@<TRIPOS>MOLECULE
ZINC58323585_451
68   71    1
SMALL
USER_CHARGES


@<TRIPOS>ATOM
      1 C1          6.2523   54.3762   23.0059 C.3       1 UNK         0.0000 
      2 C2          5.5927   54.4017   24.3808 C.ar      1 UNK         0.0000 
      3 C3          6.4063   54.4038   25.5149 C.ar      1 UNK         0.0000 
      4 C4          5.8448   54.3634   26.7903 C.ar      1 UNK         0.0000 
      5 C5          4.4534   54.3403   26.9692 C.ar      1 UNK         0.0000 
      6 C6          3.6491   54.4208   25.8196 C.ar      1 UNK         0.0000 
      7 C7          4.1930   54.4067   24.5288 C.ar      1 UNK         0.0000 
      8 N8          3.3696   54.3853   23.3851 N.pl3     1 UNK         0.0000 
      9 C9          1.9362   54.1769   23.3402 C.3       1 UNK         0.0000 
     10 C10         1.5482   52.6866   23.2265 C.2       1 UNK         0.0000 
     11 O11         2.3045   51.8844   22.6773 O.2       1 UNK         0.0000 
     12 N12         0.3453   52.3555   23.7446 N.am      1 UNK         0.0000 
     13 C13        -0.2148   51.0728   23.9709 C.ar      1 UNK         0.0000 
     14 C14         0.5971   49.9282   24.0888 C.ar      1 UNK         0.0000 
     15 C15         0.0581   48.7023   24.4646 C.ar      1 UNK         0.0000 
     16 C16        -1.3000   48.5885   24.7252 C.ar      1 UNK         0.0000 
     17 C17        -2.1257   49.6991   24.5901 C.ar      1 UNK         0.0000 
     18 C18        -1.6093   50.9507   24.2074 C.ar      1 UNK         0.0000 
     19 C19        -2.5691   52.1077   24.0270 C.2       1 UNK         0.0000 
     20 O20        -2.4281   52.8963   23.0938 O.2       1 UNK         0.0000 
     21 N21        -3.5645   52.1942   24.9285 N.am      1 UNK         0.0000 
     22 C22        -4.7447   53.0539   24.8471 C.3       1 UNK         0.0000 
     23 C23        -4.8709   54.1759   25.8516 C.3       1 UNK         0.0000 
     24 C24        -4.6529   54.4980   24.3966 C.3       1 UNK         0.0000 
     25 C25         3.8843   54.2866   28.3846 C.2       1 UNK         0.0000 
     26 O26         4.5677   54.7911   29.2816 O.2       1 UNK         0.0000 
     27 N27         2.6772   53.6956   28.6624 N.am      1 UNK         0.0000 
     28 C28         2.2321   53.7244   30.0797 C.3       1 UNK         0.0000 
     29 C29         0.7031   53.5298   30.2008 C.3       1 UNK         0.0000 
     30 H30         0.2706   54.4259   29.7475 H         1 UNK         0.0000 
     31 C31         0.1201   52.3484   29.3960 C.3       1 UNK         0.0000 
     32 C32         1.1093   51.7805   28.3649 C.3       1 UNK         0.0000 
     33 H33         1.8359   51.1672   28.9034 H         1 UNK         0.0000 
     34 C34         1.9155   52.8945   27.6747 C.3       1 UNK         0.0000 
     35 C35         0.3955   50.8843   27.3470 C.3       1 UNK         0.0000 
     36 C36         0.2012   53.5320   31.6526 C.3       1 UNK         0.0000 
     37 H37         7.3401   54.3326   23.0637 H         1 UNK         0.0000 
     38 H38         5.9115   53.5057   22.4446 H         1 UNK         0.0000 
     39 H39         5.9766   55.2624   22.4328 H         1 UNK         0.0000 
     40 H40         7.4815   54.4031   25.4095 H         1 UNK         0.0000 
     41 H41         6.5085   54.3401   27.6462 H         1 UNK         0.0000 
     42 H42         2.5856   54.4963   25.9212 H         1 UNK         0.0000 
     43 H43         3.8636   54.2476   22.5134 H         1 UNK         0.0000 
     44 H44         1.5016   54.6819   22.4812 H         1 UNK         0.0000 
     45 H45         1.4104   54.6174   24.1840 H         1 UNK         0.0000 
     46 H46        -0.2576   53.1200   24.0088 H         1 UNK         0.0000 
     47 H47         1.6681   49.9699   23.9530 H         1 UNK         0.0000 
     48 H48         0.7020   47.8441   24.5868 H         1 UNK         0.0000 
     49 H49        -1.7116   47.6431   25.0412 H         1 UNK         0.0000 
     50 H50        -3.1810   49.5677   24.7808 H         1 UNK         0.0000 
     51 H51        -3.5625   51.5182   25.6783 H         1 UNK         0.0000 
     52 H52        -5.6507   52.5061   24.5830 H         1 UNK         0.0000 
     53 H53        -4.0497   54.3463   26.5473 H         1 UNK         0.0000 
     54 H54        -5.8463   54.3513   26.3048 H         1 UNK         0.0000 
     55 H55        -5.4781   54.8947   23.8057 H         1 UNK         0.0000 
     56 H56        -3.6944   54.9092   24.0823 H         1 UNK         0.0000 
     57 H57         2.7699   52.9646   30.6491 H         1 UNK         0.0000 
     58 H58         2.4150   54.7239   30.4809 H         1 UNK         0.0000 
     59 H59        -0.1563   51.5051   30.0329 H         1 UNK         0.0000 
     60 H60        -0.7788   52.7105   28.8948 H         1 UNK         0.0000 
     61 H61         1.2365   53.5292   27.1058 H         1 UNK         0.0000 
     62 H62         2.6035   52.3769   27.0033 H         1 UNK         0.0000 
     63 H63        -0.3000   51.4608   26.7398 H         1 UNK         0.0000 
     64 H64         1.1044   50.3942   26.6848 H         1 UNK         0.0000 
     65 H65        -0.1809   50.0974   27.8228 H         1 UNK         0.0000 
     66 H66         0.7079   52.7706   32.2466 H         1 UNK         0.0000 
     67 H67         0.3523   54.4972   32.1387 H         1 UNK         0.0000 
     68 H68        -0.8613   53.2967   31.6867 H         1 UNK         0.0000 
@<TRIPOS>BOND
     1    1    2 1    
     2    1   37 1    
     3    1   38 1    
     4    1   39 1    
     5    2    7 ar   
     6    2    3 ar   
     7    3    4 ar   
     8    3   40 1    
     9    4    5 ar   
    10    4   41 1    
    11    5    6 ar   
    12    5   25 1    
    13    6    7 ar   
    14    6   42 1    
    15    7    8 1    
    16    8    9 1    
    17    8   43 1    
    18    9   10 1    
    19    9   44 1    
    20    9   45 1    
    21   10   11 2    
    22   10   12 am   BACKBONE|DICT|INTERRES
    23   12   13 1    
    24   12   46 1    
    25   13   18 ar   
    26   13   14 ar   
    27   14   15 ar   
    28   14   47 1    
    29   15   16 ar   
    30   15   48 1    
    31   16   17 ar   
    32   16   49 1    
    33   17   18 ar   
    34   17   50 1    
    35   18   19 1    
    36   19   20 2    
    37   19   21 am   BACKBONE|DICT|INTERRES
    38   21   22 1    
    39   21   51 1    
    40   22   24 1    
    41   22   23 1    
    42   22   52 1    
    43   23   24 1    
    44   23   53 1    
    45   23   54 1    
    46   24   55 1    
    47   24   56 1    
    48   25   26 2    
    49   25   27 am   BACKBONE|DICT|INTERRES
    50   27   34 1    
    51   27   28 1    
    52   28   29 1    
    53   28   57 1    
    54   28   58 1    
    55   29   30 1    
    56   29   31 1    
    57   29   36 1    
    58   31   32 1    
    59   31   59 1    
    60   31   60 1    
    61   32   33 1    
    62   32   34 1    
    63   32   35 1    
    64   34   61 1    
    65   34   62 1    
    66   35   63 1    
    67   35   64 1    
    68   35   65 1    
    69   36   66 1    
    70   36   67 1    
    71   36   68 1    
@<TRIPOS>SUBSTRUCTURE
     1 UNK         1 GROUP             0       ****    0 ROOT    
