@<TRIPOS>MOLECULE
ZINC22851554_2257
63   66    1
SMALL
USER_CHARGES


@<TRIPOS>ATOM
      1 C1         -4.9544   48.5697   27.3596 C.3       1 UNK         0.0000 
      2 C2         -4.3525   48.6820   25.9443 C.3       1 UNK         0.0000 
      3 C3         -4.9269   47.5404   25.0739 C.3       1 UNK         0.0000 
      4 C4         -4.7482   50.0541   25.3479 C.3       1 UNK         0.0000 
      5 N5         -2.8955   48.5653   26.0819 N.am      1 UNK         0.0000 
      6 C6         -1.9496   48.6430   25.1313 C.2       1 UNK         0.0000 
      7 O7         -2.1662   48.6801   23.9196 O.2       1 UNK         0.0000 
      8 N8         -0.7328   48.7541   25.6817 N.am      1 UNK         0.0000 
      9 C9          0.4410   49.3287   25.0216 C.3       1 UNK         0.0000 
     10 C10         0.4223   50.8901   24.8276 C.3       1 UNK         0.0000 
     11 H11        -0.5355   51.1240   24.3579 H         1 UNK         0.0000 
     12 C12         0.4273   51.6463   26.1885 C.ar      1 UNK         0.0000 
     13 C13        -0.6574   51.4852   27.0800 C.ar      1 UNK         0.0000 
     14 C14        -0.6774   52.0981   28.3378 C.ar      1 UNK         0.0000 
     15 C15         0.3910   52.9176   28.6708 C.ar      1 UNK         0.0000 
     16 C16         1.4392   53.1095   27.8202 C.ar      1 UNK         0.0000 
     17 C17         1.4954   52.4907   26.5776 C.ar      1 UNK         0.0000 
     18 O18         2.3196   53.9795   28.3805 O.3       1 UNK         0.0000 
     19 C19         1.8945   54.1338   29.7066 C.3       1 UNK         0.0000 
     20 O20         0.5771   53.6617   29.7919 O.3       1 UNK         0.0000 
     21 N21         1.4532   51.3909   23.8769 N.3       1 UNK         0.0000 
     22 C22         1.1378   52.7329   23.3777 C.3       1 UNK         0.0000 
     23 C23         2.3894   53.3162   22.6990 C.3       1 UNK         0.0000 
     24 N24         2.7235   52.5912   21.4672 N.pl3     1 UNK         0.0000 
     25 C25         2.7481   51.1320   21.6804 C.3       1 UNK         0.0000 
     26 C26         1.7474   50.5338   22.7120 C.3       1 UNK         0.0000 
     27 C27         3.6093   53.1130   20.5266 C.ar      1 UNK         0.0000 
     28 C28         4.5851   54.0562   20.8931 C.ar      1 UNK         0.0000 
     29 C29         5.4580   54.5926   19.9461 C.ar      1 UNK         0.0000 
     30 C30         5.3585   54.2088   18.6115 C.ar      1 UNK         0.0000 
     31 C31         4.3784   53.2978   18.2241 C.ar      1 UNK         0.0000 
     32 C32         3.5029   52.7601   19.1685 C.ar      1 UNK         0.0000 
     33 F33         2.5372   51.9101   18.7423 F         1 UNK         0.0000 
     34 H34        -4.5946   49.3636   28.0144 H         1 UNK         0.0000 
     35 H35        -6.0422   48.6341   27.3404 H         1 UNK         0.0000 
     36 H36        -4.6939   47.6216   27.8328 H         1 UNK         0.0000 
     37 H37        -4.5655   47.5913   24.0475 H         1 UNK         0.0000 
     38 H38        -4.6533   46.5626   25.4696 H         1 UNK         0.0000 
     39 H39        -6.0155   47.5820   25.0307 H         1 UNK         0.0000 
     40 H40        -4.3738   50.1765   24.3306 H         1 UNK         0.0000 
     41 H41        -5.8317   50.1768   25.3084 H         1 UNK         0.0000 
     42 H42        -4.3477   50.8770   25.9430 H         1 UNK         0.0000 
     43 H43        -2.5560   48.4906   27.0396 H         1 UNK         0.0000 
     44 H44        -0.6396   48.4969   26.6600 H         1 UNK         0.0000 
     45 H45         0.5409   48.7895   24.0814 H         1 UNK         0.0000 
     46 H46         1.3155   49.0426   25.6058 H         1 UNK         0.0000 
     47 H47        -1.5044   50.8743   26.8147 H         1 UNK         0.0000 
     48 H48        -1.5081   51.9500   29.0116 H         1 UNK         0.0000 
     49 H49         2.3486   52.6468   25.9353 H         1 UNK         0.0000 
     50 H50         2.5287   53.5227   30.3499 H         1 UNK         0.0000 
     51 H51         1.9531   55.1779   30.0147 H         1 UNK         0.0000 
     52 H52         0.2854   52.7249   22.6952 H         1 UNK         0.0000 
     53 H53         0.8714   53.3958   24.2003 H         1 UNK         0.0000 
     54 H54         3.2221   53.2881   23.4037 H         1 UNK         0.0000 
     55 H55         2.1897   54.3593   22.4493 H         1 UNK         0.0000 
     56 H56         3.7419   50.9381   22.0820 H         1 UNK         0.0000 
     57 H57         2.6608   50.5783   20.7454 H         1 UNK         0.0000 
     58 H58         2.1357   49.5574   23.0008 H         1 UNK         0.0000 
     59 H59         0.8060   50.4110   22.1722 H         1 UNK         0.0000 
     60 H60         4.6862   54.3698   21.9207 H         1 UNK         0.0000 
     61 H61         6.2104   55.3070   20.2461 H         1 UNK         0.0000 
     62 H62         6.0338   54.6206   17.8748 H         1 UNK         0.0000 
     63 H63         4.2954   52.9993   17.1893 H         1 UNK         0.0000 
@<TRIPOS>BOND
     1    1    2 1    
     2    1   34 1    
     3    1   35 1    
     4    1   36 1    
     5    2    3 1    
     6    2    4 1    
     7    2    5 1    
     8    3   37 1    
     9    3   38 1    
    10    3   39 1    
    11    4   40 1    
    12    4   41 1    
    13    4   42 1    
    14    5    6 am   BACKBONE|DICT|INTERRES
    15    5   43 1    
    16    6    7 2    
    17    6    8 am   BACKBONE|DICT|INTERRES
    18    8    9 1    
    19    8   44 1    
    20    9   10 1    
    21    9   45 1    
    22    9   46 1    
    23   10   11 1    
    24   10   12 1    
    25   10   21 1    
    26   12   17 ar   
    27   12   13 ar   
    28   13   14 ar   
    29   13   47 1    
    30   14   15 ar   
    31   14   48 1    
    32   15   20 1    
    33   15   16 ar   
    34   16   17 ar   
    35   16   18 1    
    36   17   49 1    
    37   18   19 1    
    38   19   20 1    
    39   19   50 1    
    40   19   51 1    
    41   21   26 1    
    42   21   22 1    
    43   22   23 1    
    44   22   52 1    
    45   22   53 1    
    46   23   24 1    
    47   23   54 1    
    48   23   55 1    
    49   24   25 1    
    50   24   27 1    
    51   25   26 1    
    52   25   56 1    
    53   25   57 1    
    54   26   58 1    
    55   26   59 1    
    56   27   32 ar   
    57   27   28 ar   
    58   28   29 ar   
    59   28   60 1    
    60   29   30 ar   
    61   29   61 1    
    62   30   31 ar   
    63   30   62 1    
    64   31   32 ar   
    65   31   63 1    
    66   32   33 1    
@<TRIPOS>SUBSTRUCTURE
     1 UNK         1 GROUP             0       ****    0 ROOT    
