ZINC38104559_1787
                    3D
 Schrodinger Suite 2024-2.
 31 32  0  0  1  0            999 V2000
    5.5358   53.8736   28.0742 C   0  0  0  0  0  0
    6.5053   54.4934   27.2905 C   0  0  0  0  0  0
    6.1809   54.9312   26.0107 C   0  0  0  0  0  0
    4.9056   54.7376   25.4957 C   0  0  0  0  0  0
    3.9351   54.1212   26.2761 C   0  0  0  0  0  0
    4.2360   53.6976   27.5824 C   0  0  0  0  0  0
    3.1887   53.0316   28.4422 C   0  0  0  0  0  0
    3.5052   52.1837   29.2809 O   0  0  0  0  0  0
    1.9253   53.4349   28.1945 N   0  0  0  0  0  0
    0.7604   52.7449   28.5448 C   0  0  0  0  0  0
   -0.0930   52.4142   27.4870 C   0  0  0  0  0  0
   -1.2652   51.6965   27.7243 C   0  0  0  0  0  0
   -1.5966   51.3140   29.0219 C   0  0  0  0  0  0
   -0.7805   51.6967   30.0818 C   0  0  0  0  0  0
    0.3898   52.4204   29.8642 C   0  0  0  0  0  0
    1.3068   52.8969   31.2521 Cl  0  0  0  0  0  0
   -2.3236   51.2141   26.3786 S   0  0  0  0  0  0
   -3.6894   51.1174   26.9033 O   0  0  0  0  0  0
   -2.0271   52.0664   25.2219 O   0  0  0  0  0  0
   -1.7991   49.6021   25.9994 N   0  0  0  0  0  0
    7.1044   55.5684   25.2634 F   0  0  0  0  0  0
    5.8001   53.5422   29.0671 H   0  0  0  0  0  0
    7.5003   54.6457   27.6821 H   0  0  0  0  0  0
    4.6722   55.0691   24.4947 H   0  0  0  0  0  0
    2.9562   53.9712   25.8429 H   0  0  0  0  0  0
    1.8267   54.0905   27.4364 H   0  0  0  0  0  0
    0.1699   52.6766   26.4716 H   0  0  0  0  0  0
   -2.4796   50.7189   29.2174 H   0  0  0  0  0  0
   -1.0458   51.3956   31.0830 H   0  0  0  0  0  0
   -1.6956   49.0296   26.8565 H   0  0  0  0  0  0
   -2.4971   49.1248   25.4290 H   0  0  0  0  0  0
  1  6  2  0  0  0
  1  2  1  0  0  0
  1 22  1  0  0  0
  2  3  2  0  0  0
  2 23  1  0  0  0
  3  4  1  0  0  0
  3 21  1  0  0  0
  4  5  2  0  0  0
  4 24  1  0  0  0
  5  6  1  0  0  0
  5 25  1  0  0  0
  6  7  1  0  0  0
  7  8  2  0  0  0
  7  9  1  0  0  0
  9 10  1  0  0  0
  9 26  1  0  0  0
 10 15  2  0  0  0
 10 11  1  0  0  0
 11 12  2  0  0  0
 11 27  1  0  0  0
 12 13  1  0  0  0
 12 17  1  0  0  0
 13 14  2  0  0  0
 13 28  1  0  0  0
 14 15  1  0  0  0
 14 29  1  0  0  0
 15 16  1  0  0  0
 17 18  2  0  0  0
 17 19  2  0  0  0
 17 20  1  0  0  0
 20 30  1  0  0  0
 20 31  1  0  0  0
M  END
> <i_i_glide_confnum>
8

> <i_i_glide_lignum>
1788

> <i_i_glide_posenum>
233

> <i_i_glide_rotatable_bonds>
4

> <i_m_Source_File_Index>
4868

> <b_m_subgroup_collapsed>
0

> <r_i_docking_score>
-5.96962

> <r_i_glide_ecoul>
-9.1166

> <r_i_glide_eff_state_penalty>
0

> <r_i_glide_einternal>
6.54385

> <r_i_glide_emodel>
-50.5318

> <r_i_glide_energy>
-39.2383

> <r_i_glide_erotb>
0.521464

> <r_i_glide_esite>
-0.18975

> <r_i_glide_evdw>
-30.1217

> <r_i_glide_gscore>
-5.96962

> <r_i_glide_hbond>
-0.16

> <r_i_glide_ligand_efficiency>
-0.284268

> <r_i_glide_ligand_efficiency_ln>
-1.47598

> <r_i_glide_ligand_efficiency_sa>
-0.784273

> <r_i_glide_lipo>
-1.88675

> <r_i_glide_metal>
0

> <r_i_glide_rewards>
-1.38101

> <s_i_glide_gridfile>
wee1_glide-grid

> <s_m_Source_File>
wee1_decoys_glide_SP.sdf

> <s_m_Source_Path>
/Users/zhangxujun/Desktop

> <s_m_entry_id>
5143

> <s_m_entry_name>
wee1_decoys_glide_SP.4868

> <s_m_subgroup_title>
wee1_decoys_glide_SP

> <s_m_subgroupid>
wee1_decoys_glide_SP


$$$$
