@<TRIPOS>MOLECULE
ZINC52308422_1604
33   34    1
SMALL
USER_CHARGES


@<TRIPOS>ATOM
      1 C1          0.1359   54.0428   31.2941 C.3       1 UNK         0.0000 
      2 C2          1.2739   53.9067   30.3160 C.ar      1 UNK         0.0000 
      3 C3          1.5656   54.6769   29.1845 C.ar      1 UNK         0.0000 
      4 C4          2.6885   54.1141   28.6058 C.ar      1 UNK         0.0000 
      5 N5          3.0414   53.1156   29.4793 N.pl3     1 UNK         0.0000 
      6 N6          2.1697   52.9598   30.4814 N.2       1 UNK         0.0000 
      7 C7          4.1521   52.1906   29.3808 C.3       1 UNK         0.0000 
      8 S8          3.5039   54.4966   27.0955 S.3       1 UNK         0.0000 
      9 C9          2.5294   53.6024   25.8995 C.ar      1 UNK         0.0000 
     10 C10         2.8691   53.7325   24.5513 C.ar      1 UNK         0.0000 
     11 C11         2.1406   53.0624   23.5685 C.ar      1 UNK         0.0000 
     12 C12         1.0573   52.2593   23.9292 C.ar      1 UNK         0.0000 
     13 C13         0.7002   52.1238   25.2749 C.ar      1 UNK         0.0000 
     14 C14         1.4408   52.7899   26.2559 C.ar      1 UNK         0.0000 
     15 S15        -0.7301   51.1457   25.7490 S.o2      1 UNK         0.0000 
     16 O16        -1.4202   51.9003   26.8004 O.2       1 UNK         0.0000 
     17 O17        -1.4278   50.7441   24.5232 O.2       1 UNK         0.0000 
     18 N18        -0.0920   49.6970   26.4816 N.pl3     1 UNK         0.0000 
     19 N19         2.4967   53.1987   22.2285 N.pl3     1 UNK         0.0000 
     20 H20        -0.4954   54.8965   31.0542 H         1 UNK         0.0000 
     21 H21         0.4842   54.1825   32.3173 H         1 UNK         0.0000 
     22 H22        -0.4958   53.1539   31.2938 H         1 UNK         0.0000 
     23 H23         0.9984   55.5127   28.8032 H         1 UNK         0.0000 
     24 H24         4.9585   52.6291   28.7926 H         1 UNK         0.0000 
     25 H25         4.5309   51.9413   30.3727 H         1 UNK         0.0000 
     26 H26         3.7882   51.2968   28.8873 H         1 UNK         0.0000 
     27 H27         3.7059   54.3553   24.2703 H         1 UNK         0.0000 
     28 H28         0.4907   51.7474   23.1648 H         1 UNK         0.0000 
     29 H29         1.1409   52.6637   27.2846 H         1 UNK         0.0000 
     30 H30        -0.6857   49.3217   27.2441 H         1 UNK         0.0000 
     31 H31         0.0804   48.9528   25.8033 H         1 UNK         0.0000 
     32 H32         1.8958   52.8098   21.5158 H         1 UNK         0.0000 
     33 H33         3.1588   53.9160   21.9699 H         1 UNK         0.0000 
@<TRIPOS>BOND
     1    1    2 1    
     2    1   20 1    
     3    1   21 1    
     4    1   22 1    
     5    2    6 ar   
     6    2    3 ar   
     7    3    4 ar   
     8    3   23 1    
     9    4    5 ar   
    10    4    8 1    
    11    5    6 ar   
    12    5    7 1    
    13    7   24 1    
    14    7   25 1    
    15    7   26 1    
    16    8    9 1    
    17    9   14 ar   
    18    9   10 ar   
    19   10   11 ar   
    20   10   27 1    
    21   11   12 ar   
    22   11   19 1    
    23   12   13 ar   
    24   12   28 1    
    25   13   14 ar   
    26   13   15 1    
    27   14   29 1    
    28   15   16 2    
    29   15   17 2    
    30   15   18 1    
    31   18   30 1    
    32   18   31 1    
    33   19   32 1    
    34   19   33 1    
@<TRIPOS>SUBSTRUCTURE
     1 UNK         1 GROUP             0       ****    0 ROOT    
