@<TRIPOS>MOLECULE
ZINC40097441_3830
34   35    1
SMALL
USER_CHARGES


@<TRIPOS>ATOM
      1 C1          6.8485   54.4330   27.3216 C.3       1 UNK         0.0000 
      2 C2          5.9429   54.4900   26.1196 C.2       1 UNK         0.0000 
      3 C3          4.5692   54.4975   25.9529 C.2       1 UNK         0.0000 
      4 C4          4.3335   54.4946   24.5794 C.2       1 UNK         0.0000 
      5 C5          5.5736   54.4964   23.9522 C.2       1 UNK         0.0000 
      6 O6          6.5473   54.5162   24.9025 O.3       1 UNK         0.0000 
      7 C7          6.0400   54.3815   22.5074 C.3       1 UNK         0.0000 
      8 H8          6.7211   53.5330   22.4833 H         1 UNK         0.0000 
      9 C9          6.8803   55.5791   22.0347 C.3       1 UNK         0.0000 
     10 N10         4.9269   54.0978   21.5867 N.am      1 UNK         0.0000 
     11 C11         4.4735   52.8528   21.3576 C.2       1 UNK         0.0000 
     12 O12         5.1042   51.8437   21.6766 O.2       1 UNK         0.0000 
     13 N13         3.2620   52.8137   20.7726 N.am      1 UNK         0.0000 
     14 C14         2.5986   51.5999   20.5381 C.ar      1 UNK         0.0000 
     15 C15         2.4628   51.1492   19.2222 C.ar      1 UNK         0.0000 
     16 C16         1.9040   49.8954   18.9688 C.ar      1 UNK         0.0000 
     17 C17         1.4577   49.0992   20.0246 C.ar      1 UNK         0.0000 
     18 C18         1.5535   49.5638   21.3365 C.ar      1 UNK         0.0000 
     19 C19         2.1185   50.8119   21.5986 C.ar      1 UNK         0.0000 
     20 F20         2.2066   51.2407   22.8803 F         1 UNK         0.0000 
     21 Br21        0.7337   47.3725   19.6795 Br        1 UNK         0.0000 
     22 H22         6.2858   54.4131   28.2548 H         1 UNK         0.0000 
     23 H23         7.5044   55.2970   27.3661 H         1 UNK         0.0000 
     24 H24         7.4772   53.5429   27.3069 H         1 UNK         0.0000 
     25 H25         3.8271   54.4756   26.7370 H         1 UNK         0.0000 
     26 H26         3.3701   54.4615   24.0919 H         1 UNK         0.0000 
     27 H27         7.7198   55.7643   22.7030 H         1 UNK         0.0000 
     28 H28         7.2927   55.3957   21.0413 H         1 UNK         0.0000 
     29 H29         6.3044   56.4966   21.9789 H         1 UNK         0.0000 
     30 H30         4.2869   54.8599   21.4254 H         1 UNK         0.0000 
     31 H31         2.8464   53.6578   20.4043 H         1 UNK         0.0000 
     32 H32         2.8481   51.7334   18.3980 H         1 UNK         0.0000 
     33 H33         1.8506   49.5319   17.9522 H         1 UNK         0.0000 
     34 H34         1.2074   48.9533   22.1567 H         1 UNK         0.0000 
@<TRIPOS>BOND
     1    1    2 1    
     2    1   22 1    
     3    1   23 1    
     4    1   24 1    
     5    2    6 1    
     6    2    3 2    
     7    3    4 1    
     8    3   25 1    
     9    4    5 2    
    10    4   26 1    
    11    5    6 1    
    12    5    7 1    
    13    7    8 1    
    14    7    9 1    
    15    7   10 1    
    16    9   27 1    
    17    9   28 1    
    18    9   29 1    
    19   10   11 am   BACKBONE|DICT|INTERRES
    20   10   30 1    
    21   11   12 2    
    22   11   13 am   BACKBONE|DICT|INTERRES
    23   13   14 1    
    24   13   31 1    
    25   14   19 ar   
    26   14   15 ar   
    27   15   16 ar   
    28   15   32 1    
    29   16   17 ar   
    30   16   33 1    
    31   17   18 ar   
    32   17   21 1    
    33   18   19 ar   
    34   18   34 1    
    35   19   20 1    
@<TRIPOS>SUBSTRUCTURE
     1 UNK         1 GROUP             0       ****    0 ROOT    
