@<TRIPOS>MOLECULE
ZINC45683796_1544
50   54    1
SMALL
USER_CHARGES


@<TRIPOS>ATOM
      1 C1         -0.0958   52.7416   30.2586 C.ar      1 UNK         0.0000 
      2 C2         -0.0878   51.9336   29.1242 C.ar      1 UNK         0.0000 
      3 C3          0.7681   52.2349   28.0685 C.ar      1 UNK         0.0000 
      4 C4          1.6202   53.3454   28.1531 C.ar      1 UNK         0.0000 
      5 C5          1.5988   54.1583   29.2934 C.ar      1 UNK         0.0000 
      6 C6          0.7341   53.8572   30.3440 C.ar      1 UNK         0.0000 
      7 N7          2.5106   53.6408   27.0953 N.pl3     1 UNK         0.0000 
      8 C8          3.8094   54.0753   27.1682 C.ar      1 UNK         0.0000 
      9 C9          4.2534   54.2071   25.8842 C.ar      1 UNK         0.0000 
     10 C10         3.1967   53.7917   25.0543 C.ar      1 UNK         0.0000 
     11 N11         2.1479   53.4730   25.8052 N.2       1 UNK         0.0000 
     12 C12         3.2679   53.6984   23.6091 C.2       1 UNK         0.0000 
     13 O13         4.2609   54.0921   22.9897 O.2       1 UNK         0.0000 
     14 N14         2.2084   53.0814   23.0437 N.am      1 UNK         0.0000 
     15 N15         2.2256   52.7900   21.6806 N.am      1 UNK         0.0000 
     16 C16         2.2922   51.4856   21.3202 C.2       1 UNK         0.0000 
     17 O17         2.4920   50.5733   22.1310 O.2       1 UNK         0.0000 
     18 C18         2.1047   51.1537   19.8194 C.3       1 UNK         0.0000 
     19 H19         2.9974   51.5084   19.2986 H         1 UNK         0.0000 
     20 C20         0.8116   51.8170   19.2566 C.3       1 UNK         0.0000 
     21 O21         0.6519   51.4701   17.8775 O.3       1 UNK         0.0000 
     22 C22         0.8100   50.1207   17.6284 C.ar      1 UNK         0.0000 
     23 C23         0.3057   49.6148   16.4311 C.ar      1 UNK         0.0000 
     24 C24         0.4742   48.2614   16.1273 C.ar      1 UNK         0.0000 
     25 C25         1.1478   47.4184   17.0156 C.ar      1 UNK         0.0000 
     26 C26         1.6599   47.9251   18.2117 C.ar      1 UNK         0.0000 
     27 C27         1.5033   49.2765   18.5117 C.ar      1 UNK         0.0000 
     28 O28         1.9901   49.7226   19.7229 O.3       1 UNK         0.0000 
     29 C29         5.6703   54.7207   25.8691 C.3       1 UNK         0.0000 
     30 C30         6.1182   54.4712   27.3243 C.3       1 UNK         0.0000 
     31 C31         4.8551   54.3729   28.2061 C.3       1 UNK         0.0000 
     32 H32        -0.7531   52.4978   31.0828 H         1 UNK         0.0000 
     33 H33        -0.7357   51.0691   29.0681 H         1 UNK         0.0000 
     34 H34         0.7749   51.5913   27.1999 H         1 UNK         0.0000 
     35 H35         2.2388   55.0260   29.3665 H         1 UNK         0.0000 
     36 H36         0.7069   54.4806   31.2257 H         1 UNK         0.0000 
     37 H37         1.2931   53.0214   23.4646 H         1 UNK         0.0000 
     38 H38         1.9087   53.5497   21.0910 H         1 UNK         0.0000 
     39 H39        -0.0645   51.4704   19.8103 H         1 UNK         0.0000 
     40 H40         0.8575   52.9044   19.3123 H         1 UNK         0.0000 
     41 H41        -0.2064   50.2688   15.7413 H         1 UNK         0.0000 
     42 H42         0.0883   47.8676   15.1991 H         1 UNK         0.0000 
     43 H43         1.2807   46.3745   16.7739 H         1 UNK         0.0000 
     44 H44         2.1854   47.2835   18.9010 H         1 UNK         0.0000 
     45 H45         6.3112   54.2061   25.1514 H         1 UNK         0.0000 
     46 H46         5.7031   55.7858   25.6381 H         1 UNK         0.0000 
     47 H47         6.8041   55.2415   27.6787 H         1 UNK         0.0000 
     48 H48         6.6618   53.5250   27.3714 H         1 UNK         0.0000 
     49 H49         4.6544   55.2968   28.7465 H         1 UNK         0.0000 
     50 H50         4.9599   53.5781   28.9451 H         1 UNK         0.0000 
@<TRIPOS>BOND
     1    1    6 ar   
     2    1    2 ar   
     3    1   32 1    
     4    2    3 ar   
     5    2   33 1    
     6    3    4 ar   
     7    3   34 1    
     8    4    5 ar   
     9    4    7 1    
    10    5    6 ar   
    11    5   35 1    
    12    6   36 1    
    13    7   11 ar   
    14    7    8 ar   
    15    8   31 1    
    16    8    9 ar   
    17    9   10 ar   
    18    9   29 1    
    19   10   11 ar   
    20   10   12 1    
    21   12   13 2    
    22   12   14 am   BACKBONE|DICT|INTERRES
    23   14   15 1    
    24   14   37 1    
    25   15   16 am   BACKBONE|DICT|INTERRES
    26   15   38 1    
    27   16   17 2    
    28   16   18 1    
    29   18   19 1    
    30   18   28 1    
    31   18   20 1    
    32   20   21 1    
    33   20   39 1    
    34   20   40 1    
    35   21   22 1    
    36   22   27 ar   
    37   22   23 ar   
    38   23   24 ar   
    39   23   41 1    
    40   24   25 ar   
    41   24   42 1    
    42   25   26 ar   
    43   25   43 1    
    44   26   27 ar   
    45   26   44 1    
    46   27   28 1    
    47   29   30 1    
    48   29   45 1    
    49   29   46 1    
    50   30   31 1    
    51   30   47 1    
    52   30   48 1    
    53   31   49 1    
    54   31   50 1    
@<TRIPOS>SUBSTRUCTURE
     1 UNK         1 GROUP             0       ****    0 ROOT    
