ZINC46581460_3950
                    3D
 Schrodinger Suite 2024-2.
 45 47  0  0  1  0            999 V2000
    0.4212   51.5099   28.3249 C   0  0  0  0  0  0
    0.7442   52.8643   28.9430 C   0  0  0  0  0  0
    0.2358   53.1539   30.2141 C   0  0  0  0  0  0
    0.4703   54.3929   30.8038 C   0  0  0  0  0  0
    1.2189   55.3542   30.1288 C   0  0  0  0  0  0
    1.7463   55.0722   28.8719 C   0  0  0  0  0  0
    1.5255   53.8231   28.2672 C   0  0  0  0  0  0
    2.0127   53.5066   26.9825 N   0  0  0  0  0  0
    3.0403   54.0558   26.2959 C   0  0  0  0  0  0
    3.8150   54.8925   26.7611 O   0  0  0  0  0  0
    3.1983   53.5779   24.8367 C   0  0  2  0  0  0
    3.2089   52.4967   24.8777 H   0  0  0  0  0  0
    4.5241   54.0248   24.1839 C   0  0  0  0  0  0
    1.7521   54.0224   23.8180 S   0  0  0  0  0  0
    0.4821   52.8359   24.1580 C   0  0  0  0  0  0
    0.8590   51.5745   24.4834 N   0  0  0  0  0  0
   -0.1210   50.6739   24.7473 C   0  0  0  0  0  0
   -1.4927   51.0335   24.6948 C   0  0  0  0  0  0
   -2.7187   50.3082   24.8934 C   0  0  0  0  0  0
   -3.8417   51.1315   24.7785 C   0  0  0  0  0  0
   -3.4251   52.7898   24.3865 S   0  0  0  0  0  0
   -1.7302   52.3957   24.3645 C   0  0  0  0  0  0
   -0.7878   53.2958   24.0793 N   0  0  0  0  0  0
   -5.3060   50.7803   24.9277 C   0  0  0  0  0  0
   -2.7393   48.8171   25.1802 C   0  0  0  0  0  0
    0.3051   49.3862   25.0745 N   0  0  0  0  0  0
    1.5036   56.8934   30.8531 Cl  0  0  0  0  0  0
   -0.1285   51.6449   27.3944 H   0  0  0  0  0  0
    1.3350   50.9611   28.0959 H   0  0  0  0  0  0
   -0.1941   50.8967   28.9836 H   0  0  0  0  0  0
   -0.3553   52.4226   30.7500 H   0  0  0  0  0  0
    0.0692   54.6044   31.7845 H   0  0  0  0  0  0
    2.3053   55.8481   28.3730 H   0  0  0  0  0  0
    1.5342   52.7412   26.5319 H   0  0  0  0  0  0
    5.3876   53.6993   24.7663 H   0  0  0  0  0  0
    4.6311   53.6016   23.1847 H   0  0  0  0  0  0
    4.5794   55.1086   24.0898 H   0  0  0  0  0  0
   -5.8101   50.7614   23.9609 H   0  0  0  0  0  0
   -5.4692   49.8085   25.3919 H   0  0  0  0  0  0
   -5.8289   51.5080   25.5487 H   0  0  0  0  0  0
   -3.7419   48.4149   25.3159 H   0  0  0  0  0  0
   -2.2878   48.2498   24.3662 H   0  0  0  0  0  0
   -2.1865   48.5712   26.0854 H   0  0  0  0  0  0
   -0.3426   48.7571   25.5332 H   0  0  0  0  0  0
    1.2923   49.1664   25.0643 H   0  0  0  0  0  0
  1  2  1  0  0  0
  1 28  1  0  0  0
  1 29  1  0  0  0
  1 30  1  0  0  0
  2  7  2  0  0  0
  2  3  1  0  0  0
  3  4  2  0  0  0
  3 31  1  0  0  0
  4  5  1  0  0  0
  4 32  1  0  0  0
  5  6  2  0  0  0
  5 27  1  0  0  0
  6  7  1  0  0  0
  6 33  1  0  0  0
  7  8  1  0  0  0
  8  9  1  0  0  0
  8 34  1  0  0  0
  9 10  2  0  0  0
  9 11  1  0  0  0
 11 12  1  0  0  0
 11 13  1  0  0  0
 11 14  1  0  0  0
 13 35  1  0  0  0
 13 36  1  0  0  0
 13 37  1  0  0  0
 14 15  1  0  0  0
 15 23  2  0  0  0
 15 16  1  0  0  0
 16 17  2  0  0  0
 17 18  1  0  0  0
 17 26  1  0  0  0
 18 22  2  0  0  0
 18 19  1  0  0  0
 19 20  2  0  0  0
 19 25  1  0  0  0
 20 21  1  0  0  0
 20 24  1  0  0  0
 21 22  1  0  0  0
 22 23  1  0  0  0
 24 38  1  0  0  0
 24 39  1  0  0  0
 24 40  1  0  0  0
 25 41  1  0  0  0
 25 42  1  0  0  0
 25 43  1  0  0  0
 26 44  1  0  0  0
 26 45  1  0  0  0
M  END
> <i_i_glide_confnum>
7

> <i_i_glide_lignum>
3951

> <i_i_glide_posenum>
62

> <i_i_glide_rotatable_bonds>
5

> <i_m_Source_File_Index>
1712

> <b_m_subgroup_collapsed>
0

> <r_i_docking_score>
-5.62137

> <r_i_glide_ecoul>
-3.45205

> <r_i_glide_eff_state_penalty>
0

> <r_i_glide_einternal>
3.12484

> <r_i_glide_emodel>
-56.4736

> <r_i_glide_energy>
-43.0477

> <r_i_glide_erotb>
0.593774

> <r_i_glide_esite>
-0.0382845

> <r_i_glide_evdw>
-39.5956

> <r_i_glide_gscore>
-5.62137

> <r_i_glide_hbond>
0

> <r_i_glide_ligand_efficiency>
-0.216206

> <r_i_glide_ligand_efficiency_ln>
-1.32016

> <r_i_glide_ligand_efficiency_sa>
-0.640511

> <r_i_glide_lipo>
-2.55477

> <r_i_glide_metal>
0

> <r_i_glide_rewards>
-1.1245

> <s_i_glide_gridfile>
wee1_glide-grid

> <s_m_Source_File>
wee1_decoys_glide_SP.sdf

> <s_m_Source_Path>
/Users/zhangxujun/Desktop

> <s_m_entry_id>
1987

> <s_m_entry_name>
wee1_decoys_glide_SP.1712

> <s_m_subgroup_title>
wee1_decoys_glide_SP

> <s_m_subgroupid>
wee1_decoys_glide_SP


$$$$
