ZINC19368109_6190
                    3D
 Schrodinger Suite 2024-2.
 61 63  0  0  1  0            999 V2000
    4.4191   55.0551   25.7925 C   0  0  0  0  0  0
    4.3496   54.4679   24.3969 C   0  0  0  0  0  0
    5.4927   53.9082   23.8355 C   0  0  0  0  0  0
    5.4223   53.2956   22.5898 C   0  0  0  0  0  0
    4.2247   53.2588   21.8597 C   0  0  0  0  0  0
    3.1034   53.9032   22.4087 C   0  0  0  0  0  0
    3.1554   54.4792   23.6762 C   0  0  0  0  0  0
    4.1762   52.5553   20.4655 C   0  0  0  0  0  0
    2.7473   52.1250   20.0151 C   0  0  0  0  0  0
    1.9387   51.4285   20.9274 C   0  0  0  0  0  0
    0.6626   50.9980   20.5778 C   0  0  0  0  0  0
    0.1834   51.2250   19.2898 C   0  0  0  0  0  0
    0.9849   51.8757   18.3540 C   0  0  0  0  0  0
    2.2605   52.3078   18.7076 C   0  0  0  0  0  0
   -1.2098   50.7647   18.9035 C   0  0  0  0  0  0
    4.8823   53.5358   19.4572 C   0  0  0  0  0  0
    5.9231   53.2179   18.8698 O   0  0  0  0  0  0
    4.3042   54.7432   19.2824 N   0  0  0  0  0  0
    4.8354   55.6494   18.3607 N   0  0  0  0  0  0
    5.7388   56.5739   18.7592 C   0  0  0  0  0  0
    6.2434   56.6017   19.8862 O   0  0  0  0  0  0
    6.1447   57.6844   17.7624 C   0  0  0  0  0  0
    5.2518   57.8321   16.5852 N   0  0  0  0  0  0
    3.9559   58.4177   16.9840 C   0  0  0  0  0  0
    3.0203   58.6645   15.7880 C   0  0  0  0  0  0
    3.7200   59.6891   14.8815 N   0  3  0  0  0  0
    5.0737   59.1164   14.4112 C   0  0  0  0  0  0
    5.9232   58.7660   15.6554 C   0  0  0  0  0  0
    2.8304   60.1009   13.6918 C   0  0  0  0  0  0
    4.9451   51.3567   20.4817 O   0  0  0  0  0  0
    5.2953   55.6967   25.8862 H   0  0  0  0  0  0
    3.5415   55.6539   26.0315 H   0  0  0  0  0  0
    4.5158   54.2579   26.5302 H   0  0  0  0  0  0
    6.4249   53.8981   24.3818 H   0  0  0  0  0  0
    6.3038   52.8065   22.2174 H   0  0  0  0  0  0
    2.1688   53.9371   21.8705 H   0  0  0  0  0  0
    2.2659   54.9289   24.0913 H   0  0  0  0  0  0
    2.3037   51.2208   21.9230 H   0  0  0  0  0  0
    0.0574   50.4787   21.3063 H   0  0  0  0  0  0
    0.6300   52.0344   17.3462 H   0  0  0  0  0  0
    2.8596   52.7751   17.9409 H   0  0  0  0  0  0
   -1.6762   51.4793   18.2249 H   0  0  0  0  0  0
   -1.1656   49.7958   18.4054 H   0  0  0  0  0  0
   -1.8597   50.6866   19.7753 H   0  0  0  0  0  0
    3.4160   55.0238   19.6786 H   0  0  0  0  0  0
    4.3893   55.6304   17.4549 H   0  0  0  0  0  0
    6.2072   58.6327   18.3032 H   0  0  0  0  0  0
    7.1702   57.4890   17.4421 H   0  0  0  0  0  0
    3.4396   57.7625   17.6818 H   0  0  0  0  0  0
    4.1385   59.3698   17.4801 H   0  0  0  0  0  0
    2.0984   59.1397   16.1276 H   0  0  0  0  0  0
    2.7968   57.7660   15.2101 H   0  0  0  0  0  0
    5.5562   59.9184   13.8499 H   0  0  0  0  0  0
    4.8808   58.2573   13.7652 H   0  0  0  0  0  0
    6.1081   59.6981   16.1955 H   0  0  0  0  0  0
    6.8803   58.3580   15.3248 H   0  0  0  0  0  0
    2.6244   59.2122   13.0925 H   0  0  0  0  0  0
    1.9155   60.5273   14.1067 H   0  0  0  0  0  0
    3.3793   60.8528   13.1217 H   0  0  0  0  0  0
    5.1044   51.0941   19.5461 H   0  0  0  0  0  0
    3.9044   60.4967   15.4832 H   0  0  0  0  0  0
  1  2  1  0  0  0
  1 31  1  0  0  0
  1 32  1  0  0  0
  1 33  1  0  0  0
  2  7  2  0  0  0
  2  3  1  0  0  0
  3  4  2  0  0  0
  3 34  1  0  0  0
  4  5  1  0  0  0
  4 35  1  0  0  0
  5  6  2  0  0  0
  5  8  1  0  0  0
  6  7  1  0  0  0
  6 36  1  0  0  0
  7 37  1  0  0  0
  8  9  1  0  0  0
  8 16  1  0  0  0
  8 30  1  0  0  0
  9 14  2  0  0  0
  9 10  1  0  0  0
 10 11  2  0  0  0
 10 38  1  0  0  0
 11 12  1  0  0  0
 11 39  1  0  0  0
 12 13  2  0  0  0
 12 15  1  0  0  0
 13 14  1  0  0  0
 13 40  1  0  0  0
 14 41  1  0  0  0
 15 42  1  0  0  0
 15 43  1  0  0  0
 15 44  1  0  0  0
 16 17  2  0  0  0
 16 18  1  0  0  0
 18 19  1  0  0  0
 18 45  1  0  0  0
 19 20  1  0  0  0
 19 46  1  0  0  0
 20 21  2  0  0  0
 20 22  1  0  0  0
 22 23  1  0  0  0
 22 47  1  0  0  0
 22 48  1  0  0  0
 23 28  1  0  0  0
 23 24  1  0  0  0
 24 25  1  0  0  0
 24 49  1  0  0  0
 24 50  1  0  0  0
 25 26  1  0  0  0
 25 51  1  0  0  0
 25 52  1  0  0  0
 26 27  1  0  0  0
 26 29  1  0  0  0
 26 61  1  0  0  0
 27 28  1  0  0  0
 27 53  1  0  0  0
 27 54  1  0  0  0
 28 55  1  0  0  0
 28 56  1  0  0  0
 29 57  1  0  0  0
 29 58  1  0  0  0
 29 59  1  0  0  0
 30 60  1  0  0  0
M  CHG  1  26   1
M  END
> <i_i_glide_confnum>
71

> <i_i_glide_lignum>
6191

> <i_i_glide_posenum>
174

> <i_i_glide_rotatable_bonds>
9

> <i_m_Source_File_Index>
2476

> <b_m_subgroup_collapsed>
0

> <r_i_docking_score>
-5.00672

> <r_i_glide_ecoul>
-14.1086

> <r_i_glide_eff_state_penalty>
0

> <r_i_glide_einternal>
7.58464

> <r_i_glide_emodel>
-50.2948

> <r_i_glide_energy>
-38.3638

> <r_i_glide_erotb>
0.931125

> <r_i_glide_esite>
-0.132581

> <r_i_glide_evdw>
-24.2552

> <r_i_glide_gscore>
-5.00672

> <r_i_glide_hbond>
-0.481056

> <r_i_glide_ligand_efficiency>
-0.166891

> <r_i_glide_ligand_efficiency_ln>
-1.13758

> <r_i_glide_ligand_efficiency_sa>
-0.518568

> <r_i_glide_lipo>
-1.28855

> <r_i_glide_metal>
0

> <r_i_glide_rewards>
-0.706599

> <s_i_glide_gridfile>
wee1_glide-grid

> <s_m_Source_File>
wee1_decoys_glide_SP.sdf

> <s_m_Source_Path>
/Users/zhangxujun/Desktop

> <s_m_entry_id>
2751

> <s_m_entry_name>
wee1_decoys_glide_SP.2476

> <s_m_subgroup_title>
wee1_decoys_glide_SP

> <s_m_subgroupid>
wee1_decoys_glide_SP


$$$$
