@<TRIPOS>MOLECULE
ZINC58079580_293
61   64    1
SMALL
USER_CHARGES


@<TRIPOS>ATOM
      1 C1          1.3505   54.9623   16.2297 C.3       1 UNK         0.0000 
      2 C2          2.8419   54.6704   16.4714 C.3       1 UNK         0.0000 
      3 C3          3.0365   53.5882   17.5509 C.3       1 UNK         0.0000 
      4 C4          4.5260   53.2613   17.7734 C.3       1 UNK         0.0000 
      5 N5          5.2673   54.5709   18.1624 N.4       1 UNK         0.0000 
      6 C6          5.1042   55.6565   17.0637 C.3       1 UNK         0.0000 
      7 C7          3.5994   55.9403   16.9027 C.3       1 UNK         0.0000 
      8 C8          6.7417   54.2963   18.5766 C.3       1 UNK         0.0000 
      9 H9          6.6144   53.4526   19.2558 H         1 UNK         0.0000 
     10 C10         7.2996   55.5023   19.4011 C.3       1 UNK         0.0000 
     11 N11         7.3585   55.2969   20.8504 N.am      1 UNK         0.0000 
     12 C12         6.3089   55.0258   21.6439 C.2       1 UNK         0.0000 
     13 O13         5.1585   54.8945   21.2233 O.2       1 UNK         0.0000 
     14 N14         6.7028   54.9127   22.9287 N.am      1 UNK         0.0000 
     15 C15         5.9431   54.5935   24.0717 C.ar      1 UNK         0.0000 
     16 C16         4.5556   54.3658   24.0870 C.ar      1 UNK         0.0000 
     17 C17         3.9627   54.0298   25.3147 C.ar      1 UNK         0.0000 
     18 C18         2.6630   53.6967   25.7969 C.ar      1 UNK         0.0000 
     19 N19         2.6847   53.4454   27.0807 N.2       1 UNK         0.0000 
     20 N20         3.9712   53.5516   27.4945 N.pl3     1 UNK         0.0000 
     21 C21         4.7924   53.9468   26.4537 C.ar      1 UNK         0.0000 
     22 N22         6.1105   54.1796   26.4798 N.ar      1 UNK         0.0000 
     23 C23         6.6506   54.5007   25.2749 C.ar      1 UNK         0.0000 
     24 C24         4.3436   53.3062   28.8945 C.3       1 UNK         0.0000 
     25 C25         4.4290   54.6513   29.6309 C.3       1 UNK         0.0000 
     26 C26         3.4001   52.3126   29.6109 C.3       1 UNK         0.0000 
     27 C27         7.5833   53.8530   17.3773 C.2       1 UNK         0.0000 
     28 C28         7.7679   52.5562   16.8910 C.2       1 UNK         0.0000 
     29 C29         8.6088   52.4588   15.7822 C.2       1 UNK         0.0000 
     30 C30         9.1057   53.6879   15.3926 C.2       1 UNK         0.0000 
     31 S31         8.5190   54.9648   16.4034 S.3       1 UNK         0.0000 
     32 H32         0.8581   55.3124   17.1397 H         1 UNK         0.0000 
     33 H33         1.2147   55.7310   15.4651 H         1 UNK         0.0000 
     34 H34         0.8239   54.0679   15.8922 H         1 UNK         0.0000 
     35 H35         3.2864   54.3095   15.5413 H         1 UNK         0.0000 
     36 H36         2.4971   52.6804   17.2697 H         1 UNK         0.0000 
     37 H37         2.5764   53.9068   18.4854 H         1 UNK         0.0000 
     38 H38         4.9979   52.8406   16.8855 H         1 UNK         0.0000 
     39 H39         4.6290   52.5622   18.6047 H         1 UNK         0.0000 
     40 H40         5.6101   56.5666   17.3913 H         1 UNK         0.0000 
     41 H41         5.5649   55.2884   16.1439 H         1 UNK         0.0000 
     42 H42         3.1801   56.3383   17.8283 H         1 UNK         0.0000 
     43 H43         3.4517   56.7353   16.1685 H         1 UNK         0.0000 
     44 H44         6.7412   56.4231   19.2263 H         1 UNK         0.0000 
     45 H45         8.3116   55.7503   19.0785 H         1 UNK         0.0000 
     46 H46         8.2797   55.3231   21.2639 H         1 UNK         0.0000 
     47 H47         7.6863   55.0564   23.1115 H         1 UNK         0.0000 
     48 H48         3.9469   54.4280   23.1992 H         1 UNK         0.0000 
     49 H49         1.7430   53.6394   25.2359 H         1 UNK         0.0000 
     50 H50         7.7123   54.6741   25.2830 H         1 UNK         0.0000 
     51 H51         5.3400   52.8574   28.8779 H         1 UNK         0.0000 
     52 H52         4.7045   54.4966   30.6694 H         1 UNK         0.0000 
     53 H53         3.4784   55.1875   29.6125 H         1 UNK         0.0000 
     54 H54         5.1908   55.2971   29.1918 H         1 UNK         0.0000 
     55 H55         3.7590   52.0906   30.6169 H         1 UNK         0.0000 
     56 H56         2.3873   52.7087   29.7047 H         1 UNK         0.0000 
     57 H57         3.3373   51.3682   29.0694 H         1 UNK         0.0000 
     58 H58         7.2918   51.6958   17.3399 H         1 UNK         0.0000 
     59 H59         8.8475   51.5258   15.2897 H         1 UNK         0.0000 
     60 H60         9.7776   53.9045   14.5749 H         1 UNK         0.0000 
     61 H61         4.8207   54.9118   19.0074 H         1 UNK         0.0000 
@<TRIPOS>BOND
     1    1    2 1    
     2    1   32 1    
     3    1   33 1    
     4    1   34 1    
     5    2    7 1    
     6    2    3 1    
     7    2   35 1    
     8    3    4 1    
     9    3   36 1    
    10    3   37 1    
    11    4    5 1    
    12    4   38 1    
    13    4   39 1    
    14    5    6 1    
    15    5    8 1    
    16    5   61 1    
    17    6    7 1    
    18    6   40 1    
    19    6   41 1    
    20    7   42 1    
    21    7   43 1    
    22    8    9 1    
    23    8   10 1    
    24    8   27 1    
    25   10   11 1    
    26   10   44 1    
    27   10   45 1    
    28   11   12 am   BACKBONE|DICT|INTERRES
    29   11   46 1    
    30   12   13 2    
    31   12   14 am   BACKBONE|DICT|INTERRES
    32   14   15 1    
    33   14   47 1    
    34   15   23 ar   
    35   15   16 ar   
    36   16   17 ar   
    37   16   48 1    
    38   17   21 ar   
    39   17   18 ar   
    40   18   19 ar   
    41   18   49 1    
    42   19   20 ar   
    43   20   21 ar   
    44   20   24 1    
    45   21   22 ar   
    46   22   23 ar   
    47   23   50 1    
    48   24   25 1    
    49   24   26 1    
    50   24   51 1    
    51   25   52 1    
    52   25   53 1    
    53   25   54 1    
    54   26   55 1    
    55   26   56 1    
    56   26   57 1    
    57   27   31 1    
    58   27   28 2    
    59   28   29 1    
    60   28   58 1    
    61   29   30 2    
    62   29   59 1    
    63   30   31 1    
    64   30   60 1    
@<TRIPOS>SUBSTRUCTURE
     1 UNK         1 GROUP             0       ****    0 ROOT    
