@<TRIPOS>MOLECULE
ZINC59474834_5318
50   53    1
SMALL
USER_CHARGES


@<TRIPOS>ATOM
      1 C1          6.6258   54.2721   24.2589 C.ar      1 UNK         0.0000 
      2 C2          6.6054   54.3976   25.6500 C.ar      1 UNK         0.0000 
      3 C3          5.3727   54.3289   26.3019 C.ar      1 UNK         0.0000 
      4 C4          4.1855   54.1799   25.5489 C.ar      1 UNK         0.0000 
      5 C5          4.2156   54.0963   24.1517 C.ar      1 UNK         0.0000 
      6 C6          5.4558   54.1024   23.5047 C.ar      1 UNK         0.0000 
      7 N7          5.4945   53.9282   22.1216 N.2       1 UNK         0.0000 
      8 C8          5.8082   54.8961   21.3575 C.2       1 UNK         0.0000 
      9 C9          5.8186   54.8405   19.8837 C.ar      1 UNK         0.0000 
     10 C10         6.1606   56.0175   19.1987 C.ar      1 UNK         0.0000 
     11 C11         6.2007   56.0601   17.8068 C.ar      1 UNK         0.0000 
     12 C12         5.9068   54.9198   17.0664 C.ar      1 UNK         0.0000 
     13 C13         5.5631   53.7396   17.7217 C.ar      1 UNK         0.0000 
     14 C14         5.5072   53.6948   19.1153 C.ar      1 UNK         0.0000 
     15 O15         5.1518   52.4977   19.6815 O.3       1 UNK         0.0000 
     16 Br16        6.6608   57.6808   16.9238 Br        1 UNK         0.0000 
     17 S17         2.8310   54.0954   26.6534 S.3       1 UNK         0.0000 
     18 C18         3.9553   54.2693   27.9882 C.2       1 UNK         0.0000 
     19 N19         5.2067   54.3841   27.6472 N.2       1 UNK         0.0000 
     20 S20         3.4658   54.2775   29.6815 S.3       1 UNK         0.0000 
     21 C21         1.6486   54.1000   29.6083 C.3       1 UNK         0.0000 
     22 C22         1.1808   52.6739   29.3059 C.2       1 UNK         0.0000 
     23 O23         1.8422   51.7046   29.6820 O.2       1 UNK         0.0000 
     24 N24         0.0531   52.5626   28.5850 N.am      1 UNK         0.0000 
     25 C25        -0.4732   51.2964   28.0700 C.3       1 UNK         0.0000 
     26 C26         0.3382   50.7395   26.8770 C.3       1 UNK         0.0000 
     27 H27         1.3264   50.4412   27.2353 H         1 UNK         0.0000 
     28 C28        -0.3545   49.6713   26.0373 C.3       1 UNK         0.0000 
     29 C29         0.2693   49.8108   24.6661 C.3       1 UNK         0.0000 
     30 C30         0.7729   51.2546   24.6255 C.3       1 UNK         0.0000 
     31 O31         0.4845   51.7885   25.9160 O.3       1 UNK         0.0000 
     32 H32         7.5716   54.2729   23.7420 H         1 UNK         0.0000 
     33 H33         7.5097   54.4954   26.2227 H         1 UNK         0.0000 
     34 H34         3.3064   53.9668   23.5824 H         1 UNK         0.0000 
     35 H35         6.0888   55.8606   21.7725 H         1 UNK         0.0000 
     36 H36         6.3934   56.9242   19.7380 H         1 UNK         0.0000 
     37 H37         5.9413   54.9507   15.9876 H         1 UNK         0.0000 
     38 H38         5.3334   52.8564   17.1417 H         1 UNK         0.0000 
     39 H39         5.1046   51.7751   19.0309 H         1 UNK         0.0000 
     40 H40         1.2322   54.8219   28.9055 H         1 UNK         0.0000 
     41 H41         1.2476   54.3628   30.5869 H         1 UNK         0.0000 
     42 H42        -0.4231   53.3988   28.2857 H         1 UNK         0.0000 
     43 H43        -1.5165   51.4298   27.7847 H         1 UNK         0.0000 
     44 H44        -0.4918   50.5606   28.8727 H         1 UNK         0.0000 
     45 H45        -1.4300   49.8544   26.0017 H         1 UNK         0.0000 
     46 H46        -0.2512   48.6800   26.4810 H         1 UNK         0.0000 
     47 H47        -0.4464   49.5986   23.8699 H         1 UNK         0.0000 
     48 H48         1.1044   49.1160   24.5573 H         1 UNK         0.0000 
     49 H49         0.2611   51.8424   23.8617 H         1 UNK         0.0000 
     50 H50         1.8462   51.2986   24.4333 H         1 UNK         0.0000 
@<TRIPOS>BOND
     1    1    6 ar   
     2    1    2 ar   
     3    1   32 1    
     4    2    3 ar   
     5    2   33 1    
     6    3   19 1    
     7    3    4 ar   
     8    4    5 ar   
     9    4   17 1    
    10    5    6 ar   
    11    5   34 1    
    12    6    7 1    
    13    7    8 2    
    14    8    9 1    
    15    8   35 1    
    16    9   14 ar   
    17    9   10 ar   
    18   10   11 ar   
    19   10   36 1    
    20   11   12 ar   
    21   11   16 1    
    22   12   13 ar   
    23   12   37 1    
    24   13   14 ar   
    25   13   38 1    
    26   14   15 1    
    27   15   39 1    
    28   17   18 1    
    29   18   19 2    
    30   18   20 1    
    31   20   21 1    
    32   21   22 1    
    33   21   40 1    
    34   21   41 1    
    35   22   23 2    
    36   22   24 am   BACKBONE|DICT|INTERRES
    37   24   25 1    
    38   24   42 1    
    39   25   26 1    
    40   25   43 1    
    41   25   44 1    
    42   26   27 1    
    43   26   31 1    
    44   26   28 1    
    45   28   29 1    
    46   28   45 1    
    47   28   46 1    
    48   29   30 1    
    49   29   47 1    
    50   29   48 1    
    51   30   31 1    
    52   30   49 1    
    53   30   50 1    
@<TRIPOS>SUBSTRUCTURE
     1 UNK         1 GROUP             0       ****    0 ROOT    
