@<TRIPOS>MOLECULE
ZINC35744269_3983
71   74    1
SMALL
USER_CHARGES


@<TRIPOS>ATOM
      1 C1          4.1651   53.9223   24.9729 C.3       1 UNK         0.0000 
      2 C2          4.2986   54.8929   26.1559 C.3       1 UNK         0.0000 
      3 C3          4.2621   54.2641   27.5666 C.3       1 UNK         0.0000 
      4 H4          4.3178   55.1022   28.2670 H         1 UNK         0.0000 
      5 C5          5.4939   53.3786   27.8348 C.3       1 UNK         0.0000 
      6 N6          2.9974   53.5635   27.8259 N.am      1 UNK         0.0000 
      7 C7          2.5114   53.2666   29.0472 C.2       1 UNK         0.0000 
      8 O8          3.1049   53.5772   30.0806 O.2       1 UNK         0.0000 
      9 C9          1.1666   52.5225   29.1941 C.3       1 UNK         0.0000 
     10 N10         0.4067   52.3629   27.9364 N.am      1 UNK         0.0000 
     11 C11        -0.8957   52.9194   27.7914 C.3       1 UNK         0.0000 
     12 N12        -1.4737   52.4957   26.5211 N.pl3     1 UNK         0.0000 
     13 C13        -0.6245   51.3966   26.0639 C.3       1 UNK         0.0000 
     14 C14         0.5255   51.3156   27.1173 C.2       1 UNK         0.0000 
     15 O15         1.3115   50.4037   27.2817 O.2       1 UNK         0.0000 
     16 C16        -1.3782   50.0287   25.9029 C.3       1 UNK         0.0000 
     17 C17        -0.5731   48.8729   25.2711 C.3       1 UNK         0.0000 
     18 N18        -0.0835   49.3583   23.9643 N.am      1 UNK         0.0000 
     19 C19         0.7777   50.5539   24.0489 C.3       1 UNK         0.0000 
     20 C20        -0.0428   51.7113   24.6527 C.3       1 UNK         0.0000 
     21 C21        -0.5401   48.8190   22.8004 C.2       1 UNK         0.0000 
     22 O22        -1.4201   47.9548   22.7785 O.2       1 UNK         0.0000 
     23 N23         0.1272   49.2224   21.6927 N.am      1 UNK         0.0000 
     24 C24         0.2915   48.5284   20.4801 C.ar      1 UNK         0.0000 
     25 C25        -0.6450   47.6232   19.9591 C.ar      1 UNK         0.0000 
     26 C26        -0.3602   46.9269   18.7875 C.ar      1 UNK         0.0000 
     27 C27         0.8452   47.1402   18.1221 C.ar      1 UNK         0.0000 
     28 C28         1.7638   48.0693   18.6158 C.ar      1 UNK         0.0000 
     29 C29         1.4843   48.7622   19.7903 C.ar      1 UNK         0.0000 
     30 S30         1.1786   46.1963   16.6601 S.3       1 UNK         0.0000 
     31 C31         2.6369   46.8969   15.8385 C.3       1 UNK         0.0000 
     32 C32        -2.8447   52.5821   26.2193 C.ar      1 UNK         0.0000 
     33 C33        -3.7908   52.0064   27.0778 C.ar      1 UNK         0.0000 
     34 C34        -5.1421   51.9894   26.7425 C.ar      1 UNK         0.0000 
     35 C35        -5.5519   52.5212   25.5237 C.ar      1 UNK         0.0000 
     36 C36        -4.6182   53.0424   24.6338 C.ar      1 UNK         0.0000 
     37 C37        -3.2679   53.0428   24.9687 C.ar      1 UNK         0.0000 
     38 H38         4.0717   54.4674   24.0335 H         1 UNK         0.0000 
     39 H39         5.0510   53.2966   24.8915 H         1 UNK         0.0000 
     40 H40         3.2929   53.2755   25.0676 H         1 UNK         0.0000 
     41 H41         3.5064   55.6334   26.0821 H         1 UNK         0.0000 
     42 H42         5.2197   55.4657   26.0406 H         1 UNK         0.0000 
     43 H43         6.4152   53.9203   27.6194 H         1 UNK         0.0000 
     44 H44         5.5503   53.0623   28.8759 H         1 UNK         0.0000 
     45 H45         5.4973   52.4969   27.1986 H         1 UNK         0.0000 
     46 H46         2.4573   53.2888   27.0198 H         1 UNK         0.0000 
     47 H47         0.5597   53.1041   29.8892 H         1 UNK         0.0000 
     48 H48         1.3352   51.5545   29.6689 H         1 UNK         0.0000 
     49 H49        -0.8948   54.0007   27.9280 H         1 UNK         0.0000 
     50 H50        -1.4677   52.4890   28.6164 H         1 UNK         0.0000 
     51 H51        -1.7148   49.6989   26.8817 H         1 UNK         0.0000 
     52 H52        -2.3469   50.1535   25.4201 H         1 UNK         0.0000 
     53 H53         0.2964   48.6311   25.8828 H         1 UNK         0.0000 
     54 H54        -1.1465   47.9469   25.2061 H         1 UNK         0.0000 
     55 H55         1.5092   50.2523   24.7793 H         1 UNK         0.0000 
     56 H56         1.3689   50.7922   23.1648 H         1 UNK         0.0000 
     57 H57        -0.7909   52.1147   23.9721 H         1 UNK         0.0000 
     58 H58         0.6149   52.5786   24.7394 H         1 UNK         0.0000 
     59 H59         0.8050   49.9529   21.8400 H         1 UNK         0.0000 
     60 H60        -1.5894   47.4393   20.4487 H         1 UNK         0.0000 
     61 H61        -1.0775   46.2186   18.3997 H         1 UNK         0.0000 
     62 H62         2.7000   48.2581   18.1124 H         1 UNK         0.0000 
     63 H63         2.2172   49.4612   20.1680 H         1 UNK         0.0000 
     64 H64         2.8760   46.3248   14.9430 H         1 UNK         0.0000 
     65 H65         2.4451   47.9286   15.5432 H         1 UNK         0.0000 
     66 H66         3.5035   46.8763   16.4980 H         1 UNK         0.0000 
     67 H67        -3.4783   51.5593   28.0101 H         1 UNK         0.0000 
     68 H68        -5.8639   51.5543   27.4186 H         1 UNK         0.0000 
     69 H69        -6.5987   52.5107   25.2550 H         1 UNK         0.0000 
     70 H70        -4.9399   53.4338   23.6821 H         1 UNK         0.0000 
     71 H71        -2.5537   53.4387   24.2633 H         1 UNK         0.0000 
@<TRIPOS>BOND
     1    1    2 1    
     2    1   38 1    
     3    1   39 1    
     4    1   40 1    
     5    2    3 1    
     6    2   41 1    
     7    2   42 1    
     8    3    4 1    
     9    3    5 1    
    10    3    6 1    
    11    5   43 1    
    12    5   44 1    
    13    5   45 1    
    14    6    7 am   BACKBONE|DICT|INTERRES
    15    6   46 1    
    16    7    8 2    
    17    7    9 1    
    18    9   10 1    
    19    9   47 1    
    20    9   48 1    
    21   10   14 am   BACKBONE|DICT|INTERRES
    22   10   11 1    
    23   11   12 1    
    24   11   49 1    
    25   11   50 1    
    26   12   13 1    
    27   12   32 1    
    28   13   20 1    
    29   13   14 1    
    30   13   16 1    
    31   14   15 2    
    32   16   17 1    
    33   16   51 1    
    34   16   52 1    
    35   17   18 1    
    36   17   53 1    
    37   17   54 1    
    38   18   19 1    
    39   18   21 am   BACKBONE|DICT|INTERRES
    40   19   20 1    
    41   19   55 1    
    42   19   56 1    
    43   20   57 1    
    44   20   58 1    
    45   21   22 2    
    46   21   23 am   BACKBONE|DICT|INTERRES
    47   23   24 1    
    48   23   59 1    
    49   24   29 ar   
    50   24   25 ar   
    51   25   26 ar   
    52   25   60 1    
    53   26   27 ar   
    54   26   61 1    
    55   27   28 ar   
    56   27   30 1    
    57   28   29 ar   
    58   28   62 1    
    59   29   63 1    
    60   30   31 1    
    61   31   64 1    
    62   31   65 1    
    63   31   66 1    
    64   32   37 ar   
    65   32   33 ar   
    66   33   34 ar   
    67   33   67 1    
    68   34   35 ar   
    69   34   68 1    
    70   35   36 ar   
    71   35   69 1    
    72   36   37 ar   
    73   36   70 1    
    74   37   71 1    
@<TRIPOS>SUBSTRUCTURE
     1 UNK         1 GROUP             0       ****    0 ROOT    
