@<TRIPOS>MOLECULE
ZINC12180488_4320
53   57    1
SMALL
USER_CHARGES


@<TRIPOS>ATOM
      1 C1          2.2912   58.0982   15.7058 C.ar      1 UNK         0.0000 
      2 C2          3.1651   57.2060   16.3271 C.ar      1 UNK         0.0000 
      3 C3          2.6823   56.0330   16.9176 C.ar      1 UNK         0.0000 
      4 C4          1.3025   55.7678   16.8817 C.ar      1 UNK         0.0000 
      5 C5          0.4276   56.6705   16.2751 C.ar      1 UNK         0.0000 
      6 C6          0.9228   57.8307   15.6812 C.ar      1 UNK         0.0000 
      7 Cl7        -1.2713   56.3622   16.2836 Cl        1 UNK         0.0000 
      8 N8          3.6358   55.2239   17.5620 N.am      1 UNK         0.0000 
      9 C9          3.5183   53.9776   18.0723 C.2       1 UNK         0.0000 
     10 O10         2.5055   53.2845   17.9961 O.2       1 UNK         0.0000 
     11 C11         4.7522   53.3888   18.7735 C.3       1 UNK         0.0000 
     12 S12         6.0380   54.6001   19.2808 S.3       1 UNK         0.0000 
     13 C13         5.9050   54.6914   21.0444 C.2       1 UNK         0.0000 
     14 N14         6.8184   55.2851   21.7812 N.2       1 UNK         0.0000 
     15 N15         6.6163   55.1396   23.1489 N.2       1 UNK         0.0000 
     16 C16         5.5005   54.4964   23.4141 C.2       1 UNK         0.0000 
     17 S17         4.6335   53.9739   22.0005 S.3       1 UNK         0.0000 
     18 N18         4.9193   54.2559   24.6493 N.am      1 UNK         0.0000 
     19 C19         5.4526   54.4968   25.8694 C.2       1 UNK         0.0000 
     20 O20         6.6107   54.8947   26.0388 O.2       1 UNK         0.0000 
     21 C21         4.5042   54.2548   27.0937 C.3       1 UNK         0.0000 
     22 C22         4.1894   52.7725   27.2772 C.3       1 UNK         0.0000 
     23 C23         3.2357   52.4981   28.4846 C.3       1 UNK         0.0000 
     24 C24         1.8953   53.2507   28.2831 C.3       1 UNK         0.0000 
     25 C25         2.1903   54.7593   28.0888 C.3       1 UNK         0.0000 
     26 C26         3.1044   54.8965   26.8442 C.3       1 UNK         0.0000 
     27 C27         2.9029   55.3117   29.3507 C.3       1 UNK         0.0000 
     28 C28         4.2177   54.5230   29.6028 C.3       1 UNK         0.0000 
     29 C29         3.8987   53.0155   29.7790 C.3       1 UNK         0.0000 
     30 C30         5.1894   54.6950   28.4163 C.3       1 UNK         0.0000 
     31 H31         2.6729   59.0075   15.2627 H         1 UNK         0.0000 
     32 H32         4.2194   57.4445   16.3517 H         1 UNK         0.0000 
     33 H33         0.8837   54.8937   17.3547 H         1 UNK         0.0000 
     34 H34         0.2473   58.5337   15.2169 H         1 UNK         0.0000 
     35 H35         4.5529   55.6377   17.6450 H         1 UNK         0.0000 
     36 H36         4.4422   52.7424   19.5915 H         1 UNK         0.0000 
     37 H37         5.2129   52.7104   18.0533 H         1 UNK         0.0000 
     38 H38         4.0006   53.8415   24.6284 H         1 UNK         0.0000 
     39 H39         3.6821   52.4967   26.3597 H         1 UNK         0.0000 
     40 H40         5.1155   52.2067   27.3739 H         1 UNK         0.0000 
     41 H41         3.0361   51.4301   28.5733 H         1 UNK         0.0000 
     42 H42         1.2334   53.0955   29.1370 H         1 UNK         0.0000 
     43 H43         1.3638   52.8505   27.4180 H         1 UNK         0.0000 
     44 H44         1.2543   55.2962   27.9276 H         1 UNK         0.0000 
     45 H45         3.1601   55.9026   26.4817 H         1 UNK         0.0000 
     46 H46         2.6014   54.3968   26.0123 H         1 UNK         0.0000 
     47 H47         3.1041   56.3778   29.2459 H         1 UNK         0.0000 
     48 H48         2.2407   55.2251   30.2131 H         1 UNK         0.0000 
     49 H49         4.7187   54.8967   30.4817 H         1 UNK         0.0000 
     50 H50         3.2450   52.8574   30.6376 H         1 UNK         0.0000 
     51 H51         4.8025   52.4411   29.9787 H         1 UNK         0.0000 
     52 H52         6.0831   54.0928   28.5993 H         1 UNK         0.0000 
     53 H53         5.5787   55.6967   28.3500 H         1 UNK         0.0000 
@<TRIPOS>BOND
     1    1    6 ar   
     2    1    2 ar   
     3    1   31 1    
     4    2    3 ar   
     5    2   32 1    
     6    3    4 ar   
     7    3    8 1    
     8    4    5 ar   
     9    4   33 1    
    10    5    6 ar   
    11    5    7 1    
    12    6   34 1    
    13    8    9 am   BACKBONE|DICT|INTERRES
    14    8   35 1    
    15    9   10 2    
    16    9   11 1    
    17   11   12 1    
    18   11   36 1    
    19   11   37 1    
    20   12   13 1    
    21   13   17 1    
    22   13   14 2    
    23   14   15 1    
    24   15   16 2    
    25   16   17 1    
    26   16   18 am   BACKBONE|DICT|INTERRES
    27   18   19 am   BACKBONE|DICT|INTERRES
    28   18   38 1    
    29   19   20 2    
    30   19   21 1    
    31   21   26 1    
    32   21   30 1    
    33   21   22 1    
    34   22   23 1    
    35   22   39 1    
    36   22   40 1    
    37   23   29 1    
    38   23   24 1    
    39   23   41 1    
    40   24   25 1    
    41   24   42 1    
    42   24   43 1    
    43   25   26 1    
    44   25   27 1    
    45   25   44 1    
    46   26   45 1    
    47   26   46 1    
    48   27   28 1    
    49   27   47 1    
    50   27   48 1    
    51   28   29 1    
    52   28   30 1    
    53   28   49 1    
    54   29   50 1    
    55   29   51 1    
    56   30   52 1    
    57   30   53 1    
@<TRIPOS>SUBSTRUCTURE
     1 UNK         1 GROUP             0       ****    0 ROOT    
