@<TRIPOS>MOLECULE
ZINC44577211_795
54   56    1
SMALL
USER_CHARGES


@<TRIPOS>ATOM
      1 C1          0.6239   51.3092   28.8770 C.3       1 UNK         0.0000 
      2 C2          0.0258   52.4184   27.9991 C.3       1 UNK         0.0000 
      3 C3          0.6531   53.7933   28.3242 C.3       1 UNK         0.0000 
      4 C4          0.1570   52.1017   26.4910 C.3       1 UNK         0.0000 
      5 C5         -0.3609   50.7209   25.9595 C.3       1 UNK         0.0000 
      6 H6          0.0041   49.9205   26.6046 H         1 UNK         0.0000 
      7 C7         -1.8883   50.5871   25.8782 C.2       1 UNK         0.0000 
      8 O8         -2.5000   50.1858   24.8815 O.2       1 UNK         0.0000 
      9 O9         -2.4799   50.9017   27.0496 O.3       1 UNK         0.0000 
     10 C10        -3.8815   50.7570   27.2213 C.3       1 UNK         0.0000 
     11 N11         0.2513   50.4522   24.6335 N.am      1 UNK         0.0000 
     12 C12         0.2707   51.2793   23.5601 C.2       1 UNK         0.0000 
     13 O13        -0.5843   52.1529   23.3929 O.2       1 UNK         0.0000 
     14 N14         1.3629   51.1586   22.7561 N.am      1 UNK         0.0000 
     15 C15         2.0813   49.8681   22.5554 C.3       1 UNK         0.0000 
     16 C16         1.8024   49.2999   21.1322 C.3       1 UNK         0.0000 
     17 C17         1.9777   50.4251   20.1332 C.ar      1 UNK         0.0000 
     18 C18         2.0108   51.7676   20.4880 C.ar      1 UNK         0.0000 
     19 N19         2.2451   52.4970   19.3355 N.pl3     1 UNK         0.0000 
     20 C20         2.4473   51.6226   18.2898 C.ar      1 UNK         0.0000 
     21 N21         2.3050   50.3456   18.7889 N.pl3     1 UNK         0.0000 
     22 H22         2.5021   49.4997   18.2652 H         1 UNK         0.0000 
     23 C23         1.7902   52.3073   21.8998 C.3       1 UNK         0.0000 
     24 H24         0.9832   53.0424   21.8669 H         1 UNK         0.0000 
     25 C25         2.9647   53.0948   22.5140 C.ar      1 UNK         0.0000 
     26 C26         4.2568   53.0531   21.9634 C.ar      1 UNK         0.0000 
     27 C27         5.3156   53.7202   22.5825 C.ar      1 UNK         0.0000 
     28 C28         5.1071   54.4229   23.7668 C.ar      1 UNK         0.0000 
     29 C29         3.8259   54.4957   24.3082 C.ar      1 UNK         0.0000 
     30 C30         2.7596   53.8561   23.6773 C.ar      1 UNK         0.0000 
     31 F31         1.5266   53.9791   24.2150 F         1 UNK         0.0000 
     32 Br32        6.5631   55.3008   24.6269 Br        1 UNK         0.0000 
     33 H33         0.8882   51.6748   29.8694 H         1 UNK         0.0000 
     34 H34        -0.0967   50.5002   29.0058 H         1 UNK         0.0000 
     35 H35         1.5247   50.8903   28.4288 H         1 UNK         0.0000 
     36 H36        -1.0291   52.4965   28.2539 H         1 UNK         0.0000 
     37 H37         1.4384   53.7259   29.0775 H         1 UNK         0.0000 
     38 H38         1.1055   54.2561   27.4461 H         1 UNK         0.0000 
     39 H39        -0.0954   54.4911   28.6996 H         1 UNK         0.0000 
     40 H40        -0.3248   52.8968   25.9245 H         1 UNK         0.0000 
     41 H41         1.2208   52.1762   26.2559 H         1 UNK         0.0000 
     42 H42        -4.4328   51.3639   26.5017 H         1 UNK         0.0000 
     43 H43        -4.1810   49.7146   27.1009 H         1 UNK         0.0000 
     44 H44        -4.1635   51.0754   28.2247 H         1 UNK         0.0000 
     45 H45         0.8404   49.6343   24.6084 H         1 UNK         0.0000 
     46 H46         3.1418   50.0932   22.6516 H         1 UNK         0.0000 
     47 H47         1.9044   49.1439   23.3486 H         1 UNK         0.0000 
     48 H48         2.4682   48.4630   20.9181 H         1 UNK         0.0000 
     49 H49         0.7878   48.9023   21.0877 H         1 UNK         0.0000 
     50 H50         2.7414   51.8780   17.2800 H         1 UNK         0.0000 
     51 H51         4.4618   52.4869   21.0665 H         1 UNK         0.0000 
     52 H52         6.3044   53.6901   22.1528 H         1 UNK         0.0000 
     53 H53         3.6514   55.0548   25.2149 H         1 UNK         0.0000 
     54 H54         2.2989   53.5099   19.2929 H         1 UNK         0.0000 
@<TRIPOS>BOND
     1    1    2 1    
     2    1   33 1    
     3    1   34 1    
     4    1   35 1    
     5    2    3 1    
     6    2    4 1    
     7    2   36 1    
     8    3   37 1    
     9    3   38 1    
    10    3   39 1    
    11    4    5 1    
    12    4   40 1    
    13    4   41 1    
    14    5    6 1    
    15    5    7 1    
    16    5   11 1    
    17    7    8 2    
    18    7    9 1    
    19    9   10 1    
    20   10   42 1    
    21   10   43 1    
    22   10   44 1    
    23   11   12 am   BACKBONE|DICT|INTERRES
    24   11   45 1    
    25   12   13 2    
    26   12   14 am   BACKBONE|DICT|INTERRES
    27   14   23 1    
    28   14   15 1    
    29   15   16 1    
    30   15   46 1    
    31   15   47 1    
    32   16   17 1    
    33   16   48 1    
    34   16   49 1    
    35   17   21 ar   
    36   17   18 ar   
    37   18   19 ar   
    38   18   23 1    
    39   19   20 ar   
    40   19   54 1    
    41   20   21 ar   
    42   20   50 1    
    43   21   22 1    
    44   23   24 1    
    45   23   25 1    
    46   25   30 ar   
    47   25   26 ar   
    48   26   27 ar   
    49   26   51 1    
    50   27   28 ar   
    51   27   52 1    
    52   28   29 ar   
    53   28   32 1    
    54   29   30 ar   
    55   29   53 1    
    56   30   31 1    
@<TRIPOS>SUBSTRUCTURE
     1 UNK         1 GROUP             0       ****    0 ROOT    
