ZINC42016669_1843
                    3D
 Schrodinger Suite 2024-2.
 43 45  0  0  1  0            999 V2000
   -0.0923   52.2436   30.3592 C   0  0  0  0  0  0
    0.5954   53.4391   29.6709 C   0  0  1  0  0  0
    0.0044   53.7088   28.7930 H   0  0  0  0  0  0
    0.6135   54.6661   30.6061 C   0  0  0  0  0  0
    1.3222   55.8925   29.9941 C   0  0  0  0  0  0
    2.6718   55.5506   29.3520 C   0  0  0  0  0  0
    2.6133   54.3510   28.3814 C   0  0  2  0  0  0
    2.0081   54.6583   27.5313 H   0  0  0  0  0  0
    2.0339   53.1230   29.1677 C   0  0  2  0  0  0
    2.6590   53.0070   30.0562 H   0  0  0  0  0  0
    2.1320   51.7655   28.4504 C   0  0  0  0  0  0
    3.9797   54.0781   27.8725 N   0  0  0  0  0  0
    4.4595   53.8907   26.5799 C   0  0  0  0  0  0
    5.7608   53.6980   26.6465 N   0  0  0  0  0  0
    6.1155   53.7213   27.9839 N   0  0  0  0  0  0
    4.9947   53.9404   28.7460 N   0  0  0  0  0  0
    3.6878   53.8140   25.2749 C   0  0  0  0  0  0
    2.3836   53.2969   25.2858 C   0  0  0  0  0  0
    1.6954   53.0169   24.1107 C   0  0  0  0  0  0
    2.2962   53.2626   22.8851 C   0  0  0  0  0  0
    3.5628   53.8353   22.8345 C   0  0  0  0  0  0
    4.2658   54.0954   24.0139 C   0  0  0  0  0  0
    5.5754   54.5569   23.8815 N   0  0  0  0  0  0
    1.6406   52.8967   21.7159 N   0  0  0  0  0  0
    0.5076   51.8698   31.1886 H   0  0  0  0  0  0
   -1.0580   52.5144   30.7748 H   0  0  0  0  0  0
   -0.2701   51.4159   29.6721 H   0  0  0  0  0  0
   -0.4060   54.9190   30.9044 H   0  0  0  0  0  0
    1.1019   54.3868   31.5369 H   0  0  0  0  0  0
    0.7049   56.3401   29.2197 H   0  0  0  0  0  0
    1.4524   56.6648   30.7538 H   0  0  0  0  0  0
    3.0017   56.4681   28.8782 H   0  0  0  0  0  0
    3.4299   55.3220   30.0818 H   0  0  0  0  0  0
    1.3475   51.6276   27.7070 H   0  0  0  0  0  0
    2.0511   50.9340   29.1499 H   0  0  0  0  0  0
    3.0959   51.6758   27.9579 H   0  0  0  0  0  0
    1.8955   53.0278   26.2004 H   0  0  0  0  0  0
    0.7124   52.5726   24.1627 H   0  0  0  0  0  0
    4.0228   54.0225   21.8752 H   0  0  0  0  0  0
    6.1535   54.5507   24.7106 H   0  0  0  0  0  0
    5.9962   54.5683   22.9644 H   0  0  0  0  0  0
    0.7138   52.5107   21.7983 H   0  0  0  0  0  0
    1.8712   53.4385   20.8899 H   0  0  0  0  0  0
  1  2  1  0  0  0
  1 25  1  0  0  0
  1 26  1  0  0  0
  1 27  1  0  0  0
  2  3  1  0  0  0
  2  9  1  0  0  0
  2  4  1  0  0  0
  4  5  1  0  0  0
  4 28  1  0  0  0
  4 29  1  0  0  0
  5  6  1  0  0  0
  5 30  1  0  0  0
  5 31  1  0  0  0
  6  7  1  0  0  0
  6 32  1  0  0  0
  6 33  1  0  0  0
  7  8  1  0  0  0
  7  9  1  0  0  0
  7 12  1  0  0  0
  9 10  1  0  0  0
  9 11  1  0  0  0
 11 34  1  0  0  0
 11 35  1  0  0  0
 11 36  1  0  0  0
 12 16  1  0  0  0
 12 13  1  0  0  0
 13 14  2  0  0  0
 13 17  1  0  0  0
 14 15  1  0  0  0
 15 16  2  0  0  0
 17 22  2  0  0  0
 17 18  1  0  0  0
 18 19  2  0  0  0
 18 37  1  0  0  0
 19 20  1  0  0  0
 19 38  1  0  0  0
 20 21  2  0  0  0
 20 24  1  0  0  0
 21 22  1  0  0  0
 21 39  1  0  0  0
 22 23  1  0  0  0
 23 40  1  0  0  0
 23 41  1  0  0  0
 24 42  1  0  0  0
 24 43  1  0  0  0
M  END
> <i_i_glide_confnum>
6

> <i_i_glide_lignum>
1844

> <i_i_glide_posenum>
126

> <i_i_glide_rotatable_bonds>
2

> <i_m_Source_File_Index>
229

> <b_m_subgroup_collapsed>
0

> <r_i_docking_score>
-6.62909

> <r_i_glide_ecoul>
-0.575386

> <r_i_glide_eff_state_penalty>
0

> <r_i_glide_einternal>
0.802893

> <r_i_glide_emodel>
-49.0383

> <r_i_glide_energy>
-36.8525

> <r_i_glide_erotb>
0.442844

> <r_i_glide_esite>
-0.00454352

> <r_i_glide_evdw>
-36.2771

> <r_i_glide_gscore>
-6.62909

> <r_i_glide_hbond>
-0.235641

> <r_i_glide_ligand_efficiency>
-0.315671

> <r_i_glide_ligand_efficiency_ln>
-1.63903

> <r_i_glide_ligand_efficiency_sa>
-0.870913

> <r_i_glide_lipo>
-2.84291

> <r_i_glide_metal>
0

> <r_i_glide_rewards>
-2.08868

> <s_i_glide_gridfile>
wee1_glide-grid

> <s_m_Source_File>
wee1_decoys_glide_SP.sdf

> <s_m_Source_Path>
/Users/zhangxujun/Desktop

> <s_m_entry_id>
504

> <s_m_entry_name>
wee1_decoys_glide_SP.229

> <s_m_subgroup_title>
wee1_decoys_glide_SP

> <s_m_subgroupid>
wee1_decoys_glide_SP


$$$$
