@<TRIPOS>MOLECULE
ZINC49036209_2481
68   72    1
SMALL
USER_CHARGES


@<TRIPOS>ATOM
      1 C1          6.9645   54.2265   23.0079 C.3       1 UNK         0.0000 
      2 C2          7.1044   55.1689   24.2062 C.3       1 UNK         0.0000 
      3 O3          5.8342   55.2681   24.8161 O.3       1 UNK         0.0000 
      4 C4          5.5419   54.6251   25.9654 C.2       1 UNK         0.0000 
      5 O5          6.3764   54.3301   26.8233 O.2       1 UNK         0.0000 
      6 C6          4.1120   54.2963   26.0600 C.2       1 UNK         0.0000 
      7 C7          3.5596   53.9320   27.2314 C.2       1 UNK         0.0000 
      8 N8          2.2242   53.5816   27.3415 N.pl3     1 UNK         0.0000 
      9 C9          1.5608   53.0179   26.2087 C.ar      1 UNK         0.0000 
     10 C10         0.4694   52.1123   26.3020 C.ar      1 UNK         0.0000 
     11 C11        -0.1678   51.6588   25.1153 C.ar      1 UNK         0.0000 
     12 C12         0.3043   52.1066   23.8654 C.ar      1 UNK         0.0000 
     13 C13         1.4020   52.9499   23.7913 C.ar      1 UNK         0.0000 
     14 C14         2.0521   53.3990   24.9340 C.ar      1 UNK         0.0000 
     15 C15         3.2900   54.2884   24.7661 C.3       1 UNK         0.0000 
     16 N16        -0.2873   51.7246   22.6544 N.pl3     1 UNK         0.0000 
     17 N17        -1.2702   50.8029   25.1088 N.pl3     1 UNK         0.0000 
     18 C18        -1.1390   49.3840   25.4148 C.3       1 UNK         0.0000 
     19 C19        -2.2192   48.5706   24.6898 C.3       1 UNK         0.0000 
     20 C20        -3.6186   49.1404   24.9114 C.2       1 UNK         0.0000 
     21 C21        -3.8318   50.4405   25.2859 C.2       1 UNK         0.0000 
     22 C22        -2.5798   51.3133   25.5176 C.3       1 UNK         0.0000 
     23 C23        -5.1762   51.0510   25.4474 C.2       1 UNK         0.0000 
     24 N24        -5.4964   52.2455   25.8102 N.2       1 UNK         0.0000 
     25 O25        -4.4442   53.1194   26.1129 O.3       1 UNK         0.0000 
     26 C26        -4.9287   54.4490   26.0243 C.3       1 UNK         0.0000 
     27 C27        -6.3916   50.1476   25.0662 C.3       1 UNK         0.0000 
     28 H28        -6.4359   50.1246   23.9760 H         1 UNK         0.0000 
     29 C29        -6.1929   48.7127   25.5711 C.3       1 UNK         0.0000 
     30 S30        -4.8785   47.8981   24.6501 S.3       1 UNK         0.0000 
     31 C31        -7.7735   50.6817   25.5397 C.3       1 UNK         0.0000 
     32 C32         0.0289   51.5906   27.6778 C.3       1 UNK         0.0000 
     33 C33         1.4190   54.1242   28.4540 C.3       1 UNK         0.0000 
     34 C34         1.8302   53.7532   29.8702 C.3       1 UNK         0.0000 
     35 C35         2.0056   55.1712   29.4024 C.3       1 UNK         0.0000 
     36 H36         7.9073   54.1349   22.4817 H         1 UNK         0.0000 
     37 H37         6.2246   54.5959   22.2970 H         1 UNK         0.0000 
     38 H38         6.6549   53.2298   23.3214 H         1 UNK         0.0000 
     39 H39         7.8873   54.8149   24.8846 H         1 UNK         0.0000 
     40 H40         7.4094   56.1519   23.8567 H         1 UNK         0.0000 
     41 H41         4.1264   53.8822   28.1515 H         1 UNK         0.0000 
     42 H42         1.7638   53.2652   22.8225 H         1 UNK         0.0000 
     43 H43         2.9866   55.2960   24.4872 H         1 UNK         0.0000 
     44 H44         3.8826   53.8947   23.9385 H         1 UNK         0.0000 
     45 H45         0.2013   51.9049   21.7867 H         1 UNK         0.0000 
     46 H46        -1.0182   51.0283   22.7055 H         1 UNK         0.0000 
     47 H47        -0.1571   49.0264   25.0978 H         1 UNK         0.0000 
     48 H48        -1.2061   49.1840   26.4787 H         1 UNK         0.0000 
     49 H49        -2.0073   48.5342   23.6206 H         1 UNK         0.0000 
     50 H50        -2.1635   47.5452   25.0563 H         1 UNK         0.0000 
     51 H51        -2.5363   51.5734   26.5757 H         1 UNK         0.0000 
     52 H52        -2.6920   52.2409   24.9565 H         1 UNK         0.0000 
     53 H53        -4.0958   55.1483   26.0825 H         1 UNK         0.0000 
     54 H54        -5.4288   54.6286   25.0702 H         1 UNK         0.0000 
     55 H55        -5.6171   54.6733   26.8407 H         1 UNK         0.0000 
     56 H56        -7.0869   48.1072   25.4178 H         1 UNK         0.0000 
     57 H57        -5.9540   48.6726   26.6358 H         1 UNK         0.0000 
     58 H58        -8.0070   51.6498   25.0942 H         1 UNK         0.0000 
     59 H59        -8.5805   50.0052   25.2547 H         1 UNK         0.0000 
     60 H60        -7.8113   50.7943   26.6244 H         1 UNK         0.0000 
     61 H61        -0.3137   50.5634   27.6586 H         1 UNK         0.0000 
     62 H62         0.8644   51.5537   28.3769 H         1 UNK         0.0000 
     63 H63        -0.7670   52.2055   28.0987 H         1 UNK         0.0000 
     64 H64         0.3586   54.2373   28.2272 H         1 UNK         0.0000 
     65 H65         1.0436   53.5213   30.5879 H         1 UNK         0.0000 
     66 H66         2.7100   53.1226   30.0108 H         1 UNK         0.0000 
     67 H67         3.0091   55.5673   29.2461 H         1 UNK         0.0000 
     68 H68         1.3352   55.9392   29.7901 H         1 UNK         0.0000 
@<TRIPOS>BOND
     1    1    2 1    
     2    1   36 1    
     3    1   37 1    
     4    1   38 1    
     5    2    3 1    
     6    2   39 1    
     7    2   40 1    
     8    3    4 1    
     9    4    5 2    
    10    4    6 1    
    11    6   15 1    
    12    6    7 2    
    13    7    8 1    
    14    7   41 1    
    15    8    9 1    
    16    8   33 1    
    17    9   14 ar   
    18    9   10 ar   
    19   10   11 ar   
    20   10   32 1    
    21   11   12 ar   
    22   11   17 1    
    23   12   13 ar   
    24   12   16 1    
    25   13   14 ar   
    26   13   42 1    
    27   14   15 1    
    28   15   43 1    
    29   15   44 1    
    30   16   45 1    
    31   16   46 1    
    32   17   22 1    
    33   17   18 1    
    34   18   19 1    
    35   18   47 1    
    36   18   48 1    
    37   19   20 1    
    38   19   49 1    
    39   19   50 1    
    40   20   30 1    
    41   20   21 2    
    42   21   22 1    
    43   21   23 1    
    44   22   51 1    
    45   22   52 1    
    46   23   24 2    
    47   23   27 1    
    48   24   25 1    
    49   25   26 1    
    50   26   53 1    
    51   26   54 1    
    52   26   55 1    
    53   27   28 1    
    54   27   29 1    
    55   27   31 1    
    56   29   30 1    
    57   29   56 1    
    58   29   57 1    
    59   31   58 1    
    60   31   59 1    
    61   31   60 1    
    62   32   61 1    
    63   32   62 1    
    64   32   63 1    
    65   33   35 1    
    66   33   34 1    
    67   33   64 1    
    68   34   35 1    
    69   34   65 1    
    70   34   66 1    
    71   35   67 1    
    72   35   68 1    
@<TRIPOS>SUBSTRUCTURE
     1 UNK         1 GROUP             0       ****    0 ROOT    
