ZINC00422114_3759
                    3D
 Schrodinger Suite 2024-2.
 42 44  0  0  1  0            999 V2000
    6.9899   54.1724   26.9871 C   0  0  0  0  0  0
    5.4785   54.1537   26.8478 C   0  0  0  0  0  0
    4.7137   54.1443   28.0198 C   0  0  0  0  0  0
    3.3220   54.1101   27.9443 C   0  0  0  0  0  0
    2.6316   54.0958   26.7772 N   0  0  0  0  0  0
    3.3632   54.1010   25.6609 C   0  0  0  0  0  0
    4.7926   54.1216   25.6057 C   0  0  0  0  0  0
    5.2465   54.0967   24.2390 C   0  0  0  0  0  0
    4.2038   53.9544   23.3158 C   0  0  0  0  0  0
    2.6263   54.0943   24.0670 S   0  0  0  0  0  0
    4.3122   53.7959   21.8787 C   0  0  0  0  0  0
    5.0177   54.6042   21.2706 O   0  0  0  0  0  0
    3.6932   52.7414   21.2653 N   0  0  0  0  0  0
    2.9736   51.6471   21.9604 C   0  0  0  0  0  0
    1.5874   51.4881   21.3034 C   0  0  0  0  0  0
    1.7056   51.2361   19.7950 C   0  0  0  0  0  0
    2.5031   52.3728   19.1352 C   0  0  1  0  0  0
    1.9480   53.2916   19.3059 H   0  0  0  0  0  0
    3.8902   52.5419   19.8087 C   0  0  0  0  0  0
    2.6247   52.1908   17.6147 C   0  0  0  0  0  0
    6.5702   54.1430   23.8656 N   0  0  0  0  0  0
    2.4749   54.0871   29.2015 C   0  0  0  0  0  0
    7.3146   54.3119   28.0213 H   0  0  0  0  0  0
    7.4029   53.2309   26.6174 H   0  0  0  0  0  0
    7.4119   54.9860   26.3977 H   0  0  0  0  0  0
    5.1993   54.1592   28.9873 H   0  0  0  0  0  0
    2.8364   51.8013   23.0247 H   0  0  0  0  0  0
    3.5438   50.7270   21.8231 H   0  0  0  0  0  0
    0.9911   52.3812   21.4950 H   0  0  0  0  0  0
    1.0543   50.6632   21.7760 H   0  0  0  0  0  0
    0.7180   51.1434   19.3401 H   0  0  0  0  0  0
    2.1978   50.2804   19.6018 H   0  0  0  0  0  0
    4.4937   51.6455   19.6770 H   0  0  0  0  0  0
    4.4079   53.3742   19.3297 H   0  0  0  0  0  0
    3.1063   51.2497   17.3577 H   0  0  0  0  0  0
    3.2056   52.9962   17.1638 H   0  0  0  0  0  0
    1.6447   52.1950   17.1380 H   0  0  0  0  0  0
    7.3267   54.2524   24.5270 H   0  0  0  0  0  0
    6.8161   54.2104   22.8855 H   0  0  0  0  0  0
    3.0487   53.7391   30.0612 H   0  0  0  0  0  0
    2.1003   55.0868   29.4205 H   0  0  0  0  0  0
    1.6181   53.4204   29.0836 H   0  0  0  0  0  0
  1  2  1  0  0  0
  1 23  1  0  0  0
  1 24  1  0  0  0
  1 25  1  0  0  0
  2  7  2  0  0  0
  2  3  1  0  0  0
  3  4  2  0  0  0
  3 26  1  0  0  0
  4  5  1  0  0  0
  4 22  1  0  0  0
  5  6  2  0  0  0
  6 10  1  0  0  0
  6  7  1  0  0  0
  7  8  1  0  0  0
  8  9  2  0  0  0
  8 21  1  0  0  0
  9 10  1  0  0  0
  9 11  1  0  0  0
 11 12  2  0  0  0
 11 13  1  0  0  0
 13 19  1  0  0  0
 13 14  1  0  0  0
 14 15  1  0  0  0
 14 27  1  0  0  0
 14 28  1  0  0  0
 15 16  1  0  0  0
 15 29  1  0  0  0
 15 30  1  0  0  0
 16 17  1  0  0  0
 16 31  1  0  0  0
 16 32  1  0  0  0
 17 18  1  0  0  0
 17 19  1  0  0  0
 17 20  1  0  0  0
 19 33  1  0  0  0
 19 34  1  0  0  0
 20 35  1  0  0  0
 20 36  1  0  0  0
 20 37  1  0  0  0
 21 38  1  0  0  0
 21 39  1  0  0  0
 22 40  1  0  0  0
 22 41  1  0  0  0
 22 42  1  0  0  0
M  END
> <i_i_glide_confnum>
6

> <i_i_glide_lignum>
3760

> <i_i_glide_posenum>
286

> <i_i_glide_rotatable_bonds>
2

> <i_m_Source_File_Index>
3129

> <b_m_subgroup_collapsed>
0

> <r_i_docking_score>
-5.30186

> <r_i_glide_ecoul>
0.424722

> <r_i_glide_eff_state_penalty>
0

> <r_i_glide_einternal>
4.20696

> <r_i_glide_emodel>
-42.0837

> <r_i_glide_energy>
-32.7552

> <r_i_glide_erotb>
0.4003

> <r_i_glide_esite>
0

> <r_i_glide_evdw>
-33.1799

> <r_i_glide_gscore>
-5.30186

> <r_i_glide_hbond>
0

> <r_i_glide_ligand_efficiency>
-0.25247

> <r_i_glide_ligand_efficiency_ln>
-1.31087

> <r_i_glide_ligand_efficiency_sa>
-0.696545

> <r_i_glide_lipo>
-2.4121

> <r_i_glide_metal>
0

> <r_i_glide_rewards>
-1.69478

> <s_i_glide_gridfile>
wee1_glide-grid

> <s_m_Source_File>
wee1_decoys_glide_SP.sdf

> <s_m_Source_Path>
/Users/zhangxujun/Desktop

> <s_m_entry_id>
3404

> <s_m_entry_name>
wee1_decoys_glide_SP.3129

> <s_m_subgroup_title>
wee1_decoys_glide_SP

> <s_m_subgroupid>
wee1_decoys_glide_SP


$$$$
