ZINC09271661_969
                    3D
 Schrodinger Suite 2024-2.
 56 60  0  0  1  0            999 V2000
    7.9547   58.4600   16.4292 C   0  0  0  0  0  0
    7.2211   57.4990   17.3462 C   0  0  0  0  0  0
    6.7883   56.2620   16.8680 C   0  0  0  0  0  0
    6.1047   55.3914   17.7129 C   0  0  0  0  0  0
    5.8663   55.7388   19.0503 C   0  0  0  0  0  0
    6.3048   56.9837   19.5175 C   0  0  0  0  0  0
    6.9811   57.8589   18.6717 C   0  0  0  0  0  0
    5.0439   54.8260   19.9122 C   0  0  0  0  0  0
    4.1538   54.1623   19.3839 O   0  0  0  0  0  0
    5.2827   54.6909   21.3722 C   0  0  0  0  0  0
    6.4009   54.8986   22.0755 C   0  0  0  0  0  0
    6.2441   54.6019   23.4863 C   0  0  0  0  0  0
    7.1044   54.6680   24.3695 O   0  0  0  0  0  0
    4.9303   54.2745   23.6699 N   0  0  0  0  0  0
    4.2162   54.2674   22.3705 C   0  0  2  0  0  0
    3.4520   55.0453   22.4190 H   0  0  0  0  0  0
    3.4612   52.9740   22.0128 C   0  0  0  0  0  0
    4.1037   51.9245   21.3533 C   0  0  0  0  0  0
    3.3742   50.8408   20.8821 C   0  0  0  0  0  0
    1.9967   50.7277   21.1251 C   0  0  0  0  0  0
    1.3463   51.7608   21.8163 C   0  0  0  0  0  0
    2.0762   52.8971   22.1933 C   0  0  0  0  0  0
   -0.0053   51.6309   22.0766 O   0  0  0  0  0  0
   -0.5114   52.2008   23.2821 C   0  0  0  0  0  0
    1.2388   49.6405   20.7223 O   0  0  0  0  0  0
    1.8721   48.5690   20.0285 C   0  0  0  0  0  0
    4.3448   54.0972   24.9514 C   0  0  0  0  0  0
    5.0099   54.2328   26.0756 N   0  0  0  0  0  0
    4.2610   54.0000   27.1747 C   0  0  0  0  0  0
    4.7477   54.0521   28.4869 C   0  0  0  0  0  0
    3.8637   53.7713   29.5278 C   0  0  0  0  0  0
    2.5250   53.4626   29.2813 C   0  0  0  0  0  0
    2.0200   53.4165   27.9793 C   0  0  0  0  0  0
    2.9048   53.6848   26.9232 C   0  0  0  0  0  0
    2.6463   53.6970   25.1815 S   0  0  0  0  0  0
    1.7042   53.2008   30.3226 F   0  0  0  0  0  0
    7.5554   55.2969   21.6688 O   0  5  0  0  0  0
    8.7996   58.9113   16.9515 H   0  0  0  0  0  0
    8.3550   57.9554   15.5490 H   0  0  0  0  0  0
    7.2888   59.2640   16.1122 H   0  0  0  0  0  0
    6.9648   55.9786   15.8404 H   0  0  0  0  0  0
    5.7572   54.4449   17.3179 H   0  0  0  0  0  0
    6.0999   57.2915   20.5328 H   0  0  0  0  0  0
    7.3009   58.8240   19.0367 H   0  0  0  0  0  0
    5.1614   51.9784   21.1429 H   0  0  0  0  0  0
    3.9030   50.0970   20.3129 H   0  0  0  0  0  0
    1.5621   53.7395   22.6276 H   0  0  0  0  0  0
   -1.5462   51.8872   23.4173 H   0  0  0  0  0  0
    0.0511   51.8506   24.1488 H   0  0  0  0  0  0
   -0.5018   53.2902   23.2818 H   0  0  0  0  0  0
    1.1313   47.8070   19.7885 H   0  0  0  0  0  0
    2.6415   48.0967   20.6413 H   0  0  0  0  0  0
    2.3165   48.9026   19.0892 H   0  0  0  0  0  0
    5.7827   54.2936   28.6838 H   0  0  0  0  0  0
    4.2296   53.7902   30.5431 H   0  0  0  0  0  0
    0.9844   53.1681   27.7991 H   0  0  0  0  0  0
  1  2  1  0  0  0
  1 38  1  0  0  0
  1 39  1  0  0  0
  1 40  1  0  0  0
  2  7  2  0  0  0
  2  3  1  0  0  0
  3  4  2  0  0  0
  3 41  1  0  0  0
  4  5  1  0  0  0
  4 42  1  0  0  0
  5  6  2  0  0  0
  5  8  1  0  0  0
  6  7  1  0  0  0
  6 43  1  0  0  0
  7 44  1  0  0  0
  8  9  2  0  0  0
  8 10  1  0  0  0
 10 15  1  0  0  0
 10 11  2  0  0  0
 11 12  1  0  0  0
 11 37  1  0  0  0
 12 13  2  0  0  0
 12 14  1  0  0  0
 14 15  1  0  0  0
 14 27  1  0  0  0
 15 16  1  0  0  0
 15 17  1  0  0  0
 17 22  2  0  0  0
 17 18  1  0  0  0
 18 19  2  0  0  0
 18 45  1  0  0  0
 19 20  1  0  0  0
 19 46  1  0  0  0
 20 21  2  0  0  0
 20 25  1  0  0  0
 21 22  1  0  0  0
 21 23  1  0  0  0
 22 47  1  0  0  0
 23 24  1  0  0  0
 24 48  1  0  0  0
 24 49  1  0  0  0
 24 50  1  0  0  0
 25 26  1  0  0  0
 26 51  1  0  0  0
 26 52  1  0  0  0
 26 53  1  0  0  0
 27 35  1  0  0  0
 27 28  2  0  0  0
 28 29  1  0  0  0
 29 34  2  0  0  0
 29 30  1  0  0  0
 30 31  2  0  0  0
 30 54  1  0  0  0
 31 32  1  0  0  0
 31 55  1  0  0  0
 32 33  2  0  0  0
 32 36  1  0  0  0
 33 34  1  0  0  0
 33 56  1  0  0  0
 34 35  1  0  0  0
M  CHG  1  37  -1
M  END
> <i_i_glide_confnum>
17

> <i_i_glide_lignum>
970

> <i_i_glide_posenum>
22

> <i_i_glide_rotatable_bonds>
6

> <i_m_Source_File_Index>
834

> <b_m_subgroup_collapsed>
0

> <r_i_docking_score>
-5.20926

> <r_i_glide_ecoul>
2.33516

> <r_i_glide_eff_state_penalty>
0

> <r_i_glide_einternal>
13.2495

> <r_i_glide_emodel>
-53.5332

> <r_i_glide_energy>
-45.5136

> <r_i_glide_erotb>
0.322488

> <r_i_glide_esite>
0

> <r_i_glide_evdw>
-47.8488

> <r_i_glide_gscore>
-5.20926

> <r_i_glide_hbond>
0

> <r_i_glide_ligand_efficiency>
-0.144702

> <r_i_glide_ligand_efficiency_ln>
-1.13652

> <r_i_glide_ligand_efficiency_sa>
-0.477795

> <r_i_glide_lipo>
-2.57514

> <r_i_glide_metal>
0

> <r_i_glide_rewards>
-0.914442

> <s_i_glide_gridfile>
wee1_glide-grid

> <s_m_Source_File>
wee1_decoys_glide_SP.sdf

> <s_m_Source_Path>
/Users/zhangxujun/Desktop

> <s_m_entry_id>
1109

> <s_m_entry_name>
wee1_decoys_glide_SP.834

> <s_m_subgroup_title>
wee1_decoys_glide_SP

> <s_m_subgroupid>
wee1_decoys_glide_SP


$$$$
