@<TRIPOS>MOLECULE
ZINC63822305_2636
40   43    1
SMALL
USER_CHARGES


@<TRIPOS>ATOM
      1 C1         -0.0282   48.5472   25.0599 C.3       1 UNK         0.0000 
      2 C2         -0.5839   49.8841   24.6186 C.2       1 UNK         0.0000 
      3 C3         -0.3524   50.6514   23.5405 C.2       1 UNK         0.0000 
      4 C4          0.4910   50.4703   22.2827 C.3       1 UNK         0.0000 
      5 H5          1.0021   49.5069   22.3215 H         1 UNK         0.0000 
      6 C6         -0.5412   50.4266   21.1122 C.3       1 UNK         0.0000 
      7 C7         -1.5750   51.5797   21.1233 C.2       1 UNK         0.0000 
      8 O8         -2.0524   52.0966   20.1157 O.2       1 UNK         0.0000 
      9 N9         -2.0427   51.8785   22.3538 N.am      1 UNK         0.0000 
     10 C10        -1.2112   51.8935   23.5710 C.3       1 UNK         0.0000 
     11 H11        -0.6282   52.8127   23.6325 H         1 UNK         0.0000 
     12 N12        -1.9642   51.7764   24.8029 N.pl3     1 UNK         0.0000 
     13 N13        -1.5562   50.5065   25.4021 N.pl3     1 UNK         0.0000 
     14 C14        -3.1817   52.3697   25.1907 C.ar      1 UNK         0.0000 
     15 C15        -3.6958   53.4633   24.4817 C.ar      1 UNK         0.0000 
     16 C16        -4.8704   54.0627   24.9257 C.ar      1 UNK         0.0000 
     17 C17        -5.4601   53.5573   26.0790 C.ar      1 UNK         0.0000 
     18 O18        -6.4939   54.0983   26.5743 O.co2     1 UNK         0.0000 
     19 N19        -4.9484   52.4959   26.7539 N.ar      1 UNK         0.0000 
     20 N20        -3.8163   51.9137   26.3144 N.ar      1 UNK         0.0000 
     21 C21         1.6276   51.4959   22.0824 C.ar      1 UNK         0.0000 
     22 C22         2.3564   51.4909   20.8836 C.ar      1 UNK         0.0000 
     23 C23         3.4107   52.3816   20.6800 C.ar      1 UNK         0.0000 
     24 C24         3.7591   53.2917   21.6762 C.ar      1 UNK         0.0000 
     25 C25         3.0585   53.2974   22.8834 C.ar      1 UNK         0.0000 
     26 C26         2.0101   52.3997   23.0863 C.ar      1 UNK         0.0000 
     27 Br27        3.5394   54.4967   24.2821 Br        1 UNK         0.0000 
     28 F28         4.7855   54.1497   21.4733 F         1 UNK         0.0000 
     29 H29        -0.8279   47.8126   25.1572 H         1 UNK         0.0000 
     30 H30         0.6999   48.1699   24.3418 H         1 UNK         0.0000 
     31 H31         0.4676   48.6397   26.0269 H         1 UNK         0.0000 
     32 H32        -0.0821   50.3256   20.1296 H         1 UNK         0.0000 
     33 H33        -1.1758   49.5496   21.2504 H         1 UNK         0.0000 
     34 H34        -2.7585   52.5851   22.3398 H         1 UNK         0.0000 
     35 H35        -1.3903   50.7102   26.3789 H         1 UNK         0.0000 
     36 H36        -3.1946   53.8682   23.6172 H         1 UNK         0.0000 
     37 H37        -5.2988   54.8966   24.3947 H         1 UNK         0.0000 
     38 H38         2.1215   50.7879   20.0982 H         1 UNK         0.0000 
     39 H39         3.9602   52.3601   19.7490 H         1 UNK         0.0000 
     40 H40         1.5172   52.4041   24.0464 H         1 UNK         0.0000 
@<TRIPOS>BOND
     1    1    2 1    
     2    1   29 1    
     3    1   30 1    
     4    1   31 1    
     5    2   13 1    
     6    2    3 2    
     7    3   10 1    
     8    3    4 1    
     9    4    5 1    
    10    4    6 1    
    11    4   21 1    
    12    6    7 1    
    13    6   32 1    
    14    6   33 1    
    15    7    8 2    
    16    7    9 am   BACKBONE|DICT|INTERRES
    17    9   10 1    
    18    9   34 1    
    19   10   11 1    
    20   10   12 1    
    21   12   13 1    
    22   12   14 1    
    23   13   35 1    
    24   14   15 ar   
    25   14   20 ar   
    26   15   16 ar   
    27   15   36 1    
    28   16   17 ar   
    29   16   37 1    
    30   17   18 1    
    31   17   19 ar   
    32   19   20 ar   
    33   21   26 ar   
    34   21   22 ar   
    35   22   23 ar   
    36   22   38 1    
    37   23   24 ar   
    38   23   39 1    
    39   24   25 ar   
    40   24   28 1    
    41   25   26 ar   
    42   25   27 1    
    43   26   40 1    
@<TRIPOS>SUBSTRUCTURE
     1 UNK         1 GROUP             0       ****    0 ROOT    
