@<TRIPOS>MOLECULE
ZINC13272581_1992
50   53    1
SMALL
USER_CHARGES


@<TRIPOS>ATOM
      1 C1          2.7537   54.9383   28.8866 C.ar      1 UNK         0.0000 
      2 C2          3.1685   54.4969   27.6293 C.ar      1 UNK         0.0000 
      3 C3          2.5256   53.4213   27.0181 C.ar      1 UNK         0.0000 
      4 C4          1.4692   52.7800   27.6703 C.ar      1 UNK         0.0000 
      5 C5          1.0521   53.2263   28.9280 C.ar      1 UNK         0.0000 
      6 C6          1.7031   54.2963   29.5446 C.ar      1 UNK         0.0000 
      7 C7         -0.0570   52.3515   29.4612 C.3       1 UNK         0.0000 
      8 C8         -0.4870   51.5306   28.2437 C.3       1 UNK         0.0000 
      9 C9          0.6748   51.5627   27.2396 C.3       1 UNK         0.0000 
     10 H10         1.3027   50.6820   27.3795 H         1 UNK         0.0000 
     11 N11         0.2096   51.6731   25.8573 N.pl3     1 UNK         0.0000 
     12 C12        -0.4854   50.6588   25.1727 C.ar      1 UNK         0.0000 
     13 C13        -0.4534   49.3417   25.6525 C.ar      1 UNK         0.0000 
     14 C14        -1.1423   48.3215   25.0073 C.ar      1 UNK         0.0000 
     15 C15        -1.8781   48.5994   23.8593 C.ar      1 UNK         0.0000 
     16 C16        -1.9119   49.9030   23.3626 C.ar      1 UNK         0.0000 
     17 C17        -1.2294   50.9557   24.0022 C.ar      1 UNK         0.0000 
     18 N18        -1.3656   52.3358   23.4433 N.pl3     1 UNK         0.0000 
     19 O19        -2.0933   52.4958   22.4666 O.co2     1 UNK         0.0000 
     20 O20        -0.7753   53.2828   23.9579 O.co2     1 UNK         0.0000 
     21 S21        -2.8316   47.2983   23.0787 S.o2      1 UNK         0.0000 
     22 O22        -3.7806   47.9193   22.1476 O.2       1 UNK         0.0000 
     23 O23        -3.2913   46.4035   24.1471 O.2       1 UNK         0.0000 
     24 N24        -1.6956   46.3305   22.1357 N.pl3     1 UNK         0.0000 
     25 C25        -1.4572   46.4459   20.7582 C.ar      1 UNK         0.0000 
     26 C26        -1.4028   47.7166   20.1735 C.ar      1 UNK         0.0000 
     27 C27        -1.1010   47.8652   18.8231 C.ar      1 UNK         0.0000 
     28 C28        -0.8446   46.7438   18.0425 C.ar      1 UNK         0.0000 
     29 C29        -0.8969   45.4724   18.6103 C.ar      1 UNK         0.0000 
     30 C30        -1.2063   45.2878   19.9698 C.ar      1 UNK         0.0000 
     31 C31        -1.2579   43.8779   20.5218 C.2       1 UNK         0.0000 
     32 O32        -0.8533   42.9282   19.8076 O.co2     1 UNK         0.0000 
     33 H33         3.2519   55.7763   29.3507 H         1 UNK         0.0000 
     34 H34         3.9911   54.9869   27.1288 H         1 UNK         0.0000 
     35 H35         2.8648   53.0758   26.0517 H         1 UNK         0.0000 
     36 H36         1.3910   54.6418   30.5188 H         1 UNK         0.0000 
     37 H37        -0.8937   52.9152   29.8722 H         1 UNK         0.0000 
     38 H38         0.3147   51.6969   30.2483 H         1 UNK         0.0000 
     39 H39        -1.3851   51.9851   27.8172 H         1 UNK         0.0000 
     40 H40        -0.7536   50.5040   28.5029 H         1 UNK         0.0000 
     41 H41         0.1649   52.6014   25.4547 H         1 UNK         0.0000 
     42 H42         0.0926   49.0800   26.5458 H         1 UNK         0.0000 
     43 H43        -1.1159   47.3245   25.4255 H         1 UNK         0.0000 
     44 H44        -2.5069   50.1000   22.4814 H         1 UNK         0.0000 
     45 H45        -1.5042   45.4050   22.5032 H         1 UNK         0.0000 
     46 H46        -1.5774   48.6016   20.7655 H         1 UNK         0.0000 
     47 H47        -1.0564   48.8508   18.3833 H         1 UNK         0.0000 
     48 H48        -0.6034   46.8595   16.9960 H         1 UNK         0.0000 
     49 H49        -0.6948   44.6223   17.9732 H         1 UNK         0.0000 
     50 O50        -1.6957   43.6948   21.6829 O.co2     1 UNK         0.0000 
@<TRIPOS>BOND
     1    1    6 ar   
     2    1    2 ar   
     3    1   33 1    
     4    2    3 ar   
     5    2   34 1    
     6    3    4 ar   
     7    3   35 1    
     8    4    9 1    
     9    4    5 ar   
    10    5    6 ar   
    11    5    7 1    
    12    6   36 1    
    13    7    8 1    
    14    7   37 1    
    15    7   38 1    
    16    8    9 1    
    17    8   39 1    
    18    8   40 1    
    19    9   10 1    
    20    9   11 1    
    21   11   12 1    
    22   11   41 1    
    23   12   17 ar   
    24   12   13 ar   
    25   13   14 ar   
    26   13   42 1    
    27   14   15 ar   
    28   14   43 1    
    29   15   16 ar   
    30   15   21 1    
    31   16   17 ar   
    32   16   44 1    
    33   17   18 1    
    34   18   19 2    
    35   18   20 1    
    36   21   22 2    
    37   21   23 2    
    38   21   24 1    
    39   24   25 1    
    40   24   45 1    
    41   25   30 ar   
    42   25   26 ar   
    43   26   27 ar   
    44   26   46 1    
    45   27   28 ar   
    46   27   47 1    
    47   28   29 ar   
    48   28   48 1    
    49   29   30 ar   
    50   29   49 1    
    51   30   31 1    
    52   31   32 2    
    53   31   50 1    
@<TRIPOS>SUBSTRUCTURE
     1 UNK         1 GROUP             0       ****    0 ROOT    
