@<TRIPOS>MOLECULE
ZINC12401682_4372
59   62    1
SMALL
USER_CHARGES


@<TRIPOS>ATOM
      1 C1          0.7527   51.8606   25.3497 C.3       1 UNK         0.0000 
      2 C2         -0.3337   51.3926   24.3682 C.3       1 UNK         0.0000 
      3 C3         -1.0755   52.5810   23.7321 C.3       1 UNK         0.0000 
      4 S4          0.2113   50.0805   23.2143 S.3       1 UNK         0.0000 
      5 C5          1.5512   50.7444   22.2644 C.2       1 UNK         0.0000 
      6 N6          2.3967   49.9746   21.6212 N.2       1 UNK         0.0000 
      7 N7          3.3458   50.6705   20.8814 N.2       1 UNK         0.0000 
      8 C8          3.1956   51.9654   20.9696 C.2       1 UNK         0.0000 
      9 S9          1.8435   52.4386   21.9678 S.3       1 UNK         0.0000 
     10 N10         3.9591   52.9194   20.3075 N.pl3     1 UNK         0.0000 
     11 C11         4.9830   53.5885   21.0177 C.2       1 UNK         0.0000 
     12 C12         5.6034   54.6757   20.4603 C.2       1 UNK         0.0000 
     13 C13         5.4308   55.0017   18.9608 C.3       1 UNK         0.0000 
     14 H14         5.4753   56.0727   18.7508 H         1 UNK         0.0000 
     15 C15         4.0777   54.4804   18.4859 C.2       1 UNK         0.0000 
     16 C16         3.5046   53.4026   19.0643 C.2       1 UNK         0.0000 
     17 N17         2.4000   52.7876   18.5065 N.pl3     1 UNK         0.0000 
     18 C18         3.5126   55.0749   17.3158 C.1       1 UNK         0.0000 
     19 N19         3.0282   55.5525   16.3805 N.1       1 UNK         0.0000 
     20 C20         6.5630   54.3682   18.1509 C.2       1 UNK         0.0000 
     21 C21         6.5841   53.2122   17.3771 C.2       1 UNK         0.0000 
     22 C22         7.7897   52.9697   16.7217 C.2       1 UNK         0.0000 
     23 C23         8.7732   53.9328   16.9324 C.2       1 UNK         0.0000 
     24 S24         8.1388   55.1060   18.0632 S.3       1 UNK         0.0000 
     25 C25        10.1771   54.0593   16.3262 C.3       1 UNK         0.0000 
     26 C26        10.5212   52.8269   15.4559 C.3       1 UNK         0.0000 
     27 C27        11.2363   54.1774   17.4422 C.3       1 UNK         0.0000 
     28 C28        10.2369   55.3227   15.4393 C.3       1 UNK         0.0000 
     29 C29         6.4534   55.5967   21.2443 C.2       1 UNK         0.0000 
     30 O30         6.7044   56.7419   20.8679 O.2       1 UNK         0.0000 
     31 C31         6.8940   55.1272   22.6353 C.3       1 UNK         0.0000 
     32 C32         5.7996   54.3164   23.3411 C.3       1 UNK         0.0000 
     33 C33         5.2771   53.1613   22.4741 C.3       1 UNK         0.0000 
     34 H34         0.3671   52.6111   26.0407 H         1 UNK         0.0000 
     35 H35         1.1043   51.0249   25.9542 H         1 UNK         0.0000 
     36 H36         1.6137   52.2932   24.8416 H         1 UNK         0.0000 
     37 H37        -1.0802   50.8786   24.9773 H         1 UNK         0.0000 
     38 H38        -1.6402   53.1308   24.4857 H         1 UNK         0.0000 
     39 H39        -0.3944   53.2969   23.2814 H         1 UNK         0.0000 
     40 H40        -1.7847   52.2497   22.9733 H         1 UNK         0.0000 
     41 H41         2.0212   53.1061   17.6264 H         1 UNK         0.0000 
     42 H42         2.0489   51.9189   18.8815 H         1 UNK         0.0000 
     43 H43         5.7359   52.5468   17.2847 H         1 UNK         0.0000 
     44 H44         7.9294   52.1117   16.0811 H         1 UNK         0.0000 
     45 H45        11.5208   52.9019   15.0259 H         1 UNK         0.0000 
     46 H46         9.8206   52.7106   14.6273 H         1 UNK         0.0000 
     47 H47        10.4864   51.9048   16.0382 H         1 UNK         0.0000 
     48 H48        11.0602   55.0427   18.0816 H         1 UNK         0.0000 
     49 H49        11.2267   53.2970   18.0817 H         1 UNK         0.0000 
     50 H50        12.2441   54.2761   17.0371 H         1 UNK         0.0000 
     51 H51        10.0442   56.2301   16.0143 H         1 UNK         0.0000 
     52 H52        11.2127   55.4386   14.9659 H         1 UNK         0.0000 
     53 H53         9.4895   55.2854   14.6451 H         1 UNK         0.0000 
     54 H54         7.2328   55.9801   23.2239 H         1 UNK         0.0000 
     55 H55         7.7672   54.4937   22.4812 H         1 UNK         0.0000 
     56 H56         4.9673   54.9631   23.6166 H         1 UNK         0.0000 
     57 H57         6.1842   53.9205   24.2824 H         1 UNK         0.0000 
     58 H58         4.3647   52.8967   23.0004 H         1 UNK         0.0000 
     59 H59         5.9053   52.2709   22.4858 H         1 UNK         0.0000 
@<TRIPOS>BOND
     1    1    2 1    
     2    1   34 1    
     3    1   35 1    
     4    1   36 1    
     5    2    3 1    
     6    2    4 1    
     7    2   37 1    
     8    3   38 1    
     9    3   39 1    
    10    3   40 1    
    11    4    5 1    
    12    5    9 1    
    13    5    6 2    
    14    6    7 1    
    15    7    8 2    
    16    8    9 1    
    17    8   10 1    
    18   10   16 1    
    19   10   11 1    
    20   11   33 1    
    21   11   12 2    
    22   12   13 1    
    23   12   29 1    
    24   13   14 1    
    25   13   15 1    
    26   13   20 1    
    27   15   16 2    
    28   15   18 1    
    29   16   17 1    
    30   17   41 1    
    31   17   42 1    
    32   18   19 3    
    33   20   24 1    
    34   20   21 2    
    35   21   22 1    
    36   21   43 1    
    37   22   23 2    
    38   22   44 1    
    39   23   24 1    
    40   23   25 1    
    41   25   26 1    
    42   25   27 1    
    43   25   28 1    
    44   26   45 1    
    45   26   46 1    
    46   26   47 1    
    47   27   48 1    
    48   27   49 1    
    49   27   50 1    
    50   28   51 1    
    51   28   52 1    
    52   28   53 1    
    53   29   30 2    
    54   29   31 1    
    55   31   32 1    
    56   31   54 1    
    57   31   55 1    
    58   32   33 1    
    59   32   56 1    
    60   32   57 1    
    61   33   58 1    
    62   33   59 1    
@<TRIPOS>SUBSTRUCTURE
     1 UNK         1 GROUP             0       ****    0 ROOT    
