@<TRIPOS>MOLECULE
ZINC18195454_5867
61   65    1
SMALL
USER_CHARGES


@<TRIPOS>ATOM
      1 C1         -2.5470   50.6381   26.7906 C.3       1 UNK         0.0000 
      2 C2         -2.1768   49.6697   25.6488 C.3       1 UNK         0.0000 
      3 C3         -3.4065   48.8964   25.1351 C.3       1 UNK         0.0000 
      4 C4         -1.4327   50.3718   24.5124 C.ar      1 UNK         0.0000 
      5 C5         -2.0239   51.4401   23.8290 C.ar      1 UNK         0.0000 
      6 C6         -1.3393   52.0774   22.7983 C.ar      1 UNK         0.0000 
      7 C7         -0.0551   51.6544   22.4438 C.ar      1 UNK         0.0000 
      8 C8          0.5312   50.5797   23.1218 C.ar      1 UNK         0.0000 
      9 C9         -0.1530   49.9428   24.1520 C.ar      1 UNK         0.0000 
     10 C10         0.7207   52.3743   21.3324 C.3       1 UNK         0.0000 
     11 H11         0.1991   53.2942   21.0863 H         1 UNK         0.0000 
     12 C12         2.0935   52.7998   21.8157 C.ar      1 UNK         0.0000 
     13 C13         3.3059   52.3939   21.2411 C.ar      1 UNK         0.0000 
     14 N14         4.3556   52.8625   21.8839 N.2       1 UNK         0.0000 
     15 N15         3.8509   53.5459   22.9372 N.pl3     1 UNK         0.0000 
     16 C16         2.4734   53.5461   22.9010 C.ar      1 UNK         0.0000 
     17 O17         1.7098   54.1800   23.8469 O.3       1 UNK         0.0000 
     18 C18         4.7010   54.0985   23.9277 C.ar      1 UNK         0.0000 
     19 C19         5.9190   54.6811   23.5661 C.ar      1 UNK         0.0000 
     20 C20         6.7038   55.2969   24.5359 C.ar      1 UNK         0.0000 
     21 C21         6.3050   55.2867   25.8695 C.ar      1 UNK         0.0000 
     22 C22         5.1143   54.6758   26.2449 C.ar      1 UNK         0.0000 
     23 C23         4.3077   54.0964   25.2745 C.ar      1 UNK         0.0000 
     24 N24         3.3090   51.5710   20.1328 N.pl3     1 UNK         0.0000 
     25 C25         2.1069   51.2139   19.5331 C.2       1 UNK         0.0000 
     26 C26         0.8836   51.5629   20.0324 C.2       1 UNK         0.0000 
     27 C27        -0.3670   51.1823   19.3358 C.2       1 UNK         0.0000 
     28 O28        -1.4419   51.7387   19.5742 O.2       1 UNK         0.0000 
     29 C29        -0.2361   50.2314   18.1342 C.3       1 UNK         0.0000 
     30 C30         1.0306   49.3363   18.1756 C.3       1 UNK         0.0000 
     31 C31         2.2576   50.2830   18.3281 C.3       1 UNK         0.0000 
     32 C32         0.9513   48.3312   19.3593 C.3       1 UNK         0.0000 
     33 C33         1.1403   48.6185   16.8139 C.3       1 UNK         0.0000 
     34 H34        -1.6667   51.1697   27.1535 H         1 UNK         0.0000 
     35 H35        -2.9676   50.0965   27.6387 H         1 UNK         0.0000 
     36 H36        -3.2825   51.3802   26.4743 H         1 UNK         0.0000 
     37 H37        -1.5005   48.9278   26.0818 H         1 UNK         0.0000 
     38 H38        -3.1259   48.1875   24.3543 H         1 UNK         0.0000 
     39 H39        -3.8727   48.3269   25.9401 H         1 UNK         0.0000 
     40 H40        -4.1620   49.5669   24.7208 H         1 UNK         0.0000 
     41 H41        -3.0160   51.7747   24.0948 H         1 UNK         0.0000 
     42 H42        -1.8117   52.8957   22.2766 H         1 UNK         0.0000 
     43 H43         1.5220   50.2384   22.8531 H         1 UNK         0.0000 
     44 H44         0.3176   49.1167   24.6675 H         1 UNK         0.0000 
     45 H45         0.8427   53.7695   23.8829 H         1 UNK         0.0000 
     46 H46         6.2371   54.7027   22.5325 H         1 UNK         0.0000 
     47 H47         7.6136   55.7965   24.2489 H         1 UNK         0.0000 
     48 H48         6.9176   55.7463   26.6287 H         1 UNK         0.0000 
     49 H49         4.8148   54.6608   27.2829 H         1 UNK         0.0000 
     50 H50         3.3876   53.6268   25.5875 H         1 UNK         0.0000 
     51 H51         4.1709   51.3049   19.6685 H         1 UNK         0.0000 
     52 H52        -1.1575   49.6581   18.0276 H         1 UNK         0.0000 
     53 H53        -0.1657   50.8836   17.2625 H         1 UNK         0.0000 
     54 H54         3.1044   49.6145   18.4820 H         1 UNK         0.0000 
     55 H55         2.4607   50.8956   17.4482 H         1 UNK         0.0000 
     56 H56         1.8249   47.6784   19.3735 H         1 UNK         0.0000 
     57 H57         0.9028   48.8137   20.3356 H         1 UNK         0.0000 
     58 H58         0.0727   47.6907   19.2714 H         1 UNK         0.0000 
     59 H59         2.0208   47.9762   16.7784 H         1 UNK         0.0000 
     60 H60         0.2712   47.9894   16.6187 H         1 UNK         0.0000 
     61 H61         1.2277   49.3239   15.9869 H         1 UNK         0.0000 
@<TRIPOS>BOND
     1    1    2 1    
     2    1   34 1    
     3    1   35 1    
     4    1   36 1    
     5    2    3 1    
     6    2    4 1    
     7    2   37 1    
     8    3   38 1    
     9    3   39 1    
    10    3   40 1    
    11    4    9 ar   
    12    4    5 ar   
    13    5    6 ar   
    14    5   41 1    
    15    6    7 ar   
    16    6   42 1    
    17    7    8 ar   
    18    7   10 1    
    19    8    9 ar   
    20    8   43 1    
    21    9   44 1    
    22   10   11 1    
    23   10   26 1    
    24   10   12 1    
    25   12   16 ar   
    26   12   13 ar   
    27   13   14 ar   
    28   13   24 1    
    29   14   15 ar   
    30   15   16 ar   
    31   15   18 1    
    32   16   17 1    
    33   17   45 1    
    34   18   23 ar   
    35   18   19 ar   
    36   19   20 ar   
    37   19   46 1    
    38   20   21 ar   
    39   20   47 1    
    40   21   22 ar   
    41   21   48 1    
    42   22   23 ar   
    43   22   49 1    
    44   23   50 1    
    45   24   25 1    
    46   24   51 1    
    47   25   31 1    
    48   25   26 2    
    49   26   27 1    
    50   27   28 2    
    51   27   29 1    
    52   29   30 1    
    53   29   52 1    
    54   29   53 1    
    55   30   31 1    
    56   30   32 1    
    57   30   33 1    
    58   31   54 1    
    59   31   55 1    
    60   32   56 1    
    61   32   57 1    
    62   32   58 1    
    63   33   59 1    
    64   33   60 1    
    65   33   61 1    
@<TRIPOS>SUBSTRUCTURE
     1 UNK         1 GROUP             0       ****    0 ROOT    
