@<TRIPOS>MOLECULE
ZINC40312458_3028
71   74    1
SMALL
USER_CHARGES


@<TRIPOS>ATOM
      1 C1          6.1405   56.9832   15.1462 C.3       1 UNK         0.0000 
      2 C2          6.6090   57.4860   16.5366 C.3       1 UNK         0.0000 
      3 C3          8.1395   57.7149   16.4463 C.3       1 UNK         0.0000 
      4 C4          5.9330   58.8532   16.8048 C.3       1 UNK         0.0000 
      5 C5          6.2738   56.4198   17.6503 C.3       1 UNK         0.0000 
      6 H6          6.7539   55.4956   17.3203 H         1 UNK         0.0000 
      7 C7          4.7566   56.1463   17.8270 C.3       1 UNK         0.0000 
      8 C8          4.4932   54.8685   18.6474 C.3       1 UNK         0.0000 
      9 C9          5.3123   54.8959   19.9428 C.2       1 UNK         0.0000 
     10 C10         6.3926   55.7814   20.0896 C.2       1 UNK         0.0000 
     11 S11         7.1046   55.6968   21.6593 S.3       1 UNK         0.0000 
     12 C12         5.9556   54.4966   22.1529 C.2       1 UNK         0.0000 
     13 C13         5.0723   54.1320   21.1213 C.2       1 UNK         0.0000 
     14 C14         3.9835   53.1856   21.3122 C.2       1 UNK         0.0000 
     15 O15         3.4000   53.0970   22.3939 O.2       1 UNK         0.0000 
     16 N16         3.6758   52.4406   20.2333 N.am      1 UNK         0.0000 
     17 C17         2.6000   51.4530   20.0938 C.3       1 UNK         0.0000 
     18 H18         2.9150   50.4661   20.4422 H         1 UNK         0.0000 
     19 C19         2.2701   51.3332   18.5859 C.3       1 UNK         0.0000 
     20 C20         0.9876   50.5128   18.3966 C.3       1 UNK         0.0000 
     21 S21        -0.1086   51.0256   19.8217 S.o2      1 UNK         0.0000 
     22 O22        -0.5622   49.8214   20.5236 O.2       1 UNK         0.0000 
     23 O23        -1.0716   52.0497   19.4008 O.2       1 UNK         0.0000 
     24 C24         1.2703   51.8478   20.7791 C.3       1 UNK         0.0000 
     25 N25         6.0032   53.9647   23.4208 N.pl3     1 UNK         0.0000 
     26 C26         6.7493   54.4125   24.5890 C.3       1 UNK         0.0000 
     27 C27         5.8486   54.9253   25.7294 C.3       1 UNK         0.0000 
     28 H28         5.3218   55.8212   25.3966 H         1 UNK         0.0000 
     29 C29         4.8357   53.8885   26.2609 C.3       1 UNK         0.0000 
     30 O30         3.9470   54.5314   27.1777 O.3       1 UNK         0.0000 
     31 C31         3.4863   53.8235   28.2663 C.ar      1 UNK         0.0000 
     32 C32         4.3044   52.9897   29.0404 C.ar      1 UNK         0.0000 
     33 C33         3.7804   52.3271   30.1474 C.ar      1 UNK         0.0000 
     34 C34         2.4389   52.4973   30.4831 C.ar      1 UNK         0.0000 
     35 C35         1.6226   53.3387   29.7305 C.ar      1 UNK         0.0000 
     36 C36         2.1519   54.0084   28.6299 C.ar      1 UNK         0.0000 
     37 O37         6.7043   55.2949   26.7915 O.3       1 UNK         0.0000 
     38 C38         6.8667   56.7850   19.0444 C.3       1 UNK         0.0000 
     39 H39         5.0539   56.9651   15.0551 H         1 UNK         0.0000 
     40 H40         6.5005   57.6286   14.3435 H         1 UNK         0.0000 
     41 H41         6.5065   55.9766   14.9372 H         1 UNK         0.0000 
     42 H42         8.5358   58.2042   17.3361 H         1 UNK         0.0000 
     43 H43         8.6783   56.7746   16.3191 H         1 UNK         0.0000 
     44 H44         8.4035   58.3545   15.6032 H         1 UNK         0.0000 
     45 H45         6.2548   59.2964   17.7471 H         1 UNK         0.0000 
     46 H46         6.1731   59.5787   16.0260 H         1 UNK         0.0000 
     47 H47         4.8459   58.7798   16.8345 H         1 UNK         0.0000 
     48 H48         4.2424   57.0177   18.2329 H         1 UNK         0.0000 
     49 H49         4.2867   55.9865   16.8580 H         1 UNK         0.0000 
     50 H50         4.7604   53.9898   18.0591 H         1 UNK         0.0000 
     51 H51         3.4257   54.7873   18.8495 H         1 UNK         0.0000 
     52 H52         4.3313   52.4548   19.4646 H         1 UNK         0.0000 
     53 H53         3.1040   50.8962   18.0350 H         1 UNK         0.0000 
     54 H54         2.1398   52.3278   18.1531 H         1 UNK         0.0000 
     55 H55         1.2436   49.4641   18.5481 H         1 UNK         0.0000 
     56 H56         0.4630   50.5943   17.4455 H         1 UNK         0.0000 
     57 H57         1.1180   52.8976   20.5375 H         1 UNK         0.0000 
     58 H58         1.1720   51.7687   21.8602 H         1 UNK         0.0000 
     59 H59         5.3162   53.2586   23.6522 H         1 UNK         0.0000 
     60 H60         7.3625   53.5789   24.9306 H         1 UNK         0.0000 
     61 H61         7.4508   55.1972   24.3050 H         1 UNK         0.0000 
     62 H62         4.2247   53.5053   25.4430 H         1 UNK         0.0000 
     63 H63         5.3636   53.0223   26.6603 H         1 UNK         0.0000 
     64 H64         5.3510   52.8659   28.8075 H         1 UNK         0.0000 
     65 H65         4.4185   51.6961   30.7482 H         1 UNK         0.0000 
     66 H66         2.0278   51.9918   31.3458 H         1 UNK         0.0000 
     67 H67         0.5853   53.4729   30.0018 H         1 UNK         0.0000 
     68 H68         1.5233   54.6655   28.0467 H         1 UNK         0.0000 
     69 H69         6.1655   55.4613   27.5727 H         1 UNK         0.0000 
     70 H70         6.5383   57.7796   19.3443 H         1 UNK         0.0000 
     71 H71         7.9565   56.7935   19.0133 H         1 UNK         0.0000 
@<TRIPOS>BOND
     1    1    2 1    
     2    1   39 1    
     3    1   40 1    
     4    1   41 1    
     5    2    3 1    
     6    2    4 1    
     7    2    5 1    
     8    3   42 1    
     9    3   43 1    
    10    3   44 1    
    11    4   45 1    
    12    4   46 1    
    13    4   47 1    
    14    5    6 1    
    15    5   38 1    
    16    5    7 1    
    17    7    8 1    
    18    7   48 1    
    19    7   49 1    
    20    8    9 1    
    21    8   50 1    
    22    8   51 1    
    23    9   13 1    
    24    9   10 2    
    25   10   11 1    
    26   10   38 1    
    27   11   12 1    
    28   12   13 2    
    29   12   25 1    
    30   13   14 1    
    31   14   15 2    
    32   14   16 am   BACKBONE|DICT|INTERRES
    33   16   17 1    
    34   16   52 1    
    35   17   18 1    
    36   17   24 1    
    37   17   19 1    
    38   19   20 1    
    39   19   53 1    
    40   19   54 1    
    41   20   21 1    
    42   20   55 1    
    43   20   56 1    
    44   21   22 2    
    45   21   23 2    
    46   21   24 1    
    47   24   57 1    
    48   24   58 1    
    49   25   26 1    
    50   25   59 1    
    51   26   27 1    
    52   26   60 1    
    53   26   61 1    
    54   27   28 1    
    55   27   29 1    
    56   27   37 1    
    57   29   30 1    
    58   29   62 1    
    59   29   63 1    
    60   30   31 1    
    61   31   36 ar   
    62   31   32 ar   
    63   32   33 ar   
    64   32   64 1    
    65   33   34 ar   
    66   33   65 1    
    67   34   35 ar   
    68   34   66 1    
    69   35   36 ar   
    70   35   67 1    
    71   36   68 1    
    72   37   69 1    
    73   38   70 1    
    74   38   71 1    
@<TRIPOS>SUBSTRUCTURE
     1 UNK         1 GROUP             0       ****    0 ROOT    
