@<TRIPOS>MOLECULE
ZINC09464342_4120
44   47    1
SMALL
USER_CHARGES


@<TRIPOS>ATOM
      1 C1         -4.9874   50.2541   25.9091 C.ar      1 UNK         0.0000 
      2 C2         -3.7151   50.4765   26.4386 C.ar      1 UNK         0.0000 
      3 C3         -3.1908   51.7772   26.4953 C.ar      1 UNK         0.0000 
      4 C4         -3.9528   52.8383   26.0052 C.ar      1 UNK         0.0000 
      5 C5         -5.2288   52.6202   25.4905 C.ar      1 UNK         0.0000 
      6 C6         -5.7459   51.3261   25.4374 C.ar      1 UNK         0.0000 
      7 Br7        -6.2638   54.0953   24.8816 Br        1 UNK         0.0000 
      8 O8         -1.9546   52.0969   27.0097 O.3       1 UNK         0.0000 
      9 C9         -1.3008   51.1799   27.8817 C.3       1 UNK         0.0000 
     10 C10        -0.3395   51.9613   28.7504 C.ar      1 UNK         0.0000 
     11 N11        -0.4954   52.1667   30.0340 N.2       1 UNK         0.0000 
     12 N12         0.5450   52.9934   30.4446 N.2       1 UNK         0.0000 
     13 C13         1.3202   53.1984   29.4081 C.ar      1 UNK         0.0000 
     14 N14         0.7881   52.5962   28.2879 N.pl3     1 UNK         0.0000 
     15 N15         1.2561   52.6443   26.9860 N.3       1 UNK         0.0000 
     16 S16         2.6975   54.2941   29.4319 S.3       1 UNK         0.0000 
     17 C17         3.9972   53.1311   28.9131 C.3       1 UNK         0.0000 
     18 C18         4.8743   53.7158   27.8327 C.2       1 UNK         0.0000 
     19 C19         6.1274   54.2924   27.9850 C.2       1 UNK         0.0000 
     20 S20         6.7043   54.8345   26.4481 S.3       1 UNK         0.0000 
     21 C21         5.2496   54.2213   25.7303 C.2       1 UNK         0.0000 
     22 N22         4.4098   53.6997   26.5949 N.2       1 UNK         0.0000 
     23 C23         5.0231   54.2747   24.2495 C.ar      1 UNK         0.0000 
     24 C24         6.0933   54.4856   23.3682 C.ar      1 UNK         0.0000 
     25 C25         5.8796   54.4996   21.9939 C.ar      1 UNK         0.0000 
     26 C26         4.5994   54.2959   21.4905 C.ar      1 UNK         0.0000 
     27 C27         3.5256   54.0926   22.3519 C.ar      1 UNK         0.0000 
     28 C28         3.7357   54.0856   23.7282 C.ar      1 UNK         0.0000 
     29 F29         4.3977   54.3060   20.1547 F         1 UNK         0.0000 
     30 H30        -5.3854   49.2505   25.8707 H         1 UNK         0.0000 
     31 H31        -3.1435   49.6329   26.8000 H         1 UNK         0.0000 
     32 H32        -3.5566   53.8404   26.0504 H         1 UNK         0.0000 
     33 H33        -6.7341   51.1552   25.0360 H         1 UNK         0.0000 
     34 H34        -2.0170   50.6390   28.5042 H         1 UNK         0.0000 
     35 H35        -0.7613   50.4450   27.2835 H         1 UNK         0.0000 
     36 H36         1.2285   53.5803   26.6106 H         1 UNK         0.0000 
     37 H37         2.1513   52.1919   26.8754 H         1 UNK         0.0000 
     38 H38         4.5882   52.8520   29.7846 H         1 UNK         0.0000 
     39 H39         3.5424   52.2018   28.5691 H         1 UNK         0.0000 
     40 H40         6.7044   54.4487   28.8848 H         1 UNK         0.0000 
     41 H41         7.1005   54.6295   23.7311 H         1 UNK         0.0000 
     42 H42         6.7033   54.6669   21.3165 H         1 UNK         0.0000 
     43 H43         2.5352   53.9439   21.9472 H         1 UNK         0.0000 
     44 H44         2.8935   53.9232   24.3844 H         1 UNK         0.0000 
@<TRIPOS>BOND
     1    1    6 ar   
     2    1    2 ar   
     3    1   30 1    
     4    2    3 ar   
     5    2   31 1    
     6    3    4 ar   
     7    3    8 1    
     8    4    5 ar   
     9    4   32 1    
    10    5    6 ar   
    11    5    7 1    
    12    6   33 1    
    13    8    9 1    
    14    9   10 1    
    15    9   34 1    
    16    9   35 1    
    17   10   14 ar   
    18   10   11 ar   
    19   11   12 ar   
    20   12   13 ar   
    21   13   14 ar   
    22   13   16 1    
    23   14   15 1    
    24   15   36 1    
    25   15   37 1    
    26   16   17 1    
    27   17   18 1    
    28   17   38 1    
    29   17   39 1    
    30   18   22 1    
    31   18   19 2    
    32   19   20 1    
    33   19   40 1    
    34   20   21 1    
    35   21   22 2    
    36   21   23 1    
    37   23   28 ar   
    38   23   24 ar   
    39   24   25 ar   
    40   24   41 1    
    41   25   26 ar   
    42   25   42 1    
    43   26   27 ar   
    44   26   29 1    
    45   27   28 ar   
    46   27   43 1    
    47   28   44 1    
@<TRIPOS>SUBSTRUCTURE
     1 UNK         1 GROUP             0       ****    0 ROOT    
