@<TRIPOS>MOLECULE
ZINC02399267_1964
42   44    1
SMALL
USER_CHARGES


@<TRIPOS>ATOM
      1 C1          4.4448   54.1227   26.8307 C.3       1 UNK         0.0000 
      2 O2          5.5649   54.5438   26.0601 O.3       1 UNK         0.0000 
      3 C3          5.4893   54.4991   24.6818 C.ar      1 UNK         0.0000 
      4 C4          6.6318   54.8953   23.9928 C.ar      1 UNK         0.0000 
      5 C5          6.6615   54.8949   22.6030 C.ar      1 UNK         0.0000 
      6 C6          5.5330   54.4859   21.8794 C.ar      1 UNK         0.0000 
      7 C7          4.3804   54.0829   22.5628 C.ar      1 UNK         0.0000 
      8 C8          4.3570   54.0967   23.9567 C.ar      1 UNK         0.0000 
      9 N9          5.5559   54.4876   20.4660 N.am      1 UNK         0.0000 
     10 C10         5.9218   55.5483   19.7115 C.2       1 UNK         0.0000 
     11 O11         6.3075   56.6614   20.0849 O.2       1 UNK         0.0000 
     12 C12         5.7617   55.0667   18.2607 C.3       1 UNK         0.0000 
     13 N13         5.3741   53.6954   18.3806 N.2       1 UNK         0.0000 
     14 C14         5.3035   53.4512   19.6172 C.2       1 UNK         0.0000 
     15 O15         5.0522   52.1818   20.0817 O.3       1 UNK         0.0000 
     16 C16         7.1425   55.1675   17.5065 C.3       1 UNK         0.0000 
     17 F17         7.0102   54.8321   16.2216 F         1 UNK         0.0000 
     18 F18         7.6871   56.3849   17.5223 F         1 UNK         0.0000 
     19 F19         8.0621   54.3466   18.0252 F         1 UNK         0.0000 
     20 N20         4.6469   55.7564   17.5772 N.am      1 UNK         0.0000 
     21 C21         4.5320   57.0343   17.1636 C.2       1 UNK         0.0000 
     22 O22         5.4172   57.8721   17.3284 O.2       1 UNK         0.0000 
     23 C23         3.2257   57.4064   16.4883 C.ar      1 UNK         0.0000 
     24 C24         3.1017   58.6640   15.8794 C.ar      1 UNK         0.0000 
     25 C25         1.9064   59.0485   15.2786 C.ar      1 UNK         0.0000 
     26 C26         0.8204   58.1799   15.2821 C.ar      1 UNK         0.0000 
     27 C27         0.9214   56.9277   15.8807 C.ar      1 UNK         0.0000 
     28 C28         2.1170   56.5404   16.4813 C.ar      1 UNK         0.0000 
     29 F29        -0.3441   58.5556   14.7065 F         1 UNK         0.0000 
     30 H30         4.6852   54.2092   27.8904 H         1 UNK         0.0000 
     31 H31         3.5701   54.7464   26.6390 H         1 UNK         0.0000 
     32 H32         4.1927   53.0792   26.6353 H         1 UNK         0.0000 
     33 H33         7.5046   55.2126   24.5407 H         1 UNK         0.0000 
     34 H34         7.5635   55.2080   22.0970 H         1 UNK         0.0000 
     35 H35         3.5012   53.7704   22.0169 H         1 UNK         0.0000 
     36 H36         3.4531   53.7863   24.4574 H         1 UNK         0.0000 
     37 H37         5.1039   51.5573   19.3356 H         1 UNK         0.0000 
     38 H38         3.9298   55.1245   17.2616 H         1 UNK         0.0000 
     39 H39         3.9283   59.3635   15.8795 H         1 UNK         0.0000 
     40 H40         1.8227   60.0248   14.8244 H         1 UNK         0.0000 
     41 H41         0.0705   56.2631   15.8844 H         1 UNK         0.0000 
     42 H42         2.1496   55.5686   16.9523 H         1 UNK         0.0000 
@<TRIPOS>BOND
     1    1    2 1    
     2    1   30 1    
     3    1   31 1    
     4    1   32 1    
     5    2    3 1    
     6    3    8 ar   
     7    3    4 ar   
     8    4    5 ar   
     9    4   33 1    
    10    5    6 ar   
    11    5   34 1    
    12    6    7 ar   
    13    6    9 1    
    14    7    8 ar   
    15    7   35 1    
    16    8   36 1    
    17    9   14 am   BACKBONE|DICT|INTERRES
    18    9   10 am   BACKBONE|DICT|INTERRES
    19   10   11 2    
    20   10   12 1    
    21   12   13 1    
    22   12   16 1    
    23   12   20 1    
    24   13   14 2    
    25   14   15 1    
    26   15   37 1    
    27   16   17 1    
    28   16   18 1    
    29   16   19 1    
    30   20   21 am   BACKBONE|DICT|INTERRES
    31   20   38 1    
    32   21   22 2    
    33   21   23 1    
    34   23   28 ar   
    35   23   24 ar   
    36   24   25 ar   
    37   24   39 1    
    38   25   26 ar   
    39   25   40 1    
    40   26   27 ar   
    41   26   29 1    
    42   27   28 ar   
    43   27   41 1    
    44   28   42 1    
@<TRIPOS>SUBSTRUCTURE
     1 UNK         1 GROUP             0       ****    0 ROOT    
