ZINC52308422_1604
                    3D
 Schrodinger Suite 2024-2.
 33 34  0  0  1  0            999 V2000
    0.1359   54.0428   31.2941 C   0  0  0  0  0  0
    1.2739   53.9067   30.3160 C   0  0  0  0  0  0
    1.5656   54.6769   29.1845 C   0  0  0  0  0  0
    2.6885   54.1141   28.6058 C   0  0  0  0  0  0
    3.0414   53.1156   29.4793 N   0  0  0  0  0  0
    2.1697   52.9598   30.4814 N   0  0  0  0  0  0
    4.1521   52.1906   29.3808 C   0  0  0  0  0  0
    3.5039   54.4966   27.0955 S   0  0  0  0  0  0
    2.5294   53.6024   25.8995 C   0  0  0  0  0  0
    2.8691   53.7325   24.5513 C   0  0  0  0  0  0
    2.1406   53.0624   23.5685 C   0  0  0  0  0  0
    1.0573   52.2593   23.9292 C   0  0  0  0  0  0
    0.7002   52.1238   25.2749 C   0  0  0  0  0  0
    1.4408   52.7899   26.2559 C   0  0  0  0  0  0
   -0.7301   51.1457   25.7490 S   0  0  0  0  0  0
   -1.4202   51.9003   26.8004 O   0  0  0  0  0  0
   -1.4278   50.7441   24.5232 O   0  0  0  0  0  0
   -0.0920   49.6970   26.4816 N   0  0  0  0  0  0
    2.4967   53.1987   22.2285 N   0  0  0  0  0  0
   -0.4954   54.8965   31.0542 H   0  0  0  0  0  0
    0.4842   54.1825   32.3173 H   0  0  0  0  0  0
   -0.4958   53.1539   31.2938 H   0  0  0  0  0  0
    0.9984   55.5127   28.8032 H   0  0  0  0  0  0
    4.9585   52.6291   28.7926 H   0  0  0  0  0  0
    4.5309   51.9413   30.3727 H   0  0  0  0  0  0
    3.7882   51.2968   28.8873 H   0  0  0  0  0  0
    3.7059   54.3553   24.2703 H   0  0  0  0  0  0
    0.4907   51.7474   23.1648 H   0  0  0  0  0  0
    1.1409   52.6637   27.2846 H   0  0  0  0  0  0
   -0.6857   49.3217   27.2441 H   0  0  0  0  0  0
    0.0804   48.9528   25.8033 H   0  0  0  0  0  0
    1.8958   52.8098   21.5158 H   0  0  0  0  0  0
    3.1588   53.9160   21.9699 H   0  0  0  0  0  0
  1  2  1  0  0  0
  1 20  1  0  0  0
  1 21  1  0  0  0
  1 22  1  0  0  0
  2  6  2  0  0  0
  2  3  1  0  0  0
  3  4  2  0  0  0
  3 23  1  0  0  0
  4  5  1  0  0  0
  4  8  1  0  0  0
  5  6  1  0  0  0
  5  7  1  0  0  0
  7 24  1  0  0  0
  7 25  1  0  0  0
  7 26  1  0  0  0
  8  9  1  0  0  0
  9 14  2  0  0  0
  9 10  1  0  0  0
 10 11  2  0  0  0
 10 27  1  0  0  0
 11 12  1  0  0  0
 11 19  1  0  0  0
 12 13  2  0  0  0
 12 28  1  0  0  0
 13 14  1  0  0  0
 13 15  1  0  0  0
 14 29  1  0  0  0
 15 16  2  0  0  0
 15 17  2  0  0  0
 15 18  1  0  0  0
 18 30  1  0  0  0
 18 31  1  0  0  0
 19 32  1  0  0  0
 19 33  1  0  0  0
M  END
> <i_i_glide_confnum>
7

> <i_i_glide_lignum>
1605

> <i_i_glide_posenum>
291

> <i_i_glide_rotatable_bonds>
3

> <i_m_Source_File_Index>
3379

> <b_m_subgroup_collapsed>
0

> <r_i_docking_score>
-5.84311

> <r_i_glide_ecoul>
-6.26246

> <r_i_glide_eff_state_penalty>
0

> <r_i_glide_einternal>
1.62184

> <r_i_glide_emodel>
-48.4376

> <r_i_glide_energy>
-35.4485

> <r_i_glide_erotb>
0.412204

> <r_i_glide_esite>
-0.160539

> <r_i_glide_evdw>
-29.186

> <r_i_glide_gscore>
-5.84311

> <r_i_glide_hbond>
-0.314835

> <r_i_glide_ligand_efficiency>
-0.307532

> <r_i_glide_ligand_efficiency_ln>
-1.48135

> <r_i_glide_ligand_efficiency_sa>
-0.820619

> <r_i_glide_lipo>
-2.0008

> <r_i_glide_metal>
0

> <r_i_glide_rewards>
-1.38047

> <s_i_glide_gridfile>
wee1_glide-grid

> <s_m_Source_File>
wee1_decoys_glide_SP.sdf

> <s_m_Source_Path>
/Users/zhangxujun/Desktop

> <s_m_entry_id>
3654

> <s_m_entry_name>
wee1_decoys_glide_SP.3379

> <s_m_subgroup_title>
wee1_decoys_glide_SP

> <s_m_subgroupid>
wee1_decoys_glide_SP


$$$$
