@<TRIPOS>MOLECULE
ZINC22288946_684
46   49    1
SMALL
USER_CHARGES


@<TRIPOS>ATOM
      1 C1          0.7923   51.0569   22.4372 C.ar      1 UNK         0.0000 
      2 C2         -0.0071   50.3911   23.3602 C.ar      1 UNK         0.0000 
      3 C3         -0.6685   49.2211   22.9879 C.ar      1 UNK         0.0000 
      4 C4         -0.5504   48.7315   21.6850 C.ar      1 UNK         0.0000 
      5 C5          0.2517   49.4019   20.7615 C.ar      1 UNK         0.0000 
      6 C6          0.9359   50.5622   21.1359 C.ar      1 UNK         0.0000 
      7 C7          1.8414   51.2539   20.1690 C.2       1 UNK         0.0000 
      8 C8          2.0667   51.1773   18.8029 C.2       1 UNK         0.0000 
      9 C9          3.1046   52.0684   18.5161 C.2       1 UNK         0.0000 
     10 C10         3.5048   52.6574   19.7093 C.2       1 UNK         0.0000 
     11 O11         2.7094   52.1583   20.6879 O.3       1 UNK         0.0000 
     12 C12         4.5962   53.5804   20.0340 C.2       1 UNK         0.0000 
     13 C13         5.0709   54.0709   21.2137 C.2       1 UNK         0.0000 
     14 C14         6.2264   54.8968   21.4455 C.2       1 UNK         0.0000 
     15 N15         6.4112   55.0249   22.6924 N.2       1 UNK         0.0000 
     16 N16         5.4065   54.4305   23.3511 N.am      1 UNK         0.0000 
     17 C17         4.5096   53.8588   22.5264 C.2       1 UNK         0.0000 
     18 O18         3.4697   53.2966   22.8622 O.2       1 UNK         0.0000 
     19 C19         5.3582   54.4894   24.7724 C.ar      1 UNK         0.0000 
     20 C20         6.5445   54.5079   25.5235 C.ar      1 UNK         0.0000 
     21 C21         6.4952   54.5042   26.9171 C.ar      1 UNK         0.0000 
     22 C22         5.2611   54.4967   27.5636 C.ar      1 UNK         0.0000 
     23 C23         4.0788   54.4962   26.8361 C.ar      1 UNK         0.0000 
     24 C24         4.1257   54.4970   25.4497 C.ar      1 UNK         0.0000 
     25 Cl25        5.1744   54.5191   29.2817 Cl        1 UNK         0.0000 
     26 C26         7.1339   55.5327   20.3821 C.3       1 UNK         0.0000 
     27 F27         7.2175   54.7803   19.2855 F         1 UNK         0.0000 
     28 F28         6.6468   56.7283   20.0514 F         1 UNK         0.0000 
     29 F29         8.3653   55.6969   20.8679 F         1 UNK         0.0000 
     30 S30        -1.6476   48.3451   24.2057 S.o2      1 UNK         0.0000 
     31 O31        -2.8745   49.1247   24.3916 O.2       1 UNK         0.0000 
     32 O32        -1.6956   46.9299   23.8195 O.2       1 UNK         0.0000 
     33 N33        -0.7301   48.4562   25.6817 N.pl3     1 UNK         0.0000 
     34 H34         1.3090   51.9535   22.7448 H         1 UNK         0.0000 
     35 H35        -0.0966   50.7755   24.3664 H         1 UNK         0.0000 
     36 H36        -1.0632   47.8263   21.3929 H         1 UNK         0.0000 
     37 H37         0.3567   49.0060   19.7618 H         1 UNK         0.0000 
     38 H38         1.5658   50.5332   18.0954 H         1 UNK         0.0000 
     39 H39         3.5579   52.2212   17.5472 H         1 UNK         0.0000 
     40 H40         5.1086   53.8611   19.1279 H         1 UNK         0.0000 
     41 H41         7.5043   54.4966   25.0272 H         1 UNK         0.0000 
     42 H42         7.4059   54.5064   27.4986 H         1 UNK         0.0000 
     43 H43         3.1256   54.5015   27.3444 H         1 UNK         0.0000 
     44 H44         3.1862   54.5108   24.9181 H         1 UNK         0.0000 
     45 H45        -1.2953   48.5390   26.5464 H         1 UNK         0.0000 
     46 H46        -0.0824   47.6710   25.8166 H         1 UNK         0.0000 
@<TRIPOS>BOND
     1    1    6 ar   
     2    1    2 ar   
     3    1   34 1    
     4    2    3 ar   
     5    2   35 1    
     6    3    4 ar   
     7    3   30 1    
     8    4    5 ar   
     9    4   36 1    
    10    5    6 ar   
    11    5   37 1    
    12    6    7 1    
    13    7   11 1    
    14    7    8 2    
    15    8    9 1    
    16    8   38 1    
    17    9   10 2    
    18    9   39 1    
    19   10   11 1    
    20   10   12 1    
    21   12   13 2    
    22   12   40 1    
    23   13   17 1    
    24   13   14 1    
    25   14   15 2    
    26   14   26 1    
    27   15   16 1    
    28   16   17 am   BACKBONE|DICT|INTERRES
    29   16   19 1    
    30   17   18 2    
    31   19   24 ar   
    32   19   20 ar   
    33   20   21 ar   
    34   20   41 1    
    35   21   22 ar   
    36   21   42 1    
    37   22   23 ar   
    38   22   25 1    
    39   23   24 ar   
    40   23   43 1    
    41   24   44 1    
    42   26   27 1    
    43   26   28 1    
    44   26   29 1    
    45   30   31 2    
    46   30   32 2    
    47   30   33 1    
    48   33   45 1    
    49   33   46 1    
@<TRIPOS>SUBSTRUCTURE
     1 UNK         1 GROUP             0       ****    0 ROOT    
