@<TRIPOS>MOLECULE
ZINC20764095_4880
59   63    1
SMALL
USER_CHARGES


@<TRIPOS>ATOM
      1 C1          1.5359   47.2311   16.7333 C.3       1 UNK         0.0000 
      2 C2          1.0631   47.2233   18.1958 C.3       1 UNK         0.0000 
      3 O3          1.6685   48.2626   18.9625 O.3       1 UNK         0.0000 
      4 C4          1.4000   49.5927   18.6817 C.ar      1 UNK         0.0000 
      5 C5          0.2320   50.0268   18.0361 C.ar      1 UNK         0.0000 
      6 C6          0.0119   51.3832   17.8053 C.ar      1 UNK         0.0000 
      7 C7          0.9486   52.3252   18.2237 C.ar      1 UNK         0.0000 
      8 C8          2.1227   51.9223   18.8697 C.ar      1 UNK         0.0000 
      9 C9          2.3348   50.5533   19.0958 C.ar      1 UNK         0.0000 
     10 O10         3.5044   50.1494   19.6817 O.3       1 UNK         0.0000 
     11 C11         3.1061   52.9887   19.3646 C.3       1 UNK         0.0000 
     12 H12         2.7370   53.9601   19.0315 H         1 UNK         0.0000 
     13 C13         3.3399   52.9778   20.8943 C.3       1 UNK         0.0000 
     14 C14         4.5166   53.8582   21.3648 C.2       1 UNK         0.0000 
     15 N15         5.3961   54.3071   20.5398 N.2       1 UNK         0.0000 
     16 C16         5.3578   54.0740   19.0871 C.3       1 UNK         0.0000 
     17 H17         4.8960   54.9465   18.6177 H         1 UNK         0.0000 
     18 N18         4.4526   52.8967   18.6453 N.4       1 UNK         0.0000 
     19 C19         6.7628   54.0009   18.4561 C.ar      1 UNK         0.0000 
     20 C20         7.7539   54.8970   18.8817 C.ar      1 UNK         0.0000 
     21 C21         9.0302   54.8715   18.3244 C.ar      1 UNK         0.0000 
     22 C22         9.3384   53.9483   17.3205 C.ar      1 UNK         0.0000 
     23 C23         8.3549   53.0586   16.8817 C.ar      1 UNK         0.0000 
     24 C24         7.0798   53.0881   17.4378 C.ar      1 UNK         0.0000 
     25 C25        10.7338   53.8991   16.6982 C.3       1 UNK         0.0000 
     26 F26        11.6483   54.4960   17.4634 F         1 UNK         0.0000 
     27 F27        11.1202   52.6379   16.5002 F         1 UNK         0.0000 
     28 F28        10.7023   54.5237   15.5213 F         1 UNK         0.0000 
     29 C29         4.6528   54.0967   22.8284 C.ar      1 UNK         0.0000 
     30 C30         3.5176   54.0968   23.6781 C.ar      1 UNK         0.0000 
     31 C31         3.6327   54.2839   25.0609 C.ar      1 UNK         0.0000 
     32 C32         4.9034   54.4725   25.5808 C.ar      1 UNK         0.0000 
     33 C33         6.0108   54.4967   24.7835 C.ar      1 UNK         0.0000 
     34 C34         5.9270   54.3173   23.4041 C.ar      1 UNK         0.0000 
     35 O35         7.1044   54.7286   25.5588 O.3       1 UNK         0.0000 
     36 C36         6.6630   54.5554   26.8810 C.3       1 UNK         0.0000 
     37 O37         5.2683   54.6731   26.8735 O.3       1 UNK         0.0000 
     38 H38         1.1412   46.3741   16.1879 H         1 UNK         0.0000 
     39 H39         2.6251   47.1886   16.6817 H         1 UNK         0.0000 
     40 H40         1.2228   48.1326   16.2078 H         1 UNK         0.0000 
     41 H41        -0.0245   47.2567   18.2666 H         1 UNK         0.0000 
     42 H42         1.3571   46.2791   18.6551 H         1 UNK         0.0000 
     43 H43        -0.5181   49.3235   17.7108 H         1 UNK         0.0000 
     44 H44        -0.8906   51.7049   17.3065 H         1 UNK         0.0000 
     45 H45         0.7509   53.3738   18.0497 H         1 UNK         0.0000 
     46 H46         4.1979   50.0967   18.9877 H         1 UNK         0.0000 
     47 H47         2.4083   53.2925   21.3570 H         1 UNK         0.0000 
     48 H48         3.5152   51.9782   21.2866 H         1 UNK         0.0000 
     49 H49         4.8867   51.9894   18.8056 H         1 UNK         0.0000 
     50 H50         7.5386   55.6201   19.6549 H         1 UNK         0.0000 
     51 H51         9.7771   55.5679   18.6807 H         1 UNK         0.0000 
     52 H52         8.5770   52.3396   16.1055 H         1 UNK         0.0000 
     53 H53         6.3572   52.3793   17.0623 H         1 UNK         0.0000 
     54 H54         2.5174   53.9624   23.2995 H         1 UNK         0.0000 
     55 H55         2.7588   54.2752   25.6949 H         1 UNK         0.0000 
     56 H56         6.8235   54.3373   22.8000 H         1 UNK         0.0000 
     57 H57         7.1038   55.2884   27.5583 H         1 UNK         0.0000 
     58 H58         6.9390   53.5567   27.2292 H         1 UNK         0.0000 
     59 H59         4.2895   52.9389   17.6505 H         1 UNK         0.0000 
@<TRIPOS>BOND
     1    1    2 1    
     2    1   38 1    
     3    1   39 1    
     4    1   40 1    
     5    2    3 1    
     6    2   41 1    
     7    2   42 1    
     8    3    4 1    
     9    4    9 ar   
    10    4    5 ar   
    11    5    6 ar   
    12    5   43 1    
    13    6    7 ar   
    14    6   44 1    
    15    7    8 ar   
    16    7   45 1    
    17    8    9 ar   
    18    8   11 1    
    19    9   10 1    
    20   10   46 1    
    21   11   12 1    
    22   11   18 1    
    23   11   13 1    
    24   13   14 1    
    25   13   47 1    
    26   13   48 1    
    27   14   15 2    
    28   14   29 1    
    29   15   16 1    
    30   16   17 1    
    31   16   18 1    
    32   16   19 1    
    33   18   49 1    
    34   18   59 1    
    35   19   24 ar   
    36   19   20 ar   
    37   20   21 ar   
    38   20   50 1    
    39   21   22 ar   
    40   21   51 1    
    41   22   23 ar   
    42   22   25 1    
    43   23   24 ar   
    44   23   52 1    
    45   24   53 1    
    46   25   26 1    
    47   25   27 1    
    48   25   28 1    
    49   29   34 ar   
    50   29   30 ar   
    51   30   31 ar   
    52   30   54 1    
    53   31   32 ar   
    54   31   55 1    
    55   32   37 1    
    56   32   33 ar   
    57   33   34 ar   
    58   33   35 1    
    59   34   56 1    
    60   35   36 1    
    61   36   37 1    
    62   36   57 1    
    63   36   58 1    
@<TRIPOS>SUBSTRUCTURE
     1 UNK         1 GROUP             0       ****    0 ROOT    
