@<TRIPOS>MOLECULE
ZINC35872002_6046
67   71    1
SMALL
USER_CHARGES


@<TRIPOS>ATOM
      1 C1          3.5986   54.2365   29.0929 C.ar      1 UNK         0.0000 
      2 C2          2.7392   55.2966   29.3831 C.ar      1 UNK         0.0000 
      3 C3          1.3616   55.1308   29.2844 C.ar      1 UNK         0.0000 
      4 C4          0.8416   53.9290   28.8116 C.ar      1 UNK         0.0000 
      5 C5          1.6971   52.8902   28.4365 C.ar      1 UNK         0.0000 
      6 C6          3.0784   53.0278   28.6292 C.ar      1 UNK         0.0000 
      7 C7          1.1343   51.6786   27.7004 C.3       1 UNK         0.0000 
      8 N8          0.5455   51.9935   26.3847 N.am      1 UNK         0.0000 
      9 C9          1.1043   52.7726   25.4317 C.2       1 UNK         0.0000 
     10 O10         2.1838   53.3334   25.6106 O.2       1 UNK         0.0000 
     11 C11         0.3496   53.0310   24.0898 C.3       1 UNK         0.0000 
     12 H12         0.1931   54.1089   24.0981 H         1 UNK         0.0000 
     13 C13        -1.0529   52.3854   24.0010 C.3       1 UNK         0.0000 
     14 C14        -0.9117   50.8793   23.8688 C.ar      1 UNK         0.0000 
     15 C15        -1.8283   50.0198   24.4877 C.ar      1 UNK         0.0000 
     16 C16        -1.7022   48.6323   24.3917 C.ar      1 UNK         0.0000 
     17 C17        -0.6232   48.1040   23.6855 C.ar      1 UNK         0.0000 
     18 C18         0.3028   48.9470   23.0749 C.ar      1 UNK         0.0000 
     19 C19         0.1673   50.3371   23.1295 C.ar      1 UNK         0.0000 
     20 N20         1.1395   51.1696   22.5450 N.pl3     1 UNK         0.0000 
     21 C21         1.1675   52.6271   22.8189 C.3       1 UNK         0.0000 
     22 H22         0.6157   53.0586   21.9818 H         1 UNK         0.0000 
     23 C23         2.5897   53.2464   22.7354 C.3       1 UNK         0.0000 
     24 N24         3.3425   52.8618   21.4445 N.4       1 UNK         0.0000 
     25 C25         3.2726   51.3382   21.2129 C.3       1 UNK         0.0000 
     26 C26         1.8101   50.8528   21.2701 C.3       1 UNK         0.0000 
     27 C27         4.8261   53.3518   21.3490 C.3       1 UNK         0.0000 
     28 C28         4.9442   54.1804   20.0524 C.3       1 UNK         0.0000 
     29 C29         6.3013   54.8962   19.8938 C.3       1 UNK         0.0000 
     30 C30         6.7056   55.7013   21.1445 C.3       1 UNK         0.0000 
     31 C31         6.6626   54.8682   22.4411 C.3       1 UNK         0.0000 
     32 C32         5.3222   54.1257   22.6110 C.3       1 UNK         0.0000 
     33 C33        -2.7139   47.6970   25.0558 C.3       1 UNK         0.0000 
     34 F34        -3.3379   48.2808   26.0810 F         1 UNK         0.0000 
     35 F35        -3.6297   47.3549   24.1482 F         1 UNK         0.0000 
     36 F36        -2.1295   46.5791   25.4955 F         1 UNK         0.0000 
     37 F37        -0.4925   53.7816   28.6724 F         1 UNK         0.0000 
     38 H38         4.6682   54.3678   29.1807 H         1 UNK         0.0000 
     39 H39         3.1290   56.2554   29.6815 H         1 UNK         0.0000 
     40 H40         0.7052   55.9470   29.5410 H         1 UNK         0.0000 
     41 H41         3.7539   52.2363   28.3382 H         1 UNK         0.0000 
     42 H42         1.9034   50.9167   27.5728 H         1 UNK         0.0000 
     43 H43         0.3674   51.2081   28.3183 H         1 UNK         0.0000 
     44 H44        -0.2980   51.4926   26.1477 H         1 UNK         0.0000 
     45 H45        -1.6902   52.6767   24.8390 H         1 UNK         0.0000 
     46 H46        -1.5499   52.7287   23.0921 H         1 UNK         0.0000 
     47 H47        -2.6488   50.4410   25.0529 H         1 UNK         0.0000 
     48 H48        -0.4957   47.0351   23.6192 H         1 UNK         0.0000 
     49 H49         1.1520   48.5008   22.5809 H         1 UNK         0.0000 
     50 H50         2.5091   54.3345   22.7161 H         1 UNK         0.0000 
     51 H51         3.2304   52.8969   23.5409 H         1 UNK         0.0000 
     52 H52         3.9052   50.8611   21.9619 H         1 UNK         0.0000 
     53 H53         3.6810   51.1701   20.2123 H         1 UNK         0.0000 
     54 H54         1.7847   49.7881   21.0400 H         1 UNK         0.0000 
     55 H55         1.2416   51.3567   20.4865 H         1 UNK         0.0000 
     56 H56         5.5042   52.5034   21.2354 H         1 UNK         0.0000 
     57 H57         4.7009   53.5702   19.1799 H         1 UNK         0.0000 
     58 H58         4.1640   54.9385   20.0636 H         1 UNK         0.0000 
     59 H59         7.0721   54.1570   19.6741 H         1 UNK         0.0000 
     60 H60         6.2698   55.5541   19.0232 H         1 UNK         0.0000 
     61 H61         7.7094   56.1055   21.0099 H         1 UNK         0.0000 
     62 H62         6.0379   56.5578   21.2432 H         1 UNK         0.0000 
     63 H63         7.4832   54.1524   22.4789 H         1 UNK         0.0000 
     64 H64         6.8304   55.5238   23.2975 H         1 UNK         0.0000 
     65 H65         4.5954   54.8965   22.8536 H         1 UNK         0.0000 
     66 H66         5.3409   53.4811   23.4911 H         1 UNK         0.0000 
     67 H67         2.8271   53.2929   20.6873 H         1 UNK         0.0000 
@<TRIPOS>BOND
     1    1    6 ar   
     2    1    2 ar   
     3    1   38 1    
     4    2    3 ar   
     5    2   39 1    
     6    3    4 ar   
     7    3   40 1    
     8    4    5 ar   
     9    4   37 1    
    10    5    6 ar   
    11    5    7 1    
    12    6   41 1    
    13    7    8 1    
    14    7   42 1    
    15    7   43 1    
    16    8    9 am   BACKBONE|DICT|INTERRES
    17    8   44 1    
    18    9   10 2    
    19    9   11 1    
    20   11   12 1    
    21   11   21 1    
    22   11   13 1    
    23   13   14 1    
    24   13   45 1    
    25   13   46 1    
    26   14   19 ar   
    27   14   15 ar   
    28   15   16 ar   
    29   15   47 1    
    30   16   17 ar   
    31   16   33 1    
    32   17   18 ar   
    33   17   48 1    
    34   18   19 ar   
    35   18   49 1    
    36   19   20 1    
    37   20   26 1    
    38   20   21 1    
    39   21   22 1    
    40   21   23 1    
    41   23   24 1    
    42   23   50 1    
    43   23   51 1    
    44   24   25 1    
    45   24   27 1    
    46   24   67 1    
    47   25   26 1    
    48   25   52 1    
    49   25   53 1    
    50   26   54 1    
    51   26   55 1    
    52   27   32 1    
    53   27   28 1    
    54   27   56 1    
    55   28   29 1    
    56   28   57 1    
    57   28   58 1    
    58   29   30 1    
    59   29   59 1    
    60   29   60 1    
    61   30   31 1    
    62   30   61 1    
    63   30   62 1    
    64   31   32 1    
    65   31   63 1    
    66   31   64 1    
    67   32   65 1    
    68   32   66 1    
    69   33   34 1    
    70   33   35 1    
    71   33   36 1    
@<TRIPOS>SUBSTRUCTURE
     1 UNK         1 GROUP             0       ****    0 ROOT    
