@<TRIPOS>MOLECULE
ZINC24123455_483
53   56    1
SMALL
USER_CHARGES


@<TRIPOS>ATOM
      1 C1          2.7025   54.0952   26.2653 C.ar      1 UNK         0.0000 
      2 C2          3.0552   53.9089   24.9278 C.ar      1 UNK         0.0000 
      3 C3          4.3753   54.1106   24.5235 C.ar      1 UNK         0.0000 
      4 C4          5.3402   54.4956   25.4570 C.ar      1 UNK         0.0000 
      5 C5          4.9868   54.6765   26.7942 C.ar      1 UNK         0.0000 
      6 C6          3.6599   54.4911   27.2021 C.ar      1 UNK         0.0000 
      7 S7          3.1887   54.8495   28.9011 S.o2      1 UNK         0.0000 
      8 O8          2.3047   56.0213   28.8792 O.2       1 UNK         0.0000 
      9 O9          4.4303   54.8861   29.6805 O.2       1 UNK         0.0000 
     10 N10         2.2507   53.4816   29.5080 N.pl3     1 UNK         0.0000 
     11 C11         2.7245   52.1062   29.3719 C.3       1 UNK         0.0000 
     12 C12         1.9132   51.4061   28.2635 C.3       1 UNK         0.0000 
     13 C13         0.3743   51.6637   28.3313 C.3       1 UNK         0.0000 
     14 C14        -0.0952   53.0279   28.9294 C.3       1 UNK         0.0000 
     15 C15         0.8640   53.6136   29.9788 C.3       1 UNK         0.0000 
     16 C16        -0.3214   51.2961   26.9951 C.2       1 UNK         0.0000 
     17 O17        -1.1668   52.0493   26.5013 O.2       1 UNK         0.0000 
     18 N18         0.0052   50.0902   26.4823 N.am      1 UNK         0.0000 
     19 N19        -0.7747   49.5236   25.4873 N.am      1 UNK         0.0000 
     20 C20        -0.2337   49.3871   24.2590 C.2       1 UNK         0.0000 
     21 O21         0.7903   49.9519   23.8624 O.2       1 UNK         0.0000 
     22 C22        -0.9923   48.5343   23.3836 C.ar      1 UNK         0.0000 
     23 C23        -1.9225   47.5313   23.6732 C.ar      1 UNK         0.0000 
     24 C24        -2.3101   46.9046   22.4813 C.ar      1 UNK         0.0000 
     25 C25        -1.6111   47.5362   21.4652 C.ar      1 UNK         0.0000 
     26 N26        -0.8086   48.4978   22.0232 N.pl3     1 UNK         0.0000 
     27 H27        -0.1674   49.0944   21.5178 H         1 UNK         0.0000 
     28 Br28       -3.5325   45.4592   22.2945 Br        1 UNK         0.0000 
     29 C29         6.6654   54.7589   24.7808 C.3       1 UNK         0.0000 
     30 C30         6.4709   54.2339   23.3574 C.3       1 UNK         0.0000 
     31 C31         4.9659   54.0620   23.1321 C.3       1 UNK         0.0000 
     32 H32         1.6737   53.9610   26.5669 H         1 UNK         0.0000 
     33 H33         2.2955   53.6274   24.2128 H         1 UNK         0.0000 
     34 H34         5.7295   54.9992   27.5108 H         1 UNK         0.0000 
     35 H35         2.6118   51.6193   30.3385 H         1 UNK         0.0000 
     36 H36         3.7881   52.1149   29.1270 H         1 UNK         0.0000 
     37 H37         2.1618   50.3493   28.3084 H         1 UNK         0.0000 
     38 H38         2.3104   51.8194   27.3408 H         1 UNK         0.0000 
     39 H39         0.0580   50.8970   29.0407 H         1 UNK         0.0000 
     40 H40        -0.1363   53.7928   28.1519 H         1 UNK         0.0000 
     41 H41        -1.0610   52.8975   29.4135 H         1 UNK         0.0000 
     42 H42         0.7710   53.0929   30.9335 H         1 UNK         0.0000 
     43 H43         0.6415   54.6644   30.1660 H         1 UNK         0.0000 
     44 H44         0.5308   49.3992   26.9991 H         1 UNK         0.0000 
     45 H45        -1.4775   48.9012   25.8614 H         1 UNK         0.0000 
     46 H46        -2.2762   47.2620   24.6588 H         1 UNK         0.0000 
     47 H47        -1.6001   47.3684   20.3986 H         1 UNK         0.0000 
     48 H48         6.8834   55.8276   24.7526 H         1 UNK         0.0000 
     49 H49         7.4976   54.2551   25.2690 H         1 UNK         0.0000 
     50 H50         6.9642   53.2651   23.2664 H         1 UNK         0.0000 
     51 H51         6.9301   54.8836   22.6108 H         1 UNK         0.0000 
     52 H52         4.7566   53.1272   22.6112 H         1 UNK         0.0000 
     53 H53         4.5857   54.8803   22.5193 H         1 UNK         0.0000 
@<TRIPOS>BOND
     1    1    6 ar   
     2    1    2 ar   
     3    1   32 1    
     4    2    3 ar   
     5    2   33 1    
     6    3   31 1    
     7    3    4 ar   
     8    4    5 ar   
     9    4   29 1    
    10    5    6 ar   
    11    5   34 1    
    12    6    7 1    
    13    7    8 2    
    14    7    9 2    
    15    7   10 1    
    16   10   15 1    
    17   10   11 1    
    18   11   12 1    
    19   11   35 1    
    20   11   36 1    
    21   12   13 1    
    22   12   37 1    
    23   12   38 1    
    24   13   14 1    
    25   13   16 1    
    26   13   39 1    
    27   14   15 1    
    28   14   40 1    
    29   14   41 1    
    30   15   42 1    
    31   15   43 1    
    32   16   17 2    
    33   16   18 am   BACKBONE|DICT|INTERRES
    34   18   19 1    
    35   18   44 1    
    36   19   20 am   BACKBONE|DICT|INTERRES
    37   19   45 1    
    38   20   21 2    
    39   20   22 1    
    40   22   26 ar   
    41   22   23 ar   
    42   23   24 ar   
    43   23   46 1    
    44   24   25 ar   
    45   24   28 1    
    46   25   26 ar   
    47   25   47 1    
    48   26   27 1    
    49   29   30 1    
    50   29   48 1    
    51   29   49 1    
    52   30   31 1    
    53   30   50 1    
    54   30   51 1    
    55   31   52 1    
    56   31   53 1    
@<TRIPOS>SUBSTRUCTURE
     1 UNK         1 GROUP             0       ****    0 ROOT    
