@<TRIPOS>MOLECULE
ZINC36311730_5247
80   83    1
SMALL
USER_CHARGES


@<TRIPOS>ATOM
      1 C1          0.2788   52.0857   10.8687 C.3       1 UNK         0.0000 
      2 C2         -0.7026   51.8662   12.0363 C.3       1 UNK         0.0000 
      3 C3         -1.5988   50.6354   11.8014 C.3       1 UNK         0.0000 
      4 C4          0.0156   51.7982   13.3864 C.ar      1 UNK         0.0000 
      5 C5         -0.2594   52.7503   14.3721 C.ar      1 UNK         0.0000 
      6 C6          0.3886   52.6943   15.6040 C.ar      1 UNK         0.0000 
      7 C7          1.3157   51.6745   15.8619 C.ar      1 UNK         0.0000 
      8 C8          1.5972   50.7313   14.8728 C.ar      1 UNK         0.0000 
      9 C9          0.9494   50.7903   13.6421 C.ar      1 UNK         0.0000 
     10 N10         2.0202   51.5207   17.0686 N.am      1 UNK         0.0000 
     11 C11         1.8110   52.0999   18.2718 C.2       1 UNK         0.0000 
     12 O12         0.9060   52.8965   18.5242 O.2       1 UNK         0.0000 
     13 C13         2.7774   51.6395   19.3863 C.3       1 UNK         0.0000 
     14 H14         3.7175   51.4261   18.8844 H         1 UNK         0.0000 
     15 C15         2.3468   50.3477   20.1533 C.3       1 UNK         0.0000 
     16 C16         0.8878   50.2481   20.6658 C.3       1 UNK         0.0000 
     17 C17         0.5776   48.7541   20.8129 C.3       1 UNK         0.0000 
     18 C18         1.7310   48.0056   20.1290 C.3       1 UNK         0.0000 
     19 C19         2.4740   49.0622   19.3189 C.3       1 UNK         0.0000 
     20 N20         3.1473   52.8317   20.3358 N.4       1 UNK         0.0000 
     21 C21         4.6482   52.7564   20.7258 C.3       1 UNK         0.0000 
     22 C22         5.0557   53.9789   21.5785 C.3       1 UNK         0.0000 
     23 N23         4.1757   54.0359   22.7646 N.am      1 UNK         0.0000 
     24 C24         2.7621   54.2414   22.4039 C.3       1 UNK         0.0000 
     25 C25         2.2945   52.9909   21.6213 C.3       1 UNK         0.0000 
     26 C26         4.7178   54.0967   24.0197 C.2       1 UNK         0.0000 
     27 O27         5.9384   54.2062   24.1717 O.2       1 UNK         0.0000 
     28 C28         3.8593   54.0290   25.2769 C.ar      1 UNK         0.0000 
     29 C29         2.6353   53.3459   25.3394 C.ar      1 UNK         0.0000 
     30 C30         1.9054   53.2866   26.5250 C.ar      1 UNK         0.0000 
     31 C31         2.3915   53.8757   27.7009 C.ar      1 UNK         0.0000 
     32 C32         3.6444   54.4968   27.6542 C.ar      1 UNK         0.0000 
     33 C33         4.3609   54.5785   26.4652 C.ar      1 UNK         0.0000 
     34 C34         1.6093   53.8321   29.0389 C.3       1 UNK         0.0000 
     35 C35         2.3294   52.8786   30.0209 C.3       1 UNK         0.0000 
     36 C36         0.1490   53.3320   28.8763 C.3       1 UNK         0.0000 
     37 C37         1.5317   55.2501   29.6655 C.3       1 UNK         0.0000 
     38 H38         0.8969   52.9696   11.0345 H         1 UNK         0.0000 
     39 H39         0.9474   51.2339   10.7359 H         1 UNK         0.0000 
     40 H40        -0.2547   52.2328    9.9279 H         1 UNK         0.0000 
     41 H41        -1.3644   52.7345   12.0517 H         1 UNK         0.0000 
     42 H42        -2.3020   50.4974   12.6241 H         1 UNK         0.0000 
     43 H43        -2.1860   50.7410   10.8878 H         1 UNK         0.0000 
     44 H44        -1.0135   49.7196   11.7111 H         1 UNK         0.0000 
     45 H45        -0.9720   53.5404   14.1878 H         1 UNK         0.0000 
     46 H46         0.1610   53.4564   16.3324 H         1 UNK         0.0000 
     47 H47         2.3155   49.9428   15.0542 H         1 UNK         0.0000 
     48 H48         1.1761   50.0490   12.8895 H         1 UNK         0.0000 
     49 H49         2.7682   50.8348   17.0215 H         1 UNK         0.0000 
     50 H50         3.0066   50.1948   21.0098 H         1 UNK         0.0000 
     51 H51         0.6881   50.8108   21.5767 H         1 UNK         0.0000 
     52 H52         0.1964   50.6354   19.9159 H         1 UNK         0.0000 
     53 H53         0.5054   48.4974   21.8705 H         1 UNK         0.0000 
     54 H54        -0.3808   48.5068   20.3524 H         1 UNK         0.0000 
     55 H55         2.4133   47.6079   20.8806 H         1 UNK         0.0000 
     56 H56         1.3908   47.1725   19.5121 H         1 UNK         0.0000 
     57 H57         1.9668   49.1749   18.3592 H         1 UNK         0.0000 
     58 H58         3.5044   48.8110   19.0667 H         1 UNK         0.0000 
     59 H59         4.8416   51.8031   21.2218 H         1 UNK         0.0000 
     60 H60         5.2075   52.7858   19.7871 H         1 UNK         0.0000 
     61 H61         4.9495   54.8951   20.9961 H         1 UNK         0.0000 
     62 H62         6.1135   53.9266   21.8396 H         1 UNK         0.0000 
     63 H63         2.1121   54.5108   23.2341 H         1 UNK         0.0000 
     64 H64         2.7049   55.1169   21.7583 H         1 UNK         0.0000 
     65 H65         2.3779   52.0842   22.2200 H         1 UNK         0.0000 
     66 H66         1.2666   53.1295   21.2820 H         1 UNK         0.0000 
     67 H67         2.2409   52.8142   24.4884 H         1 UNK         0.0000 
     68 H68         0.9676   52.7538   26.5100 H         1 UNK         0.0000 
     69 H69         4.0772   54.9319   28.5423 H         1 UNK         0.0000 
     70 H70         5.3202   55.0762   26.4814 H         1 UNK         0.0000 
     71 H71         1.8093   52.8179   30.9789 H         1 UNK         0.0000 
     72 H72         3.3511   53.1988   30.2270 H         1 UNK         0.0000 
     73 H73         2.3834   51.8661   29.6184 H         1 UNK         0.0000 
     74 H74        -0.4097   53.9408   28.1653 H         1 UNK         0.0000 
     75 H75         0.1064   52.2960   28.5366 H         1 UNK         0.0000 
     76 H76        -0.3958   53.3674   29.8220 H         1 UNK         0.0000 
     77 H77         1.1052   55.9706   28.9681 H         1 UNK         0.0000 
     78 H78         0.9130   55.2644   30.5640 H         1 UNK         0.0000 
     79 H79         2.5078   55.6295   29.9628 H         1 UNK         0.0000 
     80 H80         3.0131   53.6774   19.7928 H         1 UNK         0.0000 
@<TRIPOS>BOND
     1    1    2 1    
     2    1   38 1    
     3    1   39 1    
     4    1   40 1    
     5    2    3 1    
     6    2    4 1    
     7    2   41 1    
     8    3   42 1    
     9    3   43 1    
    10    3   44 1    
    11    4    9 ar   
    12    4    5 ar   
    13    5    6 ar   
    14    5   45 1    
    15    6    7 ar   
    16    6   46 1    
    17    7    8 ar   
    18    7   10 1    
    19    8    9 ar   
    20    8   47 1    
    21    9   48 1    
    22   10   11 am   BACKBONE|DICT|INTERRES
    23   10   49 1    
    24   11   12 2    
    25   11   13 1    
    26   13   14 1    
    27   13   15 1    
    28   13   20 1    
    29   15   19 1    
    30   15   16 1    
    31   15   50 1    
    32   16   17 1    
    33   16   51 1    
    34   16   52 1    
    35   17   18 1    
    36   17   53 1    
    37   17   54 1    
    38   18   19 1    
    39   18   55 1    
    40   18   56 1    
    41   19   57 1    
    42   19   58 1    
    43   20   25 1    
    44   20   21 1    
    45   20   80 1    
    46   21   22 1    
    47   21   59 1    
    48   21   60 1    
    49   22   23 1    
    50   22   61 1    
    51   22   62 1    
    52   23   24 1    
    53   23   26 am   BACKBONE|DICT|INTERRES
    54   24   25 1    
    55   24   63 1    
    56   24   64 1    
    57   25   65 1    
    58   25   66 1    
    59   26   27 2    
    60   26   28 1    
    61   28   33 ar   
    62   28   29 ar   
    63   29   30 ar   
    64   29   67 1    
    65   30   31 ar   
    66   30   68 1    
    67   31   32 ar   
    68   31   34 1    
    69   32   33 ar   
    70   32   69 1    
    71   33   70 1    
    72   34   35 1    
    73   34   36 1    
    74   34   37 1    
    75   35   71 1    
    76   35   72 1    
    77   35   73 1    
    78   36   74 1    
    79   36   75 1    
    80   36   76 1    
    81   37   77 1    
    82   37   78 1    
    83   37   79 1    
@<TRIPOS>SUBSTRUCTURE
     1 UNK         1 GROUP             0       ****    0 ROOT    
