@<TRIPOS>MOLECULE
ZINC14543948_5206
61   66    1
SMALL
USER_CHARGES


@<TRIPOS>ATOM
      1 C1          1.0060   48.1486   19.5377 C.3       1 UNK         0.0000 
      2 O2          0.6753   48.9799   20.6447 O.3       1 UNK         0.0000 
      3 C3          1.4921   50.0464   20.9795 C.ar      1 UNK         0.0000 
      4 C4          2.6084   50.3982   20.2089 C.ar      1 UNK         0.0000 
      5 C5          3.4144   51.4689   20.5487 C.ar      1 UNK         0.0000 
      6 C6          3.1255   52.2496   21.6851 C.ar      1 UNK         0.0000 
      7 C7          3.9684   53.3312   22.0372 C.ar      1 UNK         0.0000 
      8 C8          3.6992   54.0961   23.1633 C.ar      1 UNK         0.0000 
      9 C9          2.5835   53.8303   23.9435 C.ar      1 UNK         0.0000 
     10 C10         1.7340   52.7767   23.6232 C.ar      1 UNK         0.0000 
     11 C11         1.9835   51.9324   22.4943 C.ar      1 UNK         0.0000 
     12 C12         1.1701   50.7967   22.1312 C.ar      1 UNK         0.0000 
     13 C13        -0.0594   50.4075   22.9895 C.3       1 UNK         0.0000 
     14 H14         0.0036   50.9087   23.9503 H         1 UNK         0.0000 
     15 C15        -1.4131   50.8074   22.3220 C.3       1 UNK         0.0000 
     16 H16        -1.4556   50.3225   21.3448 H         1 UNK         0.0000 
     17 C17        -1.5816   52.3248   22.1480 C.3       1 UNK         0.0000 
     18 C18        -2.4161   52.7220   23.3481 C.2       1 UNK         0.0000 
     19 C19        -2.9844   51.6481   23.9166 C.2       1 UNK         0.0000 
     20 C20        -2.6541   50.3925   23.1358 C.3       1 UNK         0.0000 
     21 H21        -3.4807   50.1706   22.4589 H         1 UNK         0.0000 
     22 C22        -2.4502   49.1459   23.9913 C.ar      1 UNK         0.0000 
     23 C23        -3.5143   48.5934   24.7195 C.ar      1 UNK         0.0000 
     24 C24        -3.3362   47.4553   25.5107 C.ar      1 UNK         0.0000 
     25 C25        -2.0811   46.8634   25.5944 C.ar      1 UNK         0.0000 
     26 C26        -1.0248   47.3789   24.8540 C.ar      1 UNK         0.0000 
     27 C27        -1.2044   48.4944   24.0422 C.ar      1 UNK         0.0000 
     28 N28        -0.0763   48.9993   23.3777 N.pl3     1 UNK         0.0000 
     29 S29        -4.6937   46.7396   26.4238 S.o2      1 UNK         0.0000 
     30 O30        -5.9530   47.1642   25.8013 O.2       1 UNK         0.0000 
     31 O31        -4.3879   45.3116   26.5674 O.2       1 UNK         0.0000 
     32 N32        -4.5941   47.4404   28.0529 N.pl3     1 UNK         0.0000 
     33 C33        -4.9613   48.7462   28.4224 C.ar      1 UNK         0.0000 
     34 C34        -5.6406   49.6357   27.5808 C.ar      1 UNK         0.0000 
     35 C35        -5.9796   50.9088   28.0342 C.ar      1 UNK         0.0000 
     36 C36        -5.6400   51.2966   29.3262 C.ar      1 UNK         0.0000 
     37 C37        -4.9540   50.4279   30.1689 C.ar      1 UNK         0.0000 
     38 C38        -4.6181   49.1564   29.7136 C.ar      1 UNK         0.0000 
     39 H39         0.2740   47.3449   19.4607 H         1 UNK         0.0000 
     40 H40         0.9849   48.7062   18.6006 H         1 UNK         0.0000 
     41 H41         1.9880   47.6890   19.6600 H         1 UNK         0.0000 
     42 H42         2.8781   49.8439   19.3211 H         1 UNK         0.0000 
     43 H43         4.2711   51.7069   19.9312 H         1 UNK         0.0000 
     44 H44         4.8338   53.5536   21.4289 H         1 UNK         0.0000 
     45 H45         4.3667   54.8966   23.4371 H         1 UNK         0.0000 
     46 H46         2.3784   54.4432   24.8093 H         1 UNK         0.0000 
     47 H47         0.8843   52.6284   24.2681 H         1 UNK         0.0000 
     48 H48        -0.6367   52.8676   22.1268 H         1 UNK         0.0000 
     49 H49        -2.0944   52.5477   21.2128 H         1 UNK         0.0000 
     50 H50        -2.5196   53.7484   23.6705 H         1 UNK         0.0000 
     51 H51        -3.6559   51.6476   24.7636 H         1 UNK         0.0000 
     52 H52        -4.4871   49.0585   24.6680 H         1 UNK         0.0000 
     53 H53        -1.9119   46.0090   26.2363 H         1 UNK         0.0000 
     54 H54        -0.0556   46.9035   24.8836 H         1 UNK         0.0000 
     55 H55         0.8388   48.6217   23.5880 H         1 UNK         0.0000 
     56 H56        -3.9891   46.9506   28.6965 H         1 UNK         0.0000 
     57 H57        -5.9212   49.3729   26.5758 H         1 UNK         0.0000 
     58 H58        -6.5075   51.5901   27.3823 H         1 UNK         0.0000 
     59 H59        -5.9094   52.2820   29.6743 H         1 UNK         0.0000 
     60 H60        -4.6743   50.7296   31.1687 H         1 UNK         0.0000 
     61 H61        -4.0837   48.4903   30.3735 H         1 UNK         0.0000 
@<TRIPOS>BOND
     1    1    2 1    
     2    1   39 1    
     3    1   40 1    
     4    1   41 1    
     5    2    3 1    
     6    3   12 ar   
     7    3    4 ar   
     8    4    5 ar   
     9    4   42 1    
    10    5    6 ar   
    11    5   43 1    
    12    6   11 ar   
    13    6    7 ar   
    14    7    8 ar   
    15    7   44 1    
    16    8    9 ar   
    17    8   45 1    
    18    9   10 ar   
    19    9   46 1    
    20   10   11 ar   
    21   10   47 1    
    22   11   12 ar   
    23   12   13 1    
    24   13   14 1    
    25   13   28 1    
    26   13   15 1    
    27   15   16 1    
    28   15   20 1    
    29   15   17 1    
    30   17   18 1    
    31   17   48 1    
    32   17   49 1    
    33   18   19 2    
    34   18   50 1    
    35   19   20 1    
    36   19   51 1    
    37   20   21 1    
    38   20   22 1    
    39   22   27 ar   
    40   22   23 ar   
    41   23   24 ar   
    42   23   52 1    
    43   24   25 ar   
    44   24   29 1    
    45   25   26 ar   
    46   25   53 1    
    47   26   27 ar   
    48   26   54 1    
    49   27   28 1    
    50   28   55 1    
    51   29   30 2    
    52   29   31 2    
    53   29   32 1    
    54   32   33 1    
    55   32   56 1    
    56   33   38 ar   
    57   33   34 ar   
    58   34   35 ar   
    59   34   57 1    
    60   35   36 ar   
    61   35   58 1    
    62   36   37 ar   
    63   36   59 1    
    64   37   38 ar   
    65   37   60 1    
    66   38   61 1    
@<TRIPOS>SUBSTRUCTURE
     1 UNK         1 GROUP             0       ****    0 ROOT    
