@<TRIPOS>MOLECULE
ZINC63384343_3089
69   73    1
SMALL
USER_CHARGES


@<TRIPOS>ATOM
      1 C1          4.5165   53.4347   16.7410 C.3       1 UNK         0.0000 
      2 C2          4.9263   54.3053   17.9435 C.3       1 UNK         0.0000 
      3 C3          4.9621   53.5420   19.2852 C.3       1 UNK         0.0000 
      4 H4          5.6698   52.7177   19.1515 H         1 UNK         0.0000 
      5 C5          5.4900   54.4304   20.4290 C.3       1 UNK         0.0000 
      6 N6          3.6501   52.9794   19.6028 N.am      1 UNK         0.0000 
      7 C7          3.4589   51.8837   20.3540 C.2       1 UNK         0.0000 
      8 O8          4.3626   51.2967   20.9459 O.2       1 UNK         0.0000 
      9 C9          2.0171   51.3567   20.4761 C.3       1 UNK         0.0000 
     10 H10         2.0990   50.3152   20.7935 H         1 UNK         0.0000 
     11 C11         1.2087   51.3573   19.1566 C.3       1 UNK         0.0000 
     12 C12         1.6229   50.2237   18.2058 C.3       1 UNK         0.0000 
     13 S13         1.0977   48.5755   18.7642 S.3       1 UNK         0.0000 
     14 C14         2.2928   47.5441   17.8769 C.3       1 UNK         0.0000 
     15 N15         1.2875   52.0960   21.5048 N.am      1 UNK         0.0000 
     16 C16         1.2896   51.7339   22.7972 C.2       1 UNK         0.0000 
     17 O17         1.9044   50.7525   23.2177 O.2       1 UNK         0.0000 
     18 C18         0.4707   52.5926   23.7820 C.3       1 UNK         0.0000 
     19 H19         0.2982   53.5391   23.2680 H         1 UNK         0.0000 
     20 C20         1.2977   52.8780   25.0857 C.3       1 UNK         0.0000 
     21 C21         0.7470   52.1314   26.2884 C.2       1 UNK         0.0000 
     22 C22         0.5620   52.5069   27.5591 C.2       1 UNK         0.0000 
     23 C23         0.9529   53.7252   28.2844 C.2       1 UNK         0.0000 
     24 C24         0.6484   53.8736   29.5892 C.2       1 UNK         0.0000 
     25 C25        -0.0957   52.8057   30.2414 C.2       1 UNK         0.0000 
     26 C26        -0.4943   51.6966   29.5660 C.2       1 UNK         0.0000 
     27 C27        -0.1592   51.5132   28.2160 C.2       1 UNK         0.0000 
     28 N28        -0.4168   50.5008   27.4006 N.pl3     1 UNK         0.0000 
     29 C29         0.1485   50.7493   26.0608 C.3       1 UNK         0.0000 
     30 H30         0.9175   49.9883   25.9261 H         1 UNK         0.0000 
     31 C31        -0.8234   50.6749   24.8353 C.3       1 UNK         0.0000 
     32 H32        -0.4646   49.8996   24.1554 H         1 UNK         0.0000 
     33 N33        -0.8349   51.9621   24.1145 N.am      1 UNK         0.0000 
     34 C34        -2.0440   52.5667   24.0862 C.2       1 UNK         0.0000 
     35 O35        -2.3020   53.6955   23.6817 O.2       1 UNK         0.0000 
     36 C36        -2.9899   51.5678   24.6696 C.ar      1 UNK         0.0000 
     37 C37        -2.2862   50.4596   25.1029 C.ar      1 UNK         0.0000 
     38 C38        -2.9641   49.3844   25.6819 C.ar      1 UNK         0.0000 
     39 C39        -4.3503   49.4499   25.8421 C.ar      1 UNK         0.0000 
     40 C40        -5.0542   50.5810   25.4161 C.ar      1 UNK         0.0000 
     41 C41        -4.3751   51.6504   24.8261 C.ar      1 UNK         0.0000 
     42 H42         4.5669   54.0021   15.8112 H         1 UNK         0.0000 
     43 H43         5.1742   52.5698   16.6372 H         1 UNK         0.0000 
     44 H44         3.4978   53.0599   16.8433 H         1 UNK         0.0000 
     45 H45         5.9124   54.7276   17.7431 H         1 UNK         0.0000 
     46 H46         4.2452   55.1547   18.0188 H         1 UNK         0.0000 
     47 H47         6.4758   54.8272   20.1858 H         1 UNK         0.0000 
     48 H48         4.8450   55.2926   20.5999 H         1 UNK         0.0000 
     49 H49         5.5859   53.8727   21.3614 H         1 UNK         0.0000 
     50 H50         2.8549   53.4234   19.1698 H         1 UNK         0.0000 
     51 H51         0.1516   51.2223   19.3870 H         1 UNK         0.0000 
     52 H52         1.2732   52.3175   18.6436 H         1 UNK         0.0000 
     53 H53         1.2091   50.3937   17.2122 H         1 UNK         0.0000 
     54 H54         2.7048   50.2225   18.0819 H         1 UNK         0.0000 
     55 H55         2.3030   47.7873   16.8130 H         1 UNK         0.0000 
     56 H56         3.2963   47.6970   18.2745 H         1 UNK         0.0000 
     57 H57         2.0323   46.4949   17.9907 H         1 UNK         0.0000 
     58 H58         0.8117   52.9339   21.2018 H         1 UNK         0.0000 
     59 H59         2.3589   52.6493   24.9659 H         1 UNK         0.0000 
     60 H60         1.2719   53.9504   25.2799 H         1 UNK         0.0000 
     61 H61         1.4985   54.5207   27.7959 H         1 UNK         0.0000 
     62 H62         0.9301   54.7656   30.1311 H         1 UNK         0.0000 
     63 H63        -0.3661   52.8979   31.2860 H         1 UNK         0.0000 
     64 H64        -1.0603   50.9445   30.1018 H         1 UNK         0.0000 
     65 H65        -2.4296   48.5129   26.0340 H         1 UNK         0.0000 
     66 H66        -4.8742   48.6271   26.3054 H         1 UNK         0.0000 
     67 H67        -6.1259   50.6284   25.5448 H         1 UNK         0.0000 
     68 H68        -4.9278   52.5190   24.4971 H         1 UNK         0.0000 
     69 H69        -0.8964   49.6276   27.6790 H         1 UNK         0.0000 
@<TRIPOS>BOND
     1    1    2 1    
     2    1   42 1    
     3    1   43 1    
     4    1   44 1    
     5    2    3 1    
     6    2   45 1    
     7    2   46 1    
     8    3    4 1    
     9    3    5 1    
    10    3    6 1    
    11    5   47 1    
    12    5   48 1    
    13    5   49 1    
    14    6    7 am   BACKBONE|DICT|INTERRES
    15    6   50 1    
    16    7    8 2    
    17    7    9 1    
    18    9   10 1    
    19    9   11 1    
    20    9   15 1    
    21   11   12 1    
    22   11   51 1    
    23   11   52 1    
    24   12   13 1    
    25   12   53 1    
    26   12   54 1    
    27   13   14 1    
    28   14   55 1    
    29   14   56 1    
    30   14   57 1    
    31   15   16 am   BACKBONE|DICT|INTERRES
    32   15   58 1    
    33   16   17 2    
    34   16   18 1    
    35   18   19 1    
    36   18   33 1    
    37   18   20 1    
    38   20   21 1    
    39   20   59 1    
    40   20   60 1    
    41   21   29 1    
    42   21   22 2    
    43   22   27 1    
    44   22   23 1    
    45   23   24 2    
    46   23   61 1    
    47   24   25 1    
    48   24   62 1    
    49   25   26 2    
    50   25   63 1    
    51   26   27 1    
    52   26   64 1    
    53   27   28 2    
    54   28   29 1    
    55   28   69 1    
    56   29   30 1    
    57   29   31 1    
    58   31   32 1    
    59   31   37 1    
    60   31   33 1    
    61   33   34 am   BACKBONE|DICT|INTERRES
    62   34   35 2    
    63   34   36 1    
    64   36   41 ar   
    65   36   37 ar   
    66   37   38 ar   
    67   38   39 ar   
    68   38   65 1    
    69   39   40 ar   
    70   39   66 1    
    71   40   41 ar   
    72   40   67 1    
    73   41   68 1    
@<TRIPOS>SUBSTRUCTURE
     1 UNK         1 GROUP             0       ****    0 ROOT    
