@<TRIPOS>MOLECULE
ZINC61886227_4760
32   33    1
SMALL
USER_CHARGES


@<TRIPOS>ATOM
      1 C1          6.4437   54.4777   26.3474 C.2       1 UNK         0.0000 
      2 C2          6.5897   54.6113   24.9664 C.2       1 UNK         0.0000 
      3 C3          5.3272   54.4946   24.4156 C.2       1 UNK         0.0000 
      4 O4          4.4139   54.3104   25.4016 O.3       1 UNK         0.0000 
      5 C5          5.0913   54.2900   26.5851 C.2       1 UNK         0.0000 
      6 C6          4.3871   54.0711   27.8154 C.2       1 UNK         0.0000 
      7 O7          4.9794   53.9182   28.8825 O.2       1 UNK         0.0000 
      8 N8          3.0515   54.0595   27.6980 N.am      1 UNK         0.0000 
      9 C9          2.1162   53.8693   28.8055 C.3       1 UNK         0.0000 
     10 H10         2.3910   54.5861   29.5862 H         1 UNK         0.0000 
     11 C11         0.7054   54.1931   28.3340 C.3       1 UNK         0.0000 
     12 C12         0.1654   52.8969   27.7044 C.3       1 UNK         0.0000 
     13 C13         0.9819   51.7560   28.3237 C.3       1 UNK         0.0000 
     14 C14         2.0132   52.4048   29.2837 C.3       1 UNK         0.0000 
     15 H15         2.9510   51.8923   29.0656 H         1 UNK         0.0000 
     16 C16         1.6748   52.3224   30.7924 C.2       1 UNK         0.0000 
     17 N17         2.5569   52.0967   31.6817 N.2       1 UNK         0.0000 
     18 O18         3.9044   52.0966   31.2600 O.3       1 UNK         0.0000 
     19 N19         0.3402   52.4967   31.0785 N.pl3     1 UNK         0.0000 
     20 Br20        4.7137   54.4956   22.6141 Br        1 UNK         0.0000 
     21 H21         7.2190   54.4970   27.0987 H         1 UNK         0.0000 
     22 H22         7.5043   54.7529   24.4191 H         1 UNK         0.0000 
     23 H23         2.6567   54.1063   26.7697 H         1 UNK         0.0000 
     24 H24         0.0904   54.4724   29.1906 H         1 UNK         0.0000 
     25 H25         0.7023   55.0654   27.6817 H         1 UNK         0.0000 
     26 H26        -0.9020   52.7763   27.8872 H         1 UNK         0.0000 
     27 H27         0.3052   52.8998   26.6221 H         1 UNK         0.0000 
     28 H28         1.5034   51.2162   27.5307 H         1 UNK         0.0000 
     29 H29         0.3494   51.0089   28.8080 H         1 UNK         0.0000 
     30 H30         3.8671   52.4173   30.3526 H         1 UNK         0.0000 
     31 H31         0.0025   52.3672   32.0276 H         1 UNK         0.0000 
     32 H32        -0.3367   52.4044   30.3372 H         1 UNK         0.0000 
@<TRIPOS>BOND
     1    1    5 2    
     2    1    2 1    
     3    1   21 1    
     4    2    3 2    
     5    2   22 1    
     6    3    4 1    
     7    3   20 1    
     8    4    5 1    
     9    5    6 1    
    10    6    7 2    
    11    6    8 am   BACKBONE|DICT|INTERRES
    12    8    9 1    
    13    8   23 1    
    14    9   10 1    
    15    9   14 1    
    16    9   11 1    
    17   11   12 1    
    18   11   24 1    
    19   11   25 1    
    20   12   13 1    
    21   12   26 1    
    22   12   27 1    
    23   13   14 1    
    24   13   28 1    
    25   13   29 1    
    26   14   15 1    
    27   14   16 1    
    28   16   17 2    
    29   16   19 1    
    30   17   18 1    
    31   18   30 1    
    32   19   31 1    
    33   19   32 1    
@<TRIPOS>SUBSTRUCTURE
     1 UNK         1 GROUP             0       ****    0 ROOT    
