@<TRIPOS>MOLECULE
ZINC49413776_3839
37   38    1
SMALL
USER_CHARGES


@<TRIPOS>ATOM
      1 C1          4.6991   52.3776   29.5492 C.3       1 UNK         0.0000 
      2 C2          3.2063   52.4936   29.4600 C.2       1 UNK         0.0000 
      3 C3          2.2057   51.7387   28.8821 C.2       1 UNK         0.0000 
      4 C4          0.9845   52.3867   29.1004 C.2       1 UNK         0.0000 
      5 C5          1.3189   53.5040   29.8674 C.2       1 UNK         0.0000 
      6 O6          2.6549   53.5601   30.0800 O.3       1 UNK         0.0000 
      7 C7          0.5235   54.6254   30.4813 C.3       1 UNK         0.0000 
      8 C8         -0.3990   51.9823   28.6042 C.3       1 UNK         0.0000 
      9 H9         -0.8947   52.8702   28.2084 H         1 UNK         0.0000 
     10 C10        -1.2686   51.4644   29.7587 C.3       1 UNK         0.0000 
     11 N11        -0.3705   50.9894   27.5219 N.am      1 UNK         0.0000 
     12 C12         0.0858   51.2017   26.2770 C.2       1 UNK         0.0000 
     13 O13         0.5823   52.2655   25.9055 O.2       1 UNK         0.0000 
     14 N14        -0.0871   50.1126   25.5044 N.am      1 UNK         0.0000 
     15 C15         0.2451   49.9656   24.1439 C.ar      1 UNK         0.0000 
     16 C16        -0.5399   49.0871   23.3889 C.ar      1 UNK         0.0000 
     17 C17        -0.2800   48.8974   22.0303 C.ar      1 UNK         0.0000 
     18 C18         0.7865   49.5605   21.4223 C.ar      1 UNK         0.0000 
     19 C19         1.5894   50.4203   22.1705 C.ar      1 UNK         0.0000 
     20 C20         1.3192   50.6281   23.5245 C.ar      1 UNK         0.0000 
     21 Br21        3.0507   51.3092   21.3332 Br        1 UNK         0.0000 
     22 H22         5.0996   51.6239   28.8814 H         1 UNK         0.0000 
     23 H23         5.0002   52.0963   30.5546 H         1 UNK         0.0000 
     24 H24         5.1869   53.3156   29.2821 H         1 UNK         0.0000 
     25 H25         2.3235   50.8267   28.3191 H         1 UNK         0.0000 
     26 H26         0.8349   55.5991   30.1039 H         1 UNK         0.0000 
     27 H27        -0.5328   54.5090   30.2585 H         1 UNK         0.0000 
     28 H28         0.6258   54.6467   31.5671 H         1 UNK         0.0000 
     29 H29        -1.2950   52.1638   30.5906 H         1 UNK         0.0000 
     30 H30        -2.2929   51.2803   29.4320 H         1 UNK         0.0000 
     31 H31        -0.8958   50.5286   30.1651 H         1 UNK         0.0000 
     32 H32        -0.9497   50.1728   27.6788 H         1 UNK         0.0000 
     33 H33        -0.5816   49.3366   25.9193 H         1 UNK         0.0000 
     34 H34        -1.3663   48.5628   23.8475 H         1 UNK         0.0000 
     35 H35        -0.8991   48.2292   21.4509 H         1 UNK         0.0000 
     36 H36         0.9963   49.4082   20.3738 H         1 UNK         0.0000 
     37 H37         1.9563   51.2973   24.0833 H         1 UNK         0.0000 
@<TRIPOS>BOND
     1    1    2 1    
     2    1   22 1    
     3    1   23 1    
     4    1   24 1    
     5    2    6 1    
     6    2    3 2    
     7    3    4 1    
     8    3   25 1    
     9    4    5 2    
    10    4    8 1    
    11    5    6 1    
    12    5    7 1    
    13    7   26 1    
    14    7   27 1    
    15    7   28 1    
    16    8    9 1    
    17    8   10 1    
    18    8   11 1    
    19   10   29 1    
    20   10   30 1    
    21   10   31 1    
    22   11   12 am   BACKBONE|DICT|INTERRES
    23   11   32 1    
    24   12   13 2    
    25   12   14 am   BACKBONE|DICT|INTERRES
    26   14   15 1    
    27   14   33 1    
    28   15   20 ar   
    29   15   16 ar   
    30   16   17 ar   
    31   16   34 1    
    32   17   18 ar   
    33   17   35 1    
    34   18   19 ar   
    35   18   36 1    
    36   19   20 ar   
    37   19   21 1    
    38   20   37 1    
@<TRIPOS>SUBSTRUCTURE
     1 UNK         1 GROUP             0       ****    0 ROOT    
