ZINC38610792_2063
                    3D
 Schrodinger Suite 2024-2.
 49 52  0  0  1  0            999 V2000
   -2.1651   51.8859   22.4158 C   0  0  0  0  0  0
   -2.5707   52.2056   23.8407 C   0  0  0  0  0  0
   -1.8626   52.4128   24.9593 C   0  0  0  0  0  0
   -0.3879   52.3189   25.3760 C   0  0  1  0  0  0
    0.0727   53.2963   25.2878 H   0  0  0  0  0  0
   -0.3516   51.9430   26.8697 C   0  0  0  0  0  0
   -1.4751   51.6801   27.5793 C   0  0  0  0  0  0
   -2.7516   51.7850   27.1182 O   0  0  0  0  0  0
   -2.8862   52.6892   26.0146 C   0  0  2  0  0  0
   -2.8301   53.6966   26.4195 H   0  0  0  0  0  0
   -4.1248   52.5462   25.3243 N   0  0  0  0  0  0
   -3.8971   52.2947   24.0991 N   0  0  0  0  0  0
   -1.5425   51.2968   28.8881 N   0  0  0  0  0  0
    0.9115   51.8457   27.5228 C   0  0  0  0  0  0
    1.9060   51.7987   28.1100 N   0  0  0  0  0  0
    0.3922   51.3758   24.4518 C   0  0  0  0  0  0
    0.0870   50.0110   24.4808 C   0  0  0  0  0  0
    0.6370   49.1470   23.5441 C   0  0  0  0  0  0
    1.4991   49.6321   22.5656 C   0  0  0  0  0  0
    1.8474   50.9909   22.5300 C   0  0  0  0  0  0
    1.3183   51.8550   23.5041 C   0  0  0  0  0  0
    1.6545   53.1899   23.4722 O   0  0  0  0  0  0
    2.7739   53.5537   24.2877 C   0  0  0  0  0  0
    3.9930   53.9690   23.4614 C   0  0  0  0  0  0
    5.2206   54.1482   24.1094 C   0  0  0  0  0  0
    6.3253   54.6179   23.4005 C   0  0  0  0  0  0
    6.2062   54.8974   22.0404 C   0  0  0  0  0  0
    5.0109   54.6478   21.3721 C   0  0  0  0  0  0
    3.9002   54.2047   22.0850 C   0  0  0  0  0  0
    7.6536   55.6941   21.0946 Br  0  0  0  0  0  0
    2.6791   51.5364   21.5709 O   0  0  0  0  0  0
    2.9940   50.7870   20.4021 C   0  0  0  0  0  0
   -2.7260   52.4936   21.7024 H   0  0  0  0  0  0
   -1.1060   52.0846   22.2520 H   0  0  0  0  0  0
   -2.3554   50.8318   22.1994 H   0  0  0  0  0  0
   -0.6936   51.2261   29.4284 H   0  0  0  0  0  0
   -2.2767   50.6559   29.1615 H   0  0  0  0  0  0
   -0.6133   49.6233   25.2088 H   0  0  0  0  0  0
    0.3840   48.0968   23.5740 H   0  0  0  0  0  0
    1.8962   48.9314   21.8478 H   0  0  0  0  0  0
    2.4711   54.4139   24.8859 H   0  0  0  0  0  0
    3.0554   52.7730   24.9993 H   0  0  0  0  0  0
    5.3098   53.9578   25.1693 H   0  0  0  0  0  0
    7.2608   54.7974   23.9096 H   0  0  0  0  0  0
    4.9229   54.8526   20.3144 H   0  0  0  0  0  0
    2.9635   54.0728   21.5626 H   0  0  0  0  0  0
    3.6558   51.3716   19.7622 H   0  0  0  0  0  0
    3.5045   49.8572   20.6419 H   0  0  0  0  0  0
    2.0957   50.5527   19.8286 H   0  0  0  0  0  0
  1  2  1  0  0  0
  1 33  1  0  0  0
  1 34  1  0  0  0
  1 35  1  0  0  0
  2 12  1  0  0  0
  2  3  2  0  0  0
  3  9  1  0  0  0
  3  4  1  0  0  0
  4  5  1  0  0  0
  4  6  1  0  0  0
  4 16  1  0  0  0
  6  7  2  0  0  0
  6 14  1  0  0  0
  7  8  1  0  0  0
  7 13  1  0  0  0
  8  9  1  0  0  0
  9 10  1  0  0  0
  9 11  1  0  0  0
 11 12  2  0  0  0
 13 36  1  0  0  0
 13 37  1  0  0  0
 14 15  3  0  0  0
 16 21  2  0  0  0
 16 17  1  0  0  0
 17 18  2  0  0  0
 17 38  1  0  0  0
 18 19  1  0  0  0
 18 39  1  0  0  0
 19 20  2  0  0  0
 19 40  1  0  0  0
 20 21  1  0  0  0
 20 31  1  0  0  0
 21 22  1  0  0  0
 22 23  1  0  0  0
 23 24  1  0  0  0
 23 41  1  0  0  0
 23 42  1  0  0  0
 24 29  2  0  0  0
 24 25  1  0  0  0
 25 26  2  0  0  0
 25 43  1  0  0  0
 26 27  1  0  0  0
 26 44  1  0  0  0
 27 28  2  0  0  0
 27 30  1  0  0  0
 28 29  1  0  0  0
 28 45  1  0  0  0
 29 46  1  0  0  0
 31 32  1  0  0  0
 32 47  1  0  0  0
 32 48  1  0  0  0
 32 49  1  0  0  0
M  END
> <i_i_glide_confnum>
8

> <i_i_glide_lignum>
2064

> <i_i_glide_posenum>
126

> <i_i_glide_rotatable_bonds>
6

> <i_m_Source_File_Index>
4817

> <b_m_subgroup_collapsed>
0

> <r_i_docking_score>
-4.57308

> <r_i_glide_ecoul>
-2.31967

> <r_i_glide_eff_state_penalty>
0

> <r_i_glide_einternal>
5.6254

> <r_i_glide_emodel>
-46.6575

> <r_i_glide_energy>
-39.4272

> <r_i_glide_erotb>
0.369651

> <r_i_glide_esite>
-0.1

> <r_i_glide_evdw>
-37.1075

> <r_i_glide_gscore>
-4.57308

> <r_i_glide_hbond>
0

> <r_i_glide_ligand_efficiency>
-0.152436

> <r_i_glide_ligand_efficiency_ln>
-1.03905

> <r_i_glide_ligand_efficiency_sa>
-0.473654

> <r_i_glide_lipo>
-2.19343

> <r_i_glide_metal>
0

> <r_i_glide_rewards>
-0.445982

> <s_i_glide_gridfile>
wee1_glide-grid

> <s_m_Source_File>
wee1_decoys_glide_SP.sdf

> <s_m_Source_Path>
/Users/zhangxujun/Desktop

> <s_m_entry_id>
5092

> <s_m_entry_name>
wee1_decoys_glide_SP.4817

> <s_m_subgroup_title>
wee1_decoys_glide_SP

> <s_m_subgroupid>
wee1_decoys_glide_SP


$$$$
