@<TRIPOS>MOLECULE
ZINC35427206_759
64   69    1
SMALL
USER_CHARGES


@<TRIPOS>ATOM
      1 C1          1.5418   50.5926   15.0209 C.3       1 UNK         0.0000 
      2 N2          2.7045   51.2973   15.7454 N.4       1 UNK         0.0000 
      3 C3          2.1815   52.0837   16.9705 C.3       1 UNK         0.0000 
      4 C4          3.3870   52.5414   17.8291 C.3       1 UNK         0.0000 
      5 C5          4.5455   53.0457   16.9624 C.2       1 UNK         0.0000 
      6 C6          5.7275   53.6392   17.4536 C.2       1 UNK         0.0000 
      7 C7          6.5639   54.0458   16.4075 C.2       1 UNK         0.0000 
      8 S8          5.9361   53.6299   14.8488 S.3       1 UNK         0.0000 
      9 C9          4.5381   52.9136   15.5708 C.2       1 UNK         0.0000 
     10 C10         3.4275   52.2584   14.7672 C.3       1 UNK         0.0000 
     11 N11         7.7681   54.6723   16.6683 N.pl3     1 UNK         0.0000 
     12 C12         8.9775   54.3913   16.0739 C.ar      1 UNK         0.0000 
     13 C13         9.9563   55.1818   16.6454 C.ar      1 UNK         0.0000 
     14 C14         9.3264   55.9662   17.6118 C.ar      1 UNK         0.0000 
     15 C15         7.9680   55.6607   17.6240 C.ar      1 UNK         0.0000 
     16 C16         6.8172   56.2007   18.4830 C.3       1 UNK         0.0000 
     17 H17         7.2443   57.0210   19.0573 H         1 UNK         0.0000 
     18 N18         6.3288   55.1573   19.4322 N.am      1 UNK         0.0000 
     19 C19         6.1163   53.7740   18.9182 C.3       1 UNK         0.0000 
     20 C20         6.3020   55.4226   20.7763 C.2       1 UNK         0.0000 
     21 O21         6.7083   56.4851   21.2579 O.2       1 UNK         0.0000 
     22 N22         5.6587   54.5035   21.5348 N.am      1 UNK         0.0000 
     23 C23         5.4940   54.4963   22.9290 C.ar      1 UNK         0.0000 
     24 C24         6.5279   54.8716   23.8007 C.ar      1 UNK         0.0000 
     25 C25         6.3129   54.8718   25.1773 C.ar      1 UNK         0.0000 
     26 C26         5.0774   54.4904   25.6919 C.ar      1 UNK         0.0000 
     27 C27         4.0515   54.1000   24.8309 C.ar      1 UNK         0.0000 
     28 C28         4.2461   54.0966   23.4389 C.ar      1 UNK         0.0000 
     29 O29         3.2661   53.7319   22.5311 O.3       1 UNK         0.0000 
     30 C30         1.9518   53.4439   22.9945 C.3       1 UNK         0.0000 
     31 C31         5.7374   56.9075   17.6410 C.ar      1 UNK         0.0000 
     32 C32         6.1178   57.9721   16.8164 C.ar      1 UNK         0.0000 
     33 C33         5.1770   58.6277   16.0279 C.ar      1 UNK         0.0000 
     34 C34         3.8462   58.2219   16.0583 C.ar      1 UNK         0.0000 
     35 C35         3.4517   57.1727   16.8814 C.ar      1 UNK         0.0000 
     36 C36         4.3877   56.5304   17.6874 C.ar      1 UNK         0.0000 
     37 Cl37        2.6747   59.0242   15.0766 Cl        1 UNK         0.0000 
     38 H38         1.9705   50.0343   14.1885 H         1 UNK         0.0000 
     39 H39         1.0833   49.9078   15.7363 H         1 UNK         0.0000 
     40 H40         0.8326   51.3474   14.6780 H         1 UNK         0.0000 
     41 H41         1.5923   52.9165   16.5835 H         1 UNK         0.0000 
     42 H42         1.5422   51.4102   17.5467 H         1 UNK         0.0000 
     43 H43         3.0620   53.3040   18.5359 H         1 UNK         0.0000 
     44 H44         3.7309   51.6975   18.4270 H         1 UNK         0.0000 
     45 H45         3.8003   51.6324   13.9564 H         1 UNK         0.0000 
     46 H46         2.7007   52.9747   14.3809 H         1 UNK         0.0000 
     47 H47         9.0422   53.6385   15.3017 H         1 UNK         0.0000 
     48 H48        11.0102   55.1852   16.4016 H         1 UNK         0.0000 
     49 H49         9.8170   56.6848   18.2523 H         1 UNK         0.0000 
     50 H50         5.4240   53.1976   19.5307 H         1 UNK         0.0000 
     51 H51         7.0831   53.2832   19.0260 H         1 UNK         0.0000 
     52 H52         5.1794   53.7593   21.0521 H         1 UNK         0.0000 
     53 H53         7.4995   55.1646   23.4183 H         1 UNK         0.0000 
     54 H54         7.1039   55.1646   25.8498 H         1 UNK         0.0000 
     55 H55         4.9198   54.4865   26.7591 H         1 UNK         0.0000 
     56 H56         3.1115   53.7968   25.2657 H         1 UNK         0.0000 
     57 H57         1.9422   52.5724   23.6497 H         1 UNK         0.0000 
     58 H58         1.5198   54.2982   23.5172 H         1 UNK         0.0000 
     59 H59         1.3120   53.2225   22.1413 H         1 UNK         0.0000 
     60 H60         7.1476   58.2986   16.7846 H         1 UNK         0.0000 
     61 H61         5.4746   59.4640   15.4125 H         1 UNK         0.0000 
     62 H62         2.4170   56.8685   16.9070 H         1 UNK         0.0000 
     63 H63         4.0506   55.7341   18.3319 H         1 UNK         0.0000 
     64 H64         3.3485   50.5742   16.0822 H         1 UNK         0.0000 
@<TRIPOS>BOND
     1    1    2 1    
     2    1   38 1    
     3    1   39 1    
     4    1   40 1    
     5    2   10 1    
     6    2    3 1    
     7    2   64 1    
     8    3    4 1    
     9    3   41 1    
    10    3   42 1    
    11    4    5 1    
    12    4   43 1    
    13    4   44 1    
    14    5    9 2    
    15    5    6 1    
    16    6   19 1    
    17    6    7 2    
    18    7    8 1    
    19    7   11 1    
    20    8    9 1    
    21    9   10 1    
    22   10   45 1    
    23   10   46 1    
    24   11   15 ar   
    25   11   12 ar   
    26   12   13 ar   
    27   12   47 1    
    28   13   14 ar   
    29   13   48 1    
    30   14   15 ar   
    31   14   49 1    
    32   15   16 1    
    33   16   17 1    
    34   16   18 1    
    35   16   31 1    
    36   18   19 1    
    37   18   20 am   BACKBONE|DICT|INTERRES
    38   19   50 1    
    39   19   51 1    
    40   20   21 2    
    41   20   22 am   BACKBONE|DICT|INTERRES
    42   22   23 1    
    43   22   52 1    
    44   23   28 ar   
    45   23   24 ar   
    46   24   25 ar   
    47   24   53 1    
    48   25   26 ar   
    49   25   54 1    
    50   26   27 ar   
    51   26   55 1    
    52   27   28 ar   
    53   27   56 1    
    54   28   29 1    
    55   29   30 1    
    56   30   57 1    
    57   30   58 1    
    58   30   59 1    
    59   31   36 ar   
    60   31   32 ar   
    61   32   33 ar   
    62   32   60 1    
    63   33   34 ar   
    64   33   61 1    
    65   34   35 ar   
    66   34   37 1    
    67   35   36 ar   
    68   35   62 1    
    69   36   63 1    
@<TRIPOS>SUBSTRUCTURE
     1 UNK         1 GROUP             0       ****    0 ROOT    
