@<TRIPOS>MOLECULE
ZINC13197819_3299
47   49    1
SMALL
USER_CHARGES


@<TRIPOS>ATOM
      1 C1          3.9920   54.0798   24.1604 C.ar      1 UNK         0.0000 
      2 C2          2.7716   53.4345   23.9729 C.ar      1 UNK         0.0000 
      3 C3          2.4387   52.8221   22.7566 C.ar      1 UNK         0.0000 
      4 C4          3.3793   52.8824   21.6983 C.ar      1 UNK         0.0000 
      5 C5          4.5974   53.5504   21.8940 C.ar      1 UNK         0.0000 
      6 C6          4.9322   54.1095   23.1288 C.ar      1 UNK         0.0000 
      7 C7          6.3232   54.7076   23.3457 C.3       1 UNK         0.0000 
      8 F8          6.7109   55.4290   22.2926 F         1 UNK         0.0000 
      9 F9          6.3777   55.4832   24.4316 F         1 UNK         0.0000 
     10 F10         7.1811   53.7018   23.5072 F         1 UNK         0.0000 
     11 N11         3.2079   52.1663   20.4211 N.pl3     1 UNK         0.0000 
     12 O12         3.4772   52.7745   19.3903 O.co2     1 UNK         0.0000 
     13 O13         2.8984   50.9802   20.4594 O.co2     1 UNK         0.0000 
     14 N14         1.2114   52.1594   22.7149 N.pl3     1 UNK         0.0000 
     15 C15         0.3297   52.1075   21.5329 C.3       1 UNK         0.0000 
     16 C16        -1.1324   51.8929   21.9607 C.3       1 UNK         0.0000 
     17 N17        -1.2256   50.5669   22.5914 N.pl3     1 UNK         0.0000 
     18 C18        -0.4184   50.5050   23.8276 C.3       1 UNK         0.0000 
     19 C19         1.0431   50.9626   23.5785 C.3       1 UNK         0.0000 
     20 S20        -2.8344   49.8338   22.6719 S.o2      1 UNK         0.0000 
     21 O21        -2.6515   48.3859   22.8297 O.2       1 UNK         0.0000 
     22 O22        -3.6408   50.3710   21.5689 O.2       1 UNK         0.0000 
     23 C23        -3.5527   50.4399   24.1981 C.ar      1 UNK         0.0000 
     24 C24        -3.6358   49.6022   25.3082 C.ar      1 UNK         0.0000 
     25 C25        -4.2086   50.0690   26.4841 C.ar      1 UNK         0.0000 
     26 C26        -4.6917   51.3755   26.5736 C.ar      1 UNK         0.0000 
     27 C27        -4.5825   52.2604   25.4713 C.ar      1 UNK         0.0000 
     28 C28        -4.0135   51.7549   24.2866 C.ar      1 UNK         0.0000 
     29 C29        -5.0286   53.7012   25.5025 C.2       1 UNK         0.0000 
     30 O30        -5.6690   54.1367   26.4854 O.co2     1 UNK         0.0000 
     31 O31        -5.2485   51.7071   27.7811 O.3       1 UNK         0.0000 
     32 H32         4.2123   54.5160   25.1244 H         1 UNK         0.0000 
     33 H33         2.0724   53.4056   24.7969 H         1 UNK         0.0000 
     34 H34         5.3253   53.5644   21.0934 H         1 UNK         0.0000 
     35 H35         0.6213   51.2490   20.9283 H         1 UNK         0.0000 
     36 H36         0.4306   52.9980   20.9126 H         1 UNK         0.0000 
     37 H37        -1.7619   51.8970   21.0710 H         1 UNK         0.0000 
     38 H38        -1.4303   52.6825   22.6524 H         1 UNK         0.0000 
     39 H39        -0.8366   51.2080   24.5503 H         1 UNK         0.0000 
     40 H40        -0.4144   49.4831   24.2128 H         1 UNK         0.0000 
     41 H41         1.6028   51.0354   24.5080 H         1 UNK         0.0000 
     42 H42         1.4936   50.1947   22.9445 H         1 UNK         0.0000 
     43 H43        -3.2669   48.5870   25.2693 H         1 UNK         0.0000 
     44 H44        -4.2669   49.4014   27.3326 H         1 UNK         0.0000 
     45 H45        -3.9230   52.3888   23.4156 H         1 UNK         0.0000 
     46 H46        -5.2026   50.9789   28.4048 H         1 UNK         0.0000 
     47 O47        -4.7267   54.4271   24.5258 O.co2     1 UNK         0.0000 
@<TRIPOS>BOND
     1    1    6 ar   
     2    1    2 ar   
     3    1   32 1    
     4    2    3 ar   
     5    2   33 1    
     6    3    4 ar   
     7    3   14 1    
     8    4    5 ar   
     9    4   11 1    
    10    5    6 ar   
    11    5   34 1    
    12    6    7 1    
    13    7    8 1    
    14    7    9 1    
    15    7   10 1    
    16   11   12 2    
    17   11   13 1    
    18   14   19 1    
    19   14   15 1    
    20   15   16 1    
    21   15   35 1    
    22   15   36 1    
    23   16   17 1    
    24   16   37 1    
    25   16   38 1    
    26   17   18 1    
    27   17   20 1    
    28   18   19 1    
    29   18   39 1    
    30   18   40 1    
    31   19   41 1    
    32   19   42 1    
    33   20   21 2    
    34   20   22 2    
    35   20   23 1    
    36   23   28 ar   
    37   23   24 ar   
    38   24   25 ar   
    39   24   43 1    
    40   25   26 ar   
    41   25   44 1    
    42   26   27 ar   
    43   26   31 1    
    44   27   28 ar   
    45   27   29 1    
    46   28   45 1    
    47   29   30 2    
    48   29   47 1    
    49   31   46 1    
@<TRIPOS>SUBSTRUCTURE
     1 UNK         1 GROUP             0       ****    0 ROOT    
