ZINC14461017_4426
                    3D
 Schrodinger Suite 2024-2.
 49 52  0  0  1  0            999 V2000
    0.0981   53.2921   29.5548 C   0  0  0  0  0  0
   -0.0410   51.9953   29.2394 C   0  0  0  0  0  0
    0.7573   51.2949   28.1587 C   0  0  0  0  0  0
   -0.0957   50.4968   27.2475 N   0  0  0  0  0  0
   -1.1232   51.2648   26.0415 S   0  0  0  0  0  0
   -2.0154   50.2371   25.4930 O   0  0  0  0  0  0
   -1.6686   52.4971   26.6162 O   0  0  0  0  0  0
   -0.0086   51.7524   24.7318 C   0  0  0  0  0  0
   -0.0750   51.1698   23.4673 C   0  0  0  0  0  0
    0.8124   51.5769   22.4734 C   0  0  0  0  0  0
    1.7679   52.5601   22.7411 C   0  0  0  0  0  0
    1.8785   53.1192   24.0247 C   0  0  0  0  0  0
    0.9494   52.7291   24.9914 C   0  0  0  0  0  0
    2.9341   54.1704   24.3453 C   0  0  1  0  0  0
    2.3786   55.0998   24.4689 H   0  0  0  0  0  0
    3.7349   53.9147   25.6061 C   0  0  0  0  0  0
    5.0475   54.0974   25.4113 C   0  0  0  0  0  0
    5.3547   54.4738   23.9821 C   0  0  0  0  0  0
    3.9979   54.3600   23.2474 C   0  0  1  0  0  0
    3.7181   55.2967   22.7753 H   0  0  0  0  0  0
    4.0269   53.3197   22.0833 C   0  0  1  0  0  0
    4.5350   52.4263   22.4450 H   0  0  0  0  0  0
    2.6729   52.8960   21.7282 N   0  0  0  0  0  0
    4.8453   53.7531   20.8411 C   0  0  0  0  0  0
    5.5264   54.9821   20.7913 C   0  0  0  0  0  0
    6.2454   55.3699   19.6640 C   0  0  0  0  0  0
    6.3240   54.5248   18.5624 C   0  0  0  0  0  0
    5.6679   53.2970   18.5914 C   0  0  0  0  0  0
    4.9305   52.9149   19.7128 C   0  0  0  0  0  0
    4.3021   51.6998   19.6832 O   0  0  0  0  0  0
    7.1037   57.0640   19.6385 Br  0  0  0  0  0  0
    0.8057   53.9249   29.0382 H   0  0  0  0  0  0
   -0.4958   53.7383   30.3377 H   0  0  0  0  0  0
   -0.7636   51.3896   29.7710 H   0  0  0  0  0  0
    1.3855   51.9823   27.5980 H   0  0  0  0  0  0
    1.4507   50.6189   28.6592 H   0  0  0  0  0  0
   -0.5380   49.6672   27.6792 H   0  0  0  0  0  0
   -0.8074   50.4065   23.2519 H   0  0  0  0  0  0
    0.7580   51.1216   21.4961 H   0  0  0  0  0  0
    0.9736   53.2064   25.9579 H   0  0  0  0  0  0
    3.2679   53.6612   26.5461 H   0  0  0  0  0  0
    5.8209   53.9940   26.1589 H   0  0  0  0  0  0
    6.1022   53.7887   23.5774 H   0  0  0  0  0  0
    5.7786   55.4753   23.9529 H   0  0  0  0  0  0
    2.6617   52.3726   20.8597 H   0  0  0  0  0  0
    5.5060   55.6790   21.6114 H   0  0  0  0  0  0
    6.8835   54.8199   17.6870 H   0  0  0  0  0  0
    5.7259   52.6412   17.7335 H   0  0  0  0  0  0
    4.7040   51.1147   18.9885 H   0  0  0  0  0  0
  1  2  2  0  0  0
  1 32  1  0  0  0
  1 33  1  0  0  0
  2  3  1  0  0  0
  2 34  1  0  0  0
  3  4  1  0  0  0
  3 35  1  0  0  0
  3 36  1  0  0  0
  4  5  1  0  0  0
  4 37  1  0  0  0
  5  6  2  0  0  0
  5  7  2  0  0  0
  5  8  1  0  0  0
  8 13  2  0  0  0
  8  9  1  0  0  0
  9 10  2  0  0  0
  9 38  1  0  0  0
 10 11  1  0  0  0
 10 39  1  0  0  0
 11 23  1  0  0  0
 11 12  2  0  0  0
 12 13  1  0  0  0
 12 14  1  0  0  0
 13 40  1  0  0  0
 14 15  1  0  0  0
 14 19  1  0  0  0
 14 16  1  0  0  0
 16 17  2  0  0  0
 16 41  1  0  0  0
 17 18  1  0  0  0
 17 42  1  0  0  0
 18 19  1  0  0  0
 18 43  1  0  0  0
 18 44  1  0  0  0
 19 20  1  0  0  0
 19 21  1  0  0  0
 21 22  1  0  0  0
 21 23  1  0  0  0
 21 24  1  0  0  0
 23 45  1  0  0  0
 24 29  2  0  0  0
 24 25  1  0  0  0
 25 26  2  0  0  0
 25 46  1  0  0  0
 26 27  1  0  0  0
 26 31  1  0  0  0
 27 28  2  0  0  0
 27 47  1  0  0  0
 28 29  1  0  0  0
 28 48  1  0  0  0
 29 30  1  0  0  0
 30 49  1  0  0  0
M  END
> <i_i_glide_confnum>
140

> <i_i_glide_lignum>
4427

> <i_i_glide_posenum>
143

> <i_i_glide_rotatable_bonds>
6

> <i_m_Source_File_Index>
441

> <b_m_subgroup_collapsed>
0

> <r_i_docking_score>
-4.93957

> <r_i_glide_ecoul>
-11.5623

> <r_i_glide_eff_state_penalty>
0

> <r_i_glide_einternal>
8.02955

> <r_i_glide_emodel>
-42.9576

> <r_i_glide_energy>
-36.0519

> <r_i_glide_erotb>
0.472969

> <r_i_glide_esite>
-0.179948

> <r_i_glide_evdw>
-24.4895

> <r_i_glide_gscore>
-4.93957

> <r_i_glide_hbond>
-0.234135

> <r_i_glide_ligand_efficiency>
-0.176413

> <r_i_glide_ligand_efficiency_ln>
-1.1402

> <r_i_glide_ligand_efficiency_sa>
-0.535695

> <r_i_glide_lipo>
-2.26998

> <r_i_glide_metal>
0

> <r_i_glide_rewards>
0.230351

> <s_i_glide_gridfile>
wee1_glide-grid

> <s_m_Source_File>
wee1_decoys_glide_SP.sdf

> <s_m_Source_Path>
/Users/zhangxujun/Desktop

> <s_m_entry_id>
716

> <s_m_entry_name>
wee1_decoys_glide_SP.441

> <s_m_subgroup_title>
wee1_decoys_glide_SP

> <s_m_subgroupid>
wee1_decoys_glide_SP


$$$$
