@<TRIPOS>MOLECULE
ZINC08869224_4008
60   64    1
SMALL
USER_CHARGES


@<TRIPOS>ATOM
      1 C1         11.2459   50.6653   15.7095 C.3       1 UNK         0.0000 
      2 C2          9.9400   51.4389   15.6960 C.ar      1 UNK         0.0000 
      3 C3          9.1040   51.3992   16.8128 C.ar      1 UNK         0.0000 
      4 C4          7.9011   52.0982   16.8041 C.ar      1 UNK         0.0000 
      5 C5          7.5357   52.8386   15.6774 C.ar      1 UNK         0.0000 
      6 C6          8.3846   52.9017   14.5684 C.ar      1 UNK         0.0000 
      7 C7          9.5860   52.1978   14.5782 C.ar      1 UNK         0.0000 
      8 S8          5.9797   53.7256   15.6816 S.o2      1 UNK         0.0000 
      9 O9          5.6735   54.1112   14.2986 O.2       1 UNK         0.0000 
     10 O10         5.0283   52.9293   16.4638 O.2       1 UNK         0.0000 
     11 N11         6.3190   55.2026   16.5929 N.pl3     1 UNK         0.0000 
     12 C12         6.9716   56.3595   15.9361 C.3       1 UNK         0.0000 
     13 C13         5.8465   57.3840   15.9391 C.3       1 UNK         0.0000 
     14 C14         5.1178   57.1579   17.2576 C.3       1 UNK         0.0000 
     15 C15         5.3611   55.6759   17.6385 C.3       1 UNK         0.0000 
     16 H16         4.4391   55.0917   17.6539 H         1 UNK         0.0000 
     17 C17         6.0225   55.5485   19.0323 C.2       1 UNK         0.0000 
     18 O18         7.1362   56.0517   19.2192 O.2       1 UNK         0.0000 
     19 N19         5.2775   54.9706   20.0021 N.am      1 UNK         0.0000 
     20 C20         5.5818   54.8523   21.3537 C.2       1 UNK         0.0000 
     21 N21         4.6852   54.4167   22.2054 N.2       1 UNK         0.0000 
     22 C22         5.0978   54.4390   23.4693 C.2       1 UNK         0.0000 
     23 C23         6.4306   54.8452   23.6112 C.2       1 UNK         0.0000 
     24 S24         7.1016   55.2968   22.0820 S.3       1 UNK         0.0000 
     25 C25         4.1564   54.0988   24.5965 C.ar      1 UNK         0.0000 
     26 C26         2.8364   53.6952   24.3552 C.ar      1 UNK         0.0000 
     27 C27         1.9857   53.3830   25.4134 C.ar      1 UNK         0.0000 
     28 C28         2.4215   53.4976   26.7409 C.ar      1 UNK         0.0000 
     29 C29         3.7328   53.9255   26.9795 C.ar      1 UNK         0.0000 
     30 C30         4.5906   54.2152   25.9227 C.ar      1 UNK         0.0000 
     31 C31         1.5215   53.1630   27.8833 C.ar      1 UNK         0.0000 
     32 C32         1.5578   53.9133   29.0691 C.ar      1 UNK         0.0000 
     33 C33         0.7401   53.5843   30.1473 C.ar      1 UNK         0.0000 
     34 C34        -0.1186   52.4931   30.0497 C.ar      1 UNK         0.0000 
     35 C35        -0.1823   51.7442   28.8775 C.ar      1 UNK         0.0000 
     36 C36         0.6323   52.0794   27.8008 C.ar      1 UNK         0.0000 
     37 H37        11.9832   51.1154   15.0409 H         1 UNK         0.0000 
     38 H38        11.0794   49.6293   15.4077 H         1 UNK         0.0000 
     39 H39        11.6886   50.6662   16.7081 H         1 UNK         0.0000 
     40 H40         9.3854   50.8202   17.6808 H         1 UNK         0.0000 
     41 H41         7.2444   52.0487   17.6610 H         1 UNK         0.0000 
     42 H42         8.1102   53.4825   13.7000 H         1 UNK         0.0000 
     43 H43        10.2375   52.2336   13.7161 H         1 UNK         0.0000 
     44 H44         7.7998   56.7051   16.5562 H         1 UNK         0.0000 
     45 H45         7.4381   56.1106   14.9835 H         1 UNK         0.0000 
     46 H46         6.2142   58.4077   15.8379 H         1 UNK         0.0000 
     47 H47         5.1775   57.1938   15.0962 H         1 UNK         0.0000 
     48 H48         5.4962   57.8642   18.0027 H         1 UNK         0.0000 
     49 H49         4.0518   57.3675   17.1346 H         1 UNK         0.0000 
     50 H50         4.3660   54.6308   19.7333 H         1 UNK         0.0000 
     51 H51         7.0247   54.9462   24.5045 H         1 UNK         0.0000 
     52 H52         2.4657   53.6076   23.3452 H         1 UNK         0.0000 
     53 H53         0.9756   53.0655   25.1950 H         1 UNK         0.0000 
     54 H54         4.1051   54.0124   27.9897 H         1 UNK         0.0000 
     55 H55         5.5945   54.5328   26.1544 H         1 UNK         0.0000 
     56 H56         2.2172   54.7636   29.1538 H         1 UNK         0.0000 
     57 H57         0.7715   54.1673   31.0564 H         1 UNK         0.0000 
     58 H58        -0.7532   52.2237   30.8834 H         1 UNK         0.0000 
     59 H59        -0.8548   50.8982   28.8106 H         1 UNK         0.0000 
     60 H60         0.5843   51.4753   26.9068 H         1 UNK         0.0000 
@<TRIPOS>BOND
     1    1    2 1    
     2    1   37 1    
     3    1   38 1    
     4    1   39 1    
     5    2    7 ar   
     6    2    3 ar   
     7    3    4 ar   
     8    3   40 1    
     9    4    5 ar   
    10    4   41 1    
    11    5    6 ar   
    12    5    8 1    
    13    6    7 ar   
    14    6   42 1    
    15    7   43 1    
    16    8    9 2    
    17    8   10 2    
    18    8   11 1    
    19   11   15 1    
    20   11   12 1    
    21   12   13 1    
    22   12   44 1    
    23   12   45 1    
    24   13   14 1    
    25   13   46 1    
    26   13   47 1    
    27   14   15 1    
    28   14   48 1    
    29   14   49 1    
    30   15   16 1    
    31   15   17 1    
    32   17   18 2    
    33   17   19 am   BACKBONE|DICT|INTERRES
    34   19   20 am   BACKBONE|DICT|INTERRES
    35   19   50 1    
    36   20   24 1    
    37   20   21 2    
    38   21   22 1    
    39   22   23 2    
    40   22   25 1    
    41   23   24 1    
    42   23   51 1    
    43   25   30 ar   
    44   25   26 ar   
    45   26   27 ar   
    46   26   52 1    
    47   27   28 ar   
    48   27   53 1    
    49   28   29 ar   
    50   28   31 1    
    51   29   30 ar   
    52   29   54 1    
    53   30   55 1    
    54   31   36 ar   
    55   31   32 ar   
    56   32   33 ar   
    57   32   56 1    
    58   33   34 ar   
    59   33   57 1    
    60   34   35 ar   
    61   34   58 1    
    62   35   36 ar   
    63   35   59 1    
    64   36   60 1    
@<TRIPOS>SUBSTRUCTURE
     1 UNK         1 GROUP             0       ****    0 ROOT    
