@<TRIPOS>MOLECULE
ZINC13894291_3216
47   50    1
SMALL
USER_CHARGES


@<TRIPOS>ATOM
      1 C1          1.3273   52.1494   30.4473 C.2       1 UNK         0.0000 
      2 C2          1.9125   52.1284   29.1789 C.2       1 UNK         0.0000 
      3 C3          0.8857   52.0521   28.2433 C.2       1 UNK         0.0000 
      4 O4         -0.3008   52.0310   28.9110 O.3       1 UNK         0.0000 
      5 C5         -0.0386   52.0968   30.2380 C.2       1 UNK         0.0000 
      6 C6          0.8916   52.0598   26.7851 C.2       1 UNK         0.0000 
      7 C7         -0.1370   51.8601   25.9118 C.2       1 UNK         0.0000 
      8 C8          0.0580   52.0007   24.4558 C.2       1 UNK         0.0000 
      9 O9         -0.7427   51.5401   23.6357 O.2       1 UNK         0.0000 
     10 N10         1.1372   52.7252   24.0831 N.am      1 UNK         0.0000 
     11 N11         1.3861   53.1388   22.8247 N.2       1 UNK         0.0000 
     12 C12         2.5071   53.7225   22.6059 C.2       1 UNK         0.0000 
     13 C13         3.6319   54.0493   23.5180 C.ar      1 UNK         0.0000 
     14 C14         4.9387   54.0965   22.9774 C.ar      1 UNK         0.0000 
     15 C15         6.0649   54.3316   23.7822 C.ar      1 UNK         0.0000 
     16 C16         5.8526   54.4974   25.1447 C.ar      1 UNK         0.0000 
     17 C17         4.5980   54.4821   25.6792 C.ar      1 UNK         0.0000 
     18 C18         3.4682   54.3030   24.8963 C.ar      1 UNK         0.0000 
     19 O19         4.6722   54.6688   27.0206 O.3       1 UNK         0.0000 
     20 C20         6.0310   54.5361   27.3281 C.3       1 UNK         0.0000 
     21 O21         6.7544   54.7154   26.1383 O.3       1 UNK         0.0000 
     22 N22        -1.3647   51.4883   26.4126 N.am      1 UNK         0.0000 
     23 C23        -2.5736   52.0573   26.1892 C.2       1 UNK         0.0000 
     24 O24        -2.7880   52.8967   25.3118 O.2       1 UNK         0.0000 
     25 C25        -3.6956   51.6222   27.1136 C.ar      1 UNK         0.0000 
     26 C26        -3.4516   50.8512   28.2646 C.ar      1 UNK         0.0000 
     27 C27        -4.4894   50.5014   29.1222 C.ar      1 UNK         0.0000 
     28 C28        -5.7854   50.9239   28.8443 C.ar      1 UNK         0.0000 
     29 C29        -6.0520   51.6792   27.7057 C.ar      1 UNK         0.0000 
     30 C30        -5.0132   52.0247   26.8445 C.ar      1 UNK         0.0000 
     31 Br31       -7.2023   50.4692   30.0299 Br        1 UNK         0.0000 
     32 H32         1.8277   52.1984   31.4040 H         1 UNK         0.0000 
     33 H33         2.9697   52.1726   28.9584 H         1 UNK         0.0000 
     34 H34        -0.8953   52.0709   30.8962 H         1 UNK         0.0000 
     35 H35         1.8862   52.2715   26.4231 H         1 UNK         0.0000 
     36 H36         1.8512   52.9620   24.7517 H         1 UNK         0.0000 
     37 H37         2.7101   54.0238   21.5819 H         1 UNK         0.0000 
     38 H38         5.0964   53.9305   21.9202 H         1 UNK         0.0000 
     39 H39         7.0574   54.3585   23.3556 H         1 UNK         0.0000 
     40 H40         2.4988   54.3593   25.3644 H         1 UNK         0.0000 
     41 H41         6.2247   53.5380   27.7281 H         1 UNK         0.0000 
     42 H42         6.3043   55.2728   28.0803 H         1 UNK         0.0000 
     43 H43        -1.3085   50.9617   27.2725 H         1 UNK         0.0000 
     44 H44        -2.4643   50.4984   28.5241 H         1 UNK         0.0000 
     45 H45        -4.2784   49.9051   29.9994 H         1 UNK         0.0000 
     46 H46        -7.0613   51.9970   27.4922 H         1 UNK         0.0000 
     47 H47        -5.2417   52.6170   25.9690 H         1 UNK         0.0000 
@<TRIPOS>BOND
     1    1    5 2    
     2    1    2 1    
     3    1   32 1    
     4    2    3 2    
     5    2   33 1    
     6    3    4 1    
     7    3    6 1    
     8    4    5 1    
     9    5   34 1    
    10    6    7 2    
    11    6   35 1    
    12    7    8 1    
    13    7   22 1    
    14    8    9 2    
    15    8   10 am   BACKBONE|DICT|INTERRES
    16   10   11 1    
    17   10   36 1    
    18   11   12 2    
    19   12   13 1    
    20   12   37 1    
    21   13   18 ar   
    22   13   14 ar   
    23   14   15 ar   
    24   14   38 1    
    25   15   16 ar   
    26   15   39 1    
    27   16   21 1    
    28   16   17 ar   
    29   17   18 ar   
    30   17   19 1    
    31   18   40 1    
    32   19   20 1    
    33   20   21 1    
    34   20   41 1    
    35   20   42 1    
    36   22   23 am   BACKBONE|DICT|INTERRES
    37   22   43 1    
    38   23   24 2    
    39   23   25 1    
    40   25   30 ar   
    41   25   26 ar   
    42   26   27 ar   
    43   26   44 1    
    44   27   28 ar   
    45   27   45 1    
    46   28   29 ar   
    47   28   31 1    
    48   29   30 ar   
    49   29   46 1    
    50   30   47 1    
@<TRIPOS>SUBSTRUCTURE
     1 UNK         1 GROUP             0       ****    0 ROOT    
