@<TRIPOS>MOLECULE
ZINC14458931_3760
42   45    1
SMALL
USER_CHARGES


@<TRIPOS>ATOM
      1 C1          6.5885   55.1293   20.6855 C.3       1 UNK         0.0000 
      2 O2          6.7718   54.9095   22.0810 O.3       1 UNK         0.0000 
      3 C3          5.6986   54.4967   22.8522 C.ar      1 UNK         0.0000 
      4 C4          4.4266   54.1979   22.3350 C.ar      1 UNK         0.0000 
      5 C5          3.3749   53.7860   23.1623 C.ar      1 UNK         0.0000 
      6 C6          3.5969   53.7507   24.5477 C.ar      1 UNK         0.0000 
      7 C7          4.8376   54.0967   25.0814 C.ar      1 UNK         0.0000 
      8 C8          5.8879   54.4458   24.2377 C.ar      1 UNK         0.0000 
      9 O9          7.1043   54.7637   24.7823 O.3       1 UNK         0.0000 
     10 C10         1.9912   53.4773   22.5555 C.3       1 UNK         0.0000 
     11 H11         1.7062   54.4141   22.0817 H         1 UNK         0.0000 
     12 C12         1.9424   52.3437   21.4799 C.3       1 UNK         0.0000 
     13 H13         0.9148   52.3899   21.1010 H         1 UNK         0.0000 
     14 C14         2.7806   52.3001   20.1971 C.3       1 UNK         0.0000 
     15 C15         2.6653   50.8294   19.8292 C.2       1 UNK         0.0000 
     16 C16         2.2483   50.0976   20.8819 C.2       1 UNK         0.0000 
     17 C17         2.1522   50.9815   22.1106 C.3       1 UNK         0.0000 
     18 H18         3.1042   50.9388   22.6322 H         1 UNK         0.0000 
     19 C19         1.0649   50.7565   23.1539 C.ar      1 UNK         0.0000 
     20 C20         0.5968   49.4790   23.4770 C.ar      1 UNK         0.0000 
     21 C21        -0.3826   49.2929   24.4537 C.ar      1 UNK         0.0000 
     22 C22        -0.8726   50.3919   25.1611 C.ar      1 UNK         0.0000 
     23 C23        -0.4151   51.6742   24.8573 C.ar      1 UNK         0.0000 
     24 C24         0.5291   51.8670   23.8467 C.ar      1 UNK         0.0000 
     25 N25         0.9215   53.1934   23.5386 N.pl3     1 UNK         0.0000 
     26 C26        -0.9067   47.9577   24.7004 C.1       1 UNK         0.0000 
     27 N27        -1.3267   46.8941   24.8817 N.1       1 UNK         0.0000 
     28 H28         7.5348   55.4439   20.2454 H         1 UNK         0.0000 
     29 H29         6.2723   54.2222   20.1677 H         1 UNK         0.0000 
     30 H30         5.8588   55.9186   20.5000 H         1 UNK         0.0000 
     31 H31         4.2348   54.3312   21.2843 H         1 UNK         0.0000 
     32 H32         2.8115   53.4600   25.2293 H         1 UNK         0.0000 
     33 H33         4.9911   54.0636   26.1502 H         1 UNK         0.0000 
     34 H34         7.7676   54.9001   24.0933 H         1 UNK         0.0000 
     35 H35         2.3632   52.9553   19.4317 H         1 UNK         0.0000 
     36 H36         3.8284   52.5582   20.3201 H         1 UNK         0.0000 
     37 H37         2.9102   50.4599   18.8409 H         1 UNK         0.0000 
     38 H38         2.1255   49.0248   20.9065 H         1 UNK         0.0000 
     39 H39         1.0025   48.6249   22.9546 H         1 UNK         0.0000 
     40 H40        -1.6174   50.2614   25.9357 H         1 UNK         0.0000 
     41 H41        -0.8153   52.5186   25.3988 H         1 UNK         0.0000 
     42 H42         0.6279   53.9750   24.1048 H         1 UNK         0.0000 
@<TRIPOS>BOND
     1    1    2 1    
     2    1   28 1    
     3    1   29 1    
     4    1   30 1    
     5    2    3 1    
     6    3    8 ar   
     7    3    4 ar   
     8    4    5 ar   
     9    4   31 1    
    10    5    6 ar   
    11    5   10 1    
    12    6    7 ar   
    13    6   32 1    
    14    7    8 ar   
    15    7   33 1    
    16    8    9 1    
    17    9   34 1    
    18   10   11 1    
    19   10   25 1    
    20   10   12 1    
    21   12   13 1    
    22   12   17 1    
    23   12   14 1    
    24   14   15 1    
    25   14   35 1    
    26   14   36 1    
    27   15   16 2    
    28   15   37 1    
    29   16   17 1    
    30   16   38 1    
    31   17   18 1    
    32   17   19 1    
    33   19   24 ar   
    34   19   20 ar   
    35   20   21 ar   
    36   20   39 1    
    37   21   22 ar   
    38   21   26 1    
    39   22   23 ar   
    40   22   40 1    
    41   23   24 ar   
    42   23   41 1    
    43   24   25 1    
    44   25   42 1    
    45   26   27 3    
@<TRIPOS>SUBSTRUCTURE
     1 UNK         1 GROUP             0       ****    0 ROOT    
