ZINC10556737_3249
                    3D
 Schrodinger Suite 2024-2.
 55 58  0  0  1  0            999 V2000
    6.0403   57.7421   16.0080 C   0  0  0  0  0  0
    4.9139   57.2701   16.9501 C   0  0  0  0  0  0
    3.5631   57.2410   16.2038 C   0  0  0  0  0  0
    5.2314   55.9367   17.6305 C   0  0  0  0  0  0
    6.3616   55.1289   17.4823 C   0  0  0  0  0  0
    6.2220   53.7163   18.4814 S   0  0  0  0  0  0
    4.6842   54.3311   19.0282 C   0  0  0  0  0  0
    4.3323   55.4683   18.4813 N   0  0  0  0  0  0
    3.8449   53.6968   19.9358 N   0  0  0  0  0  0
    4.0673   52.5634   20.6355 C   0  0  0  0  0  0
    5.1044   51.8998   20.6040 O   0  0  0  0  0  0
    2.9347   52.1098   21.5258 C   0  0  0  0  0  0
    2.7088   50.7425   21.7241 C   0  0  0  0  0  0
    1.7201   50.3104   22.6038 C   0  0  0  0  0  0
    0.9241   51.2327   23.2839 C   0  0  0  0  0  0
    1.1203   52.5988   23.0513 C   0  0  0  0  0  0
    2.1247   53.0350   22.1955 C   0  0  0  0  0  0
   -0.0407   50.7178   24.1654 N   0  0  0  0  0  0
   -1.0450   51.6457   25.3028 S   0  0  0  0  0  0
   -1.4452   52.8962   24.6504 O   0  0  0  0  0  0
   -2.0692   50.7139   25.7821 O   0  0  0  0  0  0
    0.0171   52.0441   26.6948 C   0  0  0  0  0  0
   -0.2555   51.5315   27.9642 C   0  0  0  0  0  0
    0.5575   51.8776   29.0446 C   0  0  0  0  0  0
    1.6609   52.7154   28.8755 C   0  0  0  0  0  0
    1.9283   53.2470   27.6002 C   0  0  0  0  0  0
    1.1094   52.8975   26.5268 C   0  0  0  0  0  0
    2.9410   54.1529   27.3870 O   0  0  0  0  0  0
    4.2667   53.6770   27.5666 C   0  0  0  0  0  0
    4.6788   53.5756   29.0393 C   0  0  0  0  0  0
    3.8196   52.6128   29.8695 C   0  0  0  0  0  0
    2.4536   53.0094   29.9632 O   0  0  0  0  0  0
    6.9828   57.8627   16.5439 H   0  0  0  0  0  0
    5.8005   58.7067   15.5587 H   0  0  0  0  0  0
    6.2062   57.0347   15.1947 H   0  0  0  0  0  0
    4.8328   58.0347   17.7227 H   0  0  0  0  0  0
    2.7316   57.0308   16.8772 H   0  0  0  0  0  0
    3.3534   58.1987   15.7257 H   0  0  0  0  0  0
    3.5593   56.4780   15.4233 H   0  0  0  0  0  0
    7.2269   55.2852   16.8581 H   0  0  0  0  0  0
    2.9500   54.1521   20.0789 H   0  0  0  0  0  0
    3.3131   50.0088   21.2083 H   0  0  0  0  0  0
    1.5856   49.2483   22.7569 H   0  0  0  0  0  0
    0.5279   53.3554   23.5336 H   0  0  0  0  0  0
    2.2723   54.0991   22.0797 H   0  0  0  0  0  0
   -0.0636   49.7172   24.2934 H   0  0  0  0  0  0
   -1.0975   50.8668   28.1232 H   0  0  0  0  0  0
    0.3254   51.4905   30.0231 H   0  0  0  0  0  0
    1.3260   53.3302   25.5641 H   0  0  0  0  0  0
    4.9288   54.3820   27.0603 H   0  0  0  0  0  0
    4.4131   52.7296   27.0447 H   0  0  0  0  0  0
    4.6513   54.5677   29.4913 H   0  0  0  0  0  0
    5.7190   53.2533   29.0765 H   0  0  0  0  0  0
    4.2043   52.5798   30.8887 H   0  0  0  0  0  0
    3.9046   51.5887   29.5018 H   0  0  0  0  0  0
  1  2  1  0  0  0
  1 33  1  0  0  0
  1 34  1  0  0  0
  1 35  1  0  0  0
  2  3  1  0  0  0
  2  4  1  0  0  0
  2 36  1  0  0  0
  3 37  1  0  0  0
  3 38  1  0  0  0
  3 39  1  0  0  0
  4  8  1  0  0  0
  4  5  2  0  0  0
  5  6  1  0  0  0
  5 40  1  0  0  0
  6  7  1  0  0  0
  7  8  2  0  0  0
  7  9  1  0  0  0
  9 10  1  0  0  0
  9 41  1  0  0  0
 10 11  2  0  0  0
 10 12  1  0  0  0
 12 17  2  0  0  0
 12 13  1  0  0  0
 13 14  2  0  0  0
 13 42  1  0  0  0
 14 15  1  0  0  0
 14 43  1  0  0  0
 15 16  2  0  0  0
 15 18  1  0  0  0
 16 17  1  0  0  0
 16 44  1  0  0  0
 17 45  1  0  0  0
 18 19  1  0  0  0
 18 46  1  0  0  0
 19 20  2  0  0  0
 19 21  2  0  0  0
 19 22  1  0  0  0
 22 27  2  0  0  0
 22 23  1  0  0  0
 23 24  2  0  0  0
 23 47  1  0  0  0
 24 25  1  0  0  0
 24 48  1  0  0  0
 25 32  1  0  0  0
 25 26  2  0  0  0
 26 27  1  0  0  0
 26 28  1  0  0  0
 27 49  1  0  0  0
 28 29  1  0  0  0
 29 30  1  0  0  0
 29 50  1  0  0  0
 29 51  1  0  0  0
 30 31  1  0  0  0
 30 52  1  0  0  0
 30 53  1  0  0  0
 31 32  1  0  0  0
 31 54  1  0  0  0
 31 55  1  0  0  0
M  END
> <i_i_glide_confnum>
158

> <i_i_glide_lignum>
3250

> <i_i_glide_posenum>
219

> <i_i_glide_rotatable_bonds>
7

> <i_m_Source_File_Index>
1962

> <b_m_subgroup_collapsed>
0

> <r_i_docking_score>
-4.24491

> <r_i_glide_ecoul>
-6.03769

> <r_i_glide_eff_state_penalty>
0

> <r_i_glide_einternal>
2.02636

> <r_i_glide_emodel>
-55.9147

> <r_i_glide_energy>
-46.0096

> <r_i_glide_erotb>
0.541192

> <r_i_glide_esite>
-0.0747584

> <r_i_glide_evdw>
-39.9719

> <r_i_glide_gscore>
-4.24491

> <r_i_glide_hbond>
-0.344203

> <r_i_glide_ligand_efficiency>
-0.132653

> <r_i_glide_ligand_efficiency_ln>
-0.950551

> <r_i_glide_ligand_efficiency_sa>
-0.421148

> <r_i_glide_lipo>
-1.86662

> <r_i_glide_metal>
0

> <r_i_glide_rewards>
0.403729

> <s_i_glide_gridfile>
wee1_glide-grid

> <s_m_Source_File>
wee1_decoys_glide_SP.sdf

> <s_m_Source_Path>
/Users/zhangxujun/Desktop

> <s_m_entry_id>
2237

> <s_m_entry_name>
wee1_decoys_glide_SP.1962

> <s_m_subgroup_title>
wee1_decoys_glide_SP

> <s_m_subgroupid>
wee1_decoys_glide_SP


$$$$
