@<TRIPOS>MOLECULE
ZINC38656203_5856
41   44    1
SMALL
USER_CHARGES


@<TRIPOS>ATOM
      1 C1          0.2069   52.0111   27.0652 C.2       1 UNK         0.0000 
      2 C2          1.3434   52.4958   26.4118 C.2       1 UNK         0.0000 
      3 C3          1.9926   53.5509   27.0554 C.2       1 UNK         0.0000 
      4 S4          1.0631   53.9891   28.4781 S.3       1 UNK         0.0000 
      5 C5         -0.0738   52.7122   28.2203 C.2       1 UNK         0.0000 
      6 C6          3.2873   54.2872   26.6890 C.3       1 UNK         0.0000 
      7 H7          3.1039   55.3438   26.8609 H         1 UNK         0.0000 
      8 C8          3.7561   54.1851   25.2183 C.ar      1 UNK         0.0000 
      9 C9          2.8675   54.1744   24.1328 C.ar      1 UNK         0.0000 
     10 C10         3.3248   54.1075   22.8165 C.ar      1 UNK         0.0000 
     11 C11         4.6920   54.0965   22.5414 C.ar      1 UNK         0.0000 
     12 C12         5.5996   54.0982   23.6066 C.ar      1 UNK         0.0000 
     13 C13         5.1353   54.1475   24.9208 C.ar      1 UNK         0.0000 
     14 O14         6.1059   54.1357   25.9019 O.3       1 UNK         0.0000 
     15 C15         5.7252   53.9356   27.1850 C.2       1 UNK         0.0000 
     16 C16         4.4524   53.9498   27.6267 C.2       1 UNK         0.0000 
     17 C17         4.1797   53.6846   28.9998 C.1       1 UNK         0.0000 
     18 N18         3.9044   53.4534   30.0975 N.1       1 UNK         0.0000 
     19 N19         6.8487   53.6967   27.9244 N.pl3     1 UNK         0.0000 
     20 O20         5.1019   54.0318   21.2262 O.3       1 UNK         0.0000 
     21 C21         5.9107   54.9980   20.6795 C.2       1 UNK         0.0000 
     22 O22         6.3041   56.0037   21.2804 O.2       1 UNK         0.0000 
     23 C23         6.3090   54.6948   19.2653 C.ar      1 UNK         0.0000 
     24 C24         7.1939   55.5617   18.6066 C.ar      1 UNK         0.0000 
     25 C25         7.6008   55.2989   17.3014 C.ar      1 UNK         0.0000 
     26 C26         7.1288   54.1670   16.6443 C.ar      1 UNK         0.0000 
     27 C27         6.2500   53.2973   17.2824 C.ar      1 UNK         0.0000 
     28 C28         5.8386   53.5582   18.5864 C.ar      1 UNK         0.0000 
     29 F29         7.5258   53.9111   15.3785 F         1 UNK         0.0000 
     30 H30        -0.3812   51.1748   26.7132 H         1 UNK         0.0000 
     31 H31         1.7112   52.0597   25.4956 H         1 UNK         0.0000 
     32 H32        -0.8795   52.5397   28.9187 H         1 UNK         0.0000 
     33 H33         1.8023   54.2266   24.3056 H         1 UNK         0.0000 
     34 H34         2.6148   54.0989   22.0019 H         1 UNK         0.0000 
     35 H35         6.6619   54.0683   23.4145 H         1 UNK         0.0000 
     36 H36         6.8274   53.7549   28.9320 H         1 UNK         0.0000 
     37 H37         7.6678   53.2972   27.4926 H         1 UNK         0.0000 
     38 H38         7.5806   56.4431   19.0988 H         1 UNK         0.0000 
     39 H39         8.2833   55.9683   16.7984 H         1 UNK         0.0000 
     40 H40         5.8917   52.4146   16.7724 H         1 UNK         0.0000 
     41 H41         5.1615   52.8540   19.0516 H         1 UNK         0.0000 
@<TRIPOS>BOND
     1    1    5 2    
     2    1    2 1    
     3    1   30 1    
     4    2    3 2    
     5    2   31 1    
     6    3    4 1    
     7    3    6 1    
     8    4    5 1    
     9    5   32 1    
    10    6    7 1    
    11    6   16 1    
    12    6    8 1    
    13    8   13 ar   
    14    8    9 ar   
    15    9   10 ar   
    16    9   33 1    
    17   10   11 ar   
    18   10   34 1    
    19   11   12 ar   
    20   11   20 1    
    21   12   13 ar   
    22   12   35 1    
    23   13   14 1    
    24   14   15 1    
    25   15   16 2    
    26   15   19 1    
    27   16   17 1    
    28   17   18 3    
    29   19   36 1    
    30   19   37 1    
    31   20   21 1    
    32   21   22 2    
    33   21   23 1    
    34   23   28 ar   
    35   23   24 ar   
    36   24   25 ar   
    37   24   38 1    
    38   25   26 ar   
    39   25   39 1    
    40   26   27 ar   
    41   26   29 1    
    42   27   28 ar   
    43   27   40 1    
    44   28   41 1    
@<TRIPOS>SUBSTRUCTURE
     1 UNK         1 GROUP             0       ****    0 ROOT    
