ZINC15155873_5739
                    3D
 Schrodinger Suite 2024-2.
 82 84  0  0  1  0            999 V2000
    6.6914   54.8344   27.2817 C   0  0  0  0  0  0
    6.7034   54.8022   25.7483 C   0  0  0  0  0  0
    5.3153   54.5515   25.1327 C   0  0  0  0  0  0
    5.4085   54.1984   23.6396 C   0  0  0  0  0  0
    4.0370   53.9326   22.9800 C   0  0  0  0  0  0
    4.1616   53.1789   21.6512 C   0  0  0  0  0  0
    5.1040   53.3754   20.8830 O   0  0  0  0  0  0
    3.1896   52.2524   21.4904 O   0  0  0  0  0  0
    3.3135   51.1926   20.5380 C   0  0  1  0  0  0
    4.3199   50.7878   20.6545 H   0  0  0  0  0  0
    2.3013   50.0728   20.8570 C   0  0  0  0  0  0
    0.8824   50.2848   20.2251 C   0  0  2  0  0  0
    0.5852   51.2888   20.5306 H   0  0  0  0  0  0
   -0.2143   49.2586   20.7746 C   0  0  1  0  0  0
    0.0807   47.8449   20.1393 C   0  0  2  0  0  0
    1.0720   47.5453   20.4781 H   0  0  0  0  0  0
    0.1704   47.9085   18.6003 C   0  0  0  0  0  0
    1.3160   48.8299   18.1411 C   0  0  2  0  0  0
    2.2450   48.4652   18.5782 H   0  0  0  0  0  0
    1.0718   50.3051   18.6370 C   0  0  1  0  0  0
   -0.0192   50.9852   17.7546 C   0  0  2  0  0  0
   -0.7883   50.2547   17.5091 H   0  0  0  0  0  0
    0.6220   51.3663   16.5667 O   0  0  0  0  0  0
    1.9405   51.7075   16.8394 C   0  0  2  0  0  0
    2.5911   51.1785   16.1357 H   0  0  0  0  0  0
    2.1905   51.2718   18.2510 C   0  0  0  0  0  0
    3.1505   51.6771   19.1031 C   0  0  0  0  0  0
    2.1472   53.0919   16.7405 O   0  0  0  0  0  0
    2.1536   53.6294   15.4950 C   0  0  0  0  0  0
    2.0084   53.0358   14.4252 O   0  0  0  0  0  0
    2.3681   55.1351   15.5303 C   0  0  0  0  0  0
   -0.6287   52.0934   18.3755 O   0  0  0  0  0  0
   -1.6674   52.7271   17.7239 C   0  0  0  0  0  0
   -2.1113   53.8138   18.0816 O   0  0  0  0  0  0
   -2.3223   52.0213   16.5285 C   0  0  0  0  0  0
    1.5044   48.6915   16.7442 O   0  0  0  0  0  0
   -0.8960   46.7184   20.5548 C   0  0  0  0  0  0
   -0.0615   49.0864   22.3196 C   0  0  0  0  0  0
   -1.6520   49.7762   20.4336 C   0  0  0  0  0  0
   -2.0257   51.0458   21.2044 C   0  0  0  0  0  0
   -2.7804   51.1661   22.3231 C   0  0  0  0  0  0
   -3.4811   49.9797   22.9828 C   0  0  0  0  0  0
   -2.8955   52.4953   22.9152 C   0  0  0  0  0  0
   -3.6568   52.8167   23.9760 C   0  0  0  0  0  0
    7.7029   54.8978   27.6821 H   0  0  0  0  0  0
    6.1326   55.6894   27.6633 H   0  0  0  0  0  0
    6.2433   53.9286   27.6947 H   0  0  0  0  0  0
    7.3871   54.0175   25.4251 H   0  0  0  0  0  0
    7.1049   55.7400   25.3616 H   0  0  0  0  0  0
    4.6828   55.4278   25.2827 H   0  0  0  0  0  0
    4.8291   53.7265   25.6571 H   0  0  0  0  0  0
    6.0414   53.3121   23.5424 H   0  0  0  0  0  0
    5.9251   54.9941   23.1002 H   0  0  0  0  0  0
    3.4962   54.8645   22.8193 H   0  0  0  0  0  0
    3.4224   53.3292   23.6491 H   0  0  0  0  0  0
    2.2428   50.0325   21.9432 H   0  0  0  0  0  0
    2.7063   49.0967   20.6001 H   0  0  0  0  0  0
    0.3637   46.9077   18.2072 H   0  0  0  0  0  0
   -0.7937   48.1849   18.1741 H   0  0  0  0  0  0
    3.8780   52.3829   18.7300 H   0  0  0  0  0  0
    3.3381   55.3644   15.9699 H   0  0  0  0  0  0
    2.3355   55.5503   14.5227 H   0  0  0  0  0  0
    1.5925   55.6104   16.1298 H   0  0  0  0  0  0
   -2.6983   51.0391   16.8116 H   0  0  0  0  0  0
   -3.1676   52.6085   16.1661 H   0  0  0  0  0  0
   -1.6155   51.9165   15.7063 H   0  0  0  0  0  0
    2.4415   48.8964   16.5598 H   0  0  0  0  0  0
   -1.8999   46.8786   20.1623 H   0  0  0  0  0  0
   -0.5540   45.7549   20.1752 H   0  0  0  0  0  0
   -0.9738   46.6154   21.6363 H   0  0  0  0  0  0
    0.0229   50.0491   22.8243 H   0  0  0  0  0  0
   -0.9285   48.5890   22.7561 H   0  0  0  0  0  0
    0.8083   48.4969   22.6098 H   0  0  0  0  0  0
   -1.7926   49.9623   19.3748 H   0  0  0  0  0  0
   -2.3819   49.0014   20.6468 H   0  0  0  0  0  0
   -1.5862   51.9403   20.7879 H   0  0  0  0  0  0
   -3.1148   49.8585   24.0041 H   0  0  0  0  0  0
   -4.5468   50.1986   23.0775 H   0  0  0  0  0  0
   -3.3895   49.0267   22.4645 H   0  0  0  0  0  0
   -2.3190   53.2964   22.4814 H   0  0  0  0  0  0
   -4.2687   52.0878   24.4882 H   0  0  0  0  0  0
   -3.6792   53.8290   24.3528 H   0  0  0  0  0  0
  1  2  1  0  0  0
  1 45  1  0  0  0
  1 46  1  0  0  0
  1 47  1  0  0  0
  2  3  1  0  0  0
  2 48  1  0  0  0
  2 49  1  0  0  0
  3  4  1  0  0  0
  3 50  1  0  0  0
  3 51  1  0  0  0
  4  5  1  0  0  0
  4 52  1  0  0  0
  4 53  1  0  0  0
  5  6  1  0  0  0
  5 54  1  0  0  0
  5 55  1  0  0  0
  6  7  2  0  0  0
  6  8  1  0  0  0
  8  9  1  0  0  0
  9 10  1  0  0  0
  9 27  1  0  0  0
  9 11  1  0  0  0
 11 12  1  0  0  0
 11 56  1  0  0  0
 11 57  1  0  0  0
 12 13  1  0  0  0
 12 20  1  0  0  0
 12 14  1  0  0  0
 14 15  1  0  0  0
 14 38  1  0  0  0
 14 39  1  0  0  0
 15 16  1  0  0  0
 15 17  1  0  0  0
 15 37  1  0  0  0
 17 18  1  0  0  0
 17 58  1  0  0  0
 17 59  1  0  0  0
 18 19  1  0  0  0
 18 20  1  0  0  0
 18 36  1  0  0  0
 20 26  1  0  0  0
 20 21  1  0  0  0
 21 22  1  0  0  0
 21 23  1  0  0  0
 21 32  1  0  0  0
 23 24  1  0  0  0
 24 25  1  0  0  0
 24 26  1  0  0  0
 24 28  1  0  0  0
 26 27  2  0  0  0
 27 60  1  0  0  0
 28 29  1  0  0  0
 29 30  2  0  0  0
 29 31  1  0  0  0
 31 61  1  0  0  0
 31 62  1  0  0  0
 31 63  1  0  0  0
 32 33  1  0  0  0
 33 34  2  0  0  0
 33 35  1  0  0  0
 35 64  1  0  0  0
 35 65  1  0  0  0
 35 66  1  0  0  0
 36 67  1  0  0  0
 37 68  1  0  0  0
 37 69  1  0  0  0
 37 70  1  0  0  0
 38 71  1  0  0  0
 38 72  1  0  0  0
 38 73  1  0  0  0
 39 40  1  0  0  0
 39 74  1  0  0  0
 39 75  1  0  0  0
 40 41  2  0  0  0
 40 76  1  0  0  0
 41 42  1  0  0  0
 41 43  1  0  0  0
 42 77  1  0  0  0
 42 78  1  0  0  0
 42 79  1  0  0  0
 43 44  2  0  0  0
 43 80  1  0  0  0
 44 81  1  0  0  0
 44 82  1  0  0  0
M  END
> <i_i_glide_confnum>
55

> <i_i_glide_lignum>
5740

> <i_i_glide_posenum>
28

> <i_i_glide_rotatable_bonds>
14

> <i_m_Source_File_Index>
5225

> <b_m_subgroup_collapsed>
0

> <r_i_docking_score>
-0.710089

> <r_i_glide_ecoul>
-7.0732

> <r_i_glide_eff_state_penalty>
0

> <r_i_glide_einternal>
5.32845

> <r_i_glide_emodel>
-29.0355

> <r_i_glide_energy>
-38.3168

> <r_i_glide_erotb>
0.727005

> <r_i_glide_esite>
-0.0830222

> <r_i_glide_evdw>
-31.2436

> <r_i_glide_gscore>
-0.710089

> <r_i_glide_hbond>
-0.0613808

> <r_i_glide_ligand_efficiency>
-0.0186866

> <r_i_glide_ligand_efficiency_ln>
-0.153116

> <r_i_glide_ligand_efficiency_sa>
-0.0628238

> <r_i_glide_lipo>
-1.45187

> <r_i_glide_metal>
0

> <r_i_glide_rewards>
2.78234

> <s_i_glide_gridfile>
wee1_glide-grid

> <s_m_Source_File>
wee1_decoys_glide_SP.sdf

> <s_m_Source_Path>
/Users/zhangxujun/Desktop

> <s_m_entry_id>
5500

> <s_m_entry_name>
wee1_decoys_glide_SP.5225

> <s_m_subgroup_title>
wee1_decoys_glide_SP

> <s_m_subgroupid>
wee1_decoys_glide_SP


$$$$
