@<TRIPOS>MOLECULE
ZINC16080235_1171
66   69    1
SMALL
USER_CHARGES


@<TRIPOS>ATOM
      1 C1          6.0949   54.0280   28.3883 C.3       1 UNK         0.0000 
      2 S2          4.2973   53.7336   28.8835 S.o2      1 UNK         0.0000 
      3 O3          3.8173   54.8967   29.6329 O.2       1 UNK         0.0000 
      4 O4          4.2037   52.3904   29.4677 O.2       1 UNK         0.0000 
      5 C5          3.3794   53.7057   27.3451 C.ar      1 UNK         0.0000 
      6 C6          2.2487   52.8971   27.2513 C.ar      1 UNK         0.0000 
      7 C7          1.5711   52.7890   26.0397 C.ar      1 UNK         0.0000 
      8 C8          2.0404   53.4683   24.9120 C.ar      1 UNK         0.0000 
      9 C9          3.1084   54.3589   25.0405 C.ar      1 UNK         0.0000 
     10 C10         3.7884   54.4706   26.2503 C.ar      1 UNK         0.0000 
     11 C11         1.3510   53.2832   23.5643 C.3       1 UNK         0.0000 
     12 N12         1.8719   52.1434   22.7624 N.am      1 UNK         0.0000 
     13 C13         2.8689   52.4330   21.6902 C.3       1 UNK         0.0000 
     14 C14         3.7122   53.7432   21.7695 C.3       1 UNK         0.0000 
     15 C15         4.6764   53.9755   20.5856 C.3       1 UNK         0.0000 
     16 C16         3.3755   52.3614   19.1631 C.3       1 UNK         0.0000 
     17 C17         2.3250   52.1709   20.2590 C.3       1 UNK         0.0000 
     18 C18         4.8152   54.1209   18.0498 C.3       1 UNK         0.0000 
     19 C19         4.8177   55.5956   17.6817 C.ar      1 UNK         0.0000 
     20 C20         5.9174   56.4056   17.9861 C.ar      1 UNK         0.0000 
     21 C21         5.9247   57.7430   17.5866 C.ar      1 UNK         0.0000 
     22 C22         4.8382   58.2599   16.8819 C.ar      1 UNK         0.0000 
     23 C23         3.7354   57.4606   16.5874 C.ar      1 UNK         0.0000 
     24 C24         3.7261   56.1273   16.9881 C.ar      1 UNK         0.0000 
     25 C25         1.4974   50.8412   22.9751 C.2       1 UNK         0.0000 
     26 O26         2.0351   49.8925   22.3951 O.2       1 UNK         0.0000 
     27 N27         0.4216   50.6592   23.7720 N.am      1 UNK         0.0000 
     28 C28        -0.3196   49.4720   23.8709 C.ar      1 UNK         0.0000 
     29 C29        -0.5019   48.9048   25.1365 C.ar      1 UNK         0.0000 
     30 C30        -1.2954   47.7674   25.2816 C.ar      1 UNK         0.0000 
     31 C31        -1.9137   47.1954   24.1734 C.ar      1 UNK         0.0000 
     32 C32        -1.7436   47.7612   22.9099 C.ar      1 UNK         0.0000 
     33 C33        -0.9567   48.8997   22.7544 C.ar      1 UNK         0.0000 
     34 F34        -0.8411   49.4543   21.5248 F         1 UNK         0.0000 
     35 F35        -2.6881   46.0971   24.3215 F         1 UNK         0.0000 
     36 H36         6.7232   53.9535   29.2741 H         1 UNK         0.0000 
     37 H37         6.3872   53.2726   27.6588 H         1 UNK         0.0000 
     38 H38         6.1956   55.0289   27.9744 H         1 UNK         0.0000 
     39 H39         1.9113   52.3273   28.1052 H         1 UNK         0.0000 
     40 H40         0.7168   52.1336   25.9826 H         1 UNK         0.0000 
     41 H41         3.4275   54.9549   24.2013 H         1 UNK         0.0000 
     42 H42         4.6323   55.1423   26.3214 H         1 UNK         0.0000 
     43 H43         1.4029   54.2117   22.9974 H         1 UNK         0.0000 
     44 H44         0.2821   53.1631   23.7487 H         1 UNK         0.0000 
     45 H45         3.6369   51.6635   21.8098 H         1 UNK         0.0000 
     46 H46         3.0654   54.6179   21.8088 H         1 UNK         0.0000 
     47 H47         4.3175   53.7156   22.6722 H         1 UNK         0.0000 
     48 H48         5.5028   53.2623   20.5787 H         1 UNK         0.0000 
     49 H49         5.0702   54.9949   20.5977 H         1 UNK         0.0000 
     50 H50         4.2310   51.6967   19.2824 H         1 UNK         0.0000 
     51 H51         2.9242   52.2241   18.1781 H         1 UNK         0.0000 
     52 H52         1.9460   51.1508   20.1719 H         1 UNK         0.0000 
     53 H53         1.4812   52.8366   20.0625 H         1 UNK         0.0000 
     54 H54         5.8108   53.7362   18.2788 H         1 UNK         0.0000 
     55 H55         4.4336   53.5487   17.2011 H         1 UNK         0.0000 
     56 H56         6.7679   56.0032   18.5187 H         1 UNK         0.0000 
     57 H57         6.7687   58.3828   17.8077 H         1 UNK         0.0000 
     58 H58         4.8484   59.2968   16.5727 H         1 UNK         0.0000 
     59 H59         2.8951   57.8766   16.0487 H         1 UNK         0.0000 
     60 H60         2.8739   55.5048   16.7474 H         1 UNK         0.0000 
     61 H61         0.0768   51.4452   24.2982 H         1 UNK         0.0000 
     62 H62        -0.0373   49.3326   26.0122 H         1 UNK         0.0000 
     63 H63        -1.4234   47.3295   26.2651 H         1 UNK         0.0000 
     64 H64        -2.2301   47.3199   22.0555 H         1 UNK         0.0000 
     65 N65         3.9043   53.8045   19.2616 N.4       1 UNK         0.0000 
     66 H66         3.1229   54.4481   19.2275 H         1 UNK         0.0000 
@<TRIPOS>BOND
     1    1    2 1    
     2    1   36 1    
     3    1   37 1    
     4    1   38 1    
     5    2    3 2    
     6    2    4 2    
     7    2    5 1    
     8    5   10 ar   
     9    5    6 ar   
    10    6    7 ar   
    11    6   39 1    
    12    7    8 ar   
    13    7   40 1    
    14    8    9 ar   
    15    8   11 1    
    16    9   10 ar   
    17    9   41 1    
    18   10   42 1    
    19   11   12 1    
    20   11   43 1    
    21   11   44 1    
    22   12   13 1    
    23   12   25 am   BACKBONE|DICT|INTERRES
    24   13   17 1    
    25   13   14 1    
    26   13   45 1    
    27   14   15 1    
    28   14   46 1    
    29   14   47 1    
    30   15   48 1    
    31   15   49 1    
    32   15   65 1    
    33   16   17 1    
    34   16   50 1    
    35   16   51 1    
    36   16   65 1    
    37   17   52 1    
    38   17   53 1    
    39   18   19 1    
    40   18   54 1    
    41   18   55 1    
    42   18   65 1    
    43   19   24 ar   
    44   19   20 ar   
    45   20   21 ar   
    46   20   56 1    
    47   21   22 ar   
    48   21   57 1    
    49   22   23 ar   
    50   22   58 1    
    51   23   24 ar   
    52   23   59 1    
    53   24   60 1    
    54   25   26 2    
    55   25   27 am   BACKBONE|DICT|INTERRES
    56   27   28 1    
    57   27   61 1    
    58   28   33 ar   
    59   28   29 ar   
    60   29   30 ar   
    61   29   62 1    
    62   30   31 ar   
    63   30   63 1    
    64   31   32 ar   
    65   31   35 1    
    66   32   33 ar   
    67   32   64 1    
    68   33   34 1    
    69   65   66 1    
@<TRIPOS>SUBSTRUCTURE
     1 UNK         1 GROUP             0       ****    0 ROOT    
