ZINC35383430_5686
                    3D
 Schrodinger Suite 2024-2.
 82 84  0  0  1  0            999 V2000
   -2.9566   51.8963   24.3449 C   0  0  0  0  0  0
   -1.7127   51.0688   24.5879 C   0  0  0  0  0  0
   -1.5992   50.1279   25.6238 C   0  0  0  0  0  0
   -0.3700   49.5017   25.6820 C   0  0  0  0  0  0
    0.7009   50.1098   24.4820 S   0  0  0  0  0  0
   -0.5125   51.2221   23.8791 C   0  0  0  0  0  0
   -0.2378   52.1465   22.6969 C   0  0  0  0  0  0
    0.6578   51.5501   21.6841 N   0  0  0  0  0  0
    0.0867   50.3955   20.9634 C   0  0  0  0  0  0
   -1.1993   50.7309   20.2192 C   0  0  0  0  0  0
   -2.4022   50.1315   20.6003 C   0  0  0  0  0  0
   -3.5791   50.4569   19.9314 C   0  0  0  0  0  0
   -3.5474   51.3721   18.8824 C   0  0  0  0  0  0
   -2.3507   51.9688   18.4966 C   0  0  0  0  0  0
   -1.1729   51.6450   19.1635 C   0  0  0  0  0  0
   -4.6916   51.6964   18.2424 F   0  0  0  0  0  0
    1.9978   51.7728   21.6877 C   0  0  0  0  0  0
    2.8039   50.9438   21.2623 O   0  0  0  0  0  0
    2.4969   53.1393   22.2114 C   0  0  0  0  0  0
    3.9525   53.3743   22.0396 N   0  0  0  0  0  0
    4.5425   53.2622   20.6847 C   0  0  0  0  0  0
    4.7064   54.6108   19.9678 C   0  0  0  0  0  0
    5.5077   54.4184   18.6620 N   0  3  0  0  0  0
    4.8065   53.5472   17.6004 C   0  0  0  0  0  0
    5.5144   53.9093   16.2963 C   0  0  0  0  0  0
    6.0665   55.3272   16.4715 C   0  0  0  0  0  0
    5.7956   55.7394   17.9215 C   0  0  0  0  0  0
    4.7587   53.6967   23.0910 C   0  0  0  0  0  0
    5.9747   53.8404   22.9490 O   0  0  0  0  0  0
    4.1222   53.8348   24.5014 C   0  0  0  0  0  0
    5.0047   54.1483   25.7516 C   0  0  1  0  0  0
    5.6462   53.2898   25.9404 H   0  0  0  0  0  0
    5.9128   55.3919   25.5510 C   0  0  0  0  0  0
    4.0287   54.3116   26.9675 C   0  0  0  0  0  0
    4.4867   54.0314   28.4360 C   0  0  0  0  0  0
    3.3954   54.5725   29.3887 C   0  0  0  0  0  0
    5.8182   54.7149   28.7931 C   0  0  0  0  0  0
    4.6324   52.5185   28.6932 C   0  0  0  0  0  0
   -3.5713   51.9891   25.2413 H   0  0  0  0  0  0
   -2.7161   52.9175   24.0473 H   0  0  0  0  0  0
   -3.5732   51.4713   23.5515 H   0  0  0  0  0  0
   -2.4014   49.8923   26.3082 H   0  0  0  0  0  0
   -0.0582   48.7354   26.3805 H   0  0  0  0  0  0
    0.1468   53.0937   23.0709 H   0  0  0  0  0  0
   -1.1669   52.4264   22.2021 H   0  0  0  0  0  0
    0.7907   50.0008   20.2270 H   0  0  0  0  0  0
   -0.0835   49.5789   21.6667 H   0  0  0  0  0  0
   -2.4260   49.4246   21.4178 H   0  0  0  0  0  0
   -4.5153   50.0045   20.2256 H   0  0  0  0  0  0
   -2.3384   52.6742   17.6783 H   0  0  0  0  0  0
   -0.2417   52.1055   18.8648 H   0  0  0  0  0  0
    2.1658   53.2203   23.2400 H   0  0  0  0  0  0
    1.9604   53.9214   21.6815 H   0  0  0  0  0  0
    5.5030   52.7444   20.7410 H   0  0  0  0  0  0
    3.9154   52.6403   20.0487 H   0  0  0  0  0  0
    3.7453   55.0461   19.6820 H   0  0  0  0  0  0
    5.2782   55.3265   20.5628 H   0  0  0  0  0  0
    4.8819   52.4967   17.8904 H   0  0  0  0  0  0
    3.7538   53.8379   17.6000 H   0  0  0  0  0  0
    6.3200   53.1968   16.1020 H   0  0  0  0  0  0
    4.8274   53.8455   15.4504 H   0  0  0  0  0  0
    5.5850   56.0246   15.7843 H   0  0  0  0  0  0
    7.1362   55.3554   16.2563 H   0  0  0  0  0  0
    4.8909   56.3494   18.0058 H   0  0  0  0  0  0
    6.6160   56.2535   18.4278 H   0  0  0  0  0  0
    3.5531   52.9235   24.7136 H   0  0  0  0  0  0
    3.4014   54.6503   24.4110 H   0  0  0  0  0  0
    5.3236   56.2910   25.3788 H   0  0  0  0  0  0
    6.5726   55.5751   26.3923 H   0  0  0  0  0  0
    6.5969   55.2938   24.7116 H   0  0  0  0  0  0
    3.1740   53.6488   26.8084 H   0  0  0  0  0  0
    3.5750   55.2973   26.9074 H   0  0  0  0  0  0
    3.6493   54.3783   30.4318 H   0  0  0  0  0  0
    2.4268   54.1064   29.1983 H   0  0  0  0  0  0
    3.2667   55.6514   29.2821 H   0  0  0  0  0  0
    6.6861   54.1392   28.4668 H   0  0  0  0  0  0
    5.9005   55.6967   28.3497 H   0  0  0  0  0  0
    5.9045   54.8968   29.8644 H   0  0  0  0  0  0
    5.4276   52.0968   28.0815 H   0  0  0  0  0  0
    4.8878   52.3049   29.7315 H   0  0  0  0  0  0
    3.7073   51.9816   28.4786 H   0  0  0  0  0  0
    6.3892   53.9808   18.8981 H   0  0  0  0  0  0
  1  2  1  0  0  0
  1 39  1  0  0  0
  1 40  1  0  0  0
  1 41  1  0  0  0
  2  6  2  0  0  0
  2  3  1  0  0  0
  3  4  2  0  0  0
  3 42  1  0  0  0
  4  5  1  0  0  0
  4 43  1  0  0  0
  5  6  1  0  0  0
  6  7  1  0  0  0
  7  8  1  0  0  0
  7 44  1  0  0  0
  7 45  1  0  0  0
  8  9  1  0  0  0
  8 17  1  0  0  0
  9 10  1  0  0  0
  9 46  1  0  0  0
  9 47  1  0  0  0
 10 15  2  0  0  0
 10 11  1  0  0  0
 11 12  2  0  0  0
 11 48  1  0  0  0
 12 13  1  0  0  0
 12 49  1  0  0  0
 13 14  2  0  0  0
 13 16  1  0  0  0
 14 15  1  0  0  0
 14 50  1  0  0  0
 15 51  1  0  0  0
 17 18  2  0  0  0
 17 19  1  0  0  0
 19 20  1  0  0  0
 19 52  1  0  0  0
 19 53  1  0  0  0
 20 21  1  0  0  0
 20 28  1  0  0  0
 21 22  1  0  0  0
 21 54  1  0  0  0
 21 55  1  0  0  0
 22 23  1  0  0  0
 22 56  1  0  0  0
 22 57  1  0  0  0
 23 27  1  0  0  0
 23 24  1  0  0  0
 23 82  1  0  0  0
 24 25  1  0  0  0
 24 58  1  0  0  0
 24 59  1  0  0  0
 25 26  1  0  0  0
 25 60  1  0  0  0
 25 61  1  0  0  0
 26 27  1  0  0  0
 26 62  1  0  0  0
 26 63  1  0  0  0
 27 64  1  0  0  0
 27 65  1  0  0  0
 28 29  2  0  0  0
 28 30  1  0  0  0
 30 31  1  0  0  0
 30 66  1  0  0  0
 30 67  1  0  0  0
 31 32  1  0  0  0
 31 33  1  0  0  0
 31 34  1  0  0  0
 33 68  1  0  0  0
 33 69  1  0  0  0
 33 70  1  0  0  0
 34 35  1  0  0  0
 34 71  1  0  0  0
 34 72  1  0  0  0
 35 36  1  0  0  0
 35 37  1  0  0  0
 35 38  1  0  0  0
 36 73  1  0  0  0
 36 74  1  0  0  0
 36 75  1  0  0  0
 37 76  1  0  0  0
 37 77  1  0  0  0
 37 78  1  0  0  0
 38 79  1  0  0  0
 38 80  1  0  0  0
 38 81  1  0  0  0
M  CHG  1  23   1
M  END
> <i_i_glide_confnum>
487

> <i_i_glide_lignum>
5687

> <i_i_glide_posenum>
324

> <i_i_glide_rotatable_bonds>
15

> <i_m_Source_File_Index>
1538

> <b_m_subgroup_collapsed>
0

> <r_i_docking_score>
-3.4978

> <r_i_glide_ecoul>
-3.95613

> <r_i_glide_eff_state_penalty>
0

> <r_i_glide_einternal>
13.0732

> <r_i_glide_emodel>
-45.4677

> <r_i_glide_energy>
-42.1285

> <r_i_glide_erotb>
0.878178

> <r_i_glide_esite>
-0.0156101

> <r_i_glide_evdw>
-38.1724

> <r_i_glide_gscore>
-3.4978

> <r_i_glide_hbond>
0

> <r_i_glide_ligand_efficiency>
-0.0945353

> <r_i_glide_ligand_efficiency_ln>
-0.758592

> <r_i_glide_ligand_efficiency_sa>
-0.315012

> <r_i_glide_lipo>
-1.67614

> <r_i_glide_metal>
0

> <r_i_glide_rewards>
-0.182193

> <s_i_glide_gridfile>
wee1_glide-grid

> <s_m_Source_File>
wee1_decoys_glide_SP.sdf

> <s_m_Source_Path>
/Users/zhangxujun/Desktop

> <s_m_entry_id>
1813

> <s_m_entry_name>
wee1_decoys_glide_SP.1538

> <s_m_subgroup_title>
wee1_decoys_glide_SP

> <s_m_subgroupid>
wee1_decoys_glide_SP


$$$$
