@<TRIPOS>MOLECULE
ZINC39466804_5348
58   62    1
SMALL
USER_CHARGES


@<TRIPOS>ATOM
      1 C1         -6.5039   51.1935   31.1545 C.ar      1 UNK         0.0000 
      2 C2         -5.3025   50.4961   31.2636 C.ar      1 UNK         0.0000 
      3 C3         -4.4943   50.3415   30.1414 C.ar      1 UNK         0.0000 
      4 C4         -4.8814   50.8934   28.9173 C.ar      1 UNK         0.0000 
      5 C5         -6.0884   51.5889   28.8132 C.ar      1 UNK         0.0000 
      6 C6         -6.9020   51.7382   29.9343 C.ar      1 UNK         0.0000 
      7 C7         -3.9726   50.7486   27.7069 C.3       1 UNK         0.0000 
      8 P8         -4.3877   49.3149   26.6215 P.3       1 UNK         0.0000 
      9 O9         -5.2835   48.2826   27.2067 O.2       1 UNK         0.0000 
     10 N10        -2.8966   48.7480   26.0816 N.pl3     1 UNK         0.0000 
     11 N11        -2.0797   49.6377   25.2976 N.4       1 UNK         0.0000 
     12 C12        -0.6496   49.0880   25.1324 C.3       1 UNK         0.0000 
     13 C13         0.2232   49.9658   24.2034 C.3       1 UNK         0.0000 
     14 H14         1.0874   49.3464   23.9462 H         1 UNK         0.0000 
     15 C15         0.8193   51.2218   24.8569 C.2       1 UNK         0.0000 
     16 C16         1.3343   52.2321   24.1170 C.2       1 UNK         0.0000 
     17 C17         1.2160   52.1896   22.6604 C.2       1 UNK         0.0000 
     18 C18         0.3811   51.3089   22.0666 C.2       1 UNK         0.0000 
     19 C19        -0.4954   50.3293   22.8576 C.3       1 UNK         0.0000 
     20 H20        -0.6048   49.4086   22.2804 H         1 UNK         0.0000 
     21 C21        -1.8881   50.9375   23.1281 C.3       1 UNK         0.0000 
     22 C22        -2.7958   50.0201   23.9785 C.3       1 UNK         0.0000 
     23 H23        -2.9655   49.0643   23.4781 H         1 UNK         0.0000 
     24 C24        -4.1495   50.6967   24.3334 C.3       1 UNK         0.0000 
     25 O25        -4.9635   49.9252   25.2158 O.3       1 UNK         0.0000 
     26 Cl26        2.2217   53.2069   21.6275 Cl        1 UNK         0.0000 
     27 S27         1.9942   53.7007   24.9618 S.3       1 UNK         0.0000 
     28 O28         1.8560   54.8660   24.0815 O.2       1 UNK         0.0000 
     29 O29         1.5041   53.6976   26.3434 O.2       1 UNK         0.0000 
     30 O30         3.5935   53.2966   25.0610 O.3       1 UNK         0.0000 
     31 C31         4.5822   54.1019   24.5947 C.ar      1 UNK         0.0000 
     32 C32         5.1930   54.9795   25.4830 C.ar      1 UNK         0.0000 
     33 C33         6.3052   55.6972   25.0681 C.ar      1 UNK         0.0000 
     34 C34         6.7771   55.5337   23.7685 C.ar      1 UNK         0.0000 
     35 C35         6.1847   54.6404   22.8846 C.ar      1 UNK         0.0000 
     36 C36         5.0801   53.9145   23.3057 C.ar      1 UNK         0.0000 
     37 H37        -7.1336   51.3068   32.0250 H         1 UNK         0.0000 
     38 H38        -4.9924   50.0870   32.2151 H         1 UNK         0.0000 
     39 H39        -3.5638   49.7982   30.2274 H         1 UNK         0.0000 
     40 H40        -6.3954   52.0088   27.8663 H         1 UNK         0.0000 
     41 H41        -7.8398   52.2689   29.8568 H         1 UNK         0.0000 
     42 H42        -3.9783   51.6725   27.1312 H         1 UNK         0.0000 
     43 H43        -2.9480   50.6265   28.0635 H         1 UNK         0.0000 
     44 H44        -2.3611   48.2751   26.8243 H         1 UNK         0.0000 
     45 H45        -0.2420   49.0067   26.1427 H         1 UNK         0.0000 
     46 H46        -0.7528   48.0748   24.7421 H         1 UNK         0.0000 
     47 H47         0.8748   51.2830   25.9354 H         1 UNK         0.0000 
     48 H48         0.3360   51.2964   20.9865 H         1 UNK         0.0000 
     49 H49        -1.7674   51.8914   23.6472 H         1 UNK         0.0000 
     50 H50        -2.3807   51.1446   22.1760 H         1 UNK         0.0000 
     51 H51        -3.9889   51.6799   24.7799 H         1 UNK         0.0000 
     52 H52        -4.7270   50.8735   23.4244 H         1 UNK         0.0000 
     53 H53         4.8199   55.0799   26.4918 H         1 UNK         0.0000 
     54 H54         6.7907   56.3843   25.7426 H         1 UNK         0.0000 
     55 H55         7.6377   56.0953   23.4399 H         1 UNK         0.0000 
     56 H56         6.5818   54.5109   21.8886 H         1 UNK         0.0000 
     57 H57         4.6441   53.1784   22.6511 H         1 UNK         0.0000 
     58 H58        -2.0087   50.4809   25.8494 H         1 UNK         0.0000 
@<TRIPOS>BOND
     1    1    6 ar   
     2    1    2 ar   
     3    1   37 1    
     4    2    3 ar   
     5    2   38 1    
     6    3    4 ar   
     7    3   39 1    
     8    4    5 ar   
     9    4    7 1    
    10    5    6 ar   
    11    5   40 1    
    12    6   41 1    
    13    7    8 1    
    14    7   42 1    
    15    7   43 1    
    16    8   25 1    
    17    8    9 2    
    18    8   10 1    
    19   10   11 1    
    20   10   44 1    
    21   11   22 1    
    22   11   12 1    
    23   11   58 1    
    24   12   13 1    
    25   12   45 1    
    26   12   46 1    
    27   13   14 1    
    28   13   19 1    
    29   13   15 1    
    30   15   16 2    
    31   15   47 1    
    32   16   17 1    
    33   16   27 1    
    34   17   18 2    
    35   17   26 1    
    36   18   19 1    
    37   18   48 1    
    38   19   20 1    
    39   19   21 1    
    40   21   22 1    
    41   21   49 1    
    42   21   50 1    
    43   22   23 1    
    44   22   24 1    
    45   24   25 1    
    46   24   51 1    
    47   24   52 1    
    48   27   28 2    
    49   27   29 2    
    50   27   30 1    
    51   30   31 1    
    52   31   36 ar   
    53   31   32 ar   
    54   32   33 ar   
    55   32   53 1    
    56   33   34 ar   
    57   33   54 1    
    58   34   35 ar   
    59   34   55 1    
    60   35   36 ar   
    61   35   56 1    
    62   36   57 1    
@<TRIPOS>SUBSTRUCTURE
     1 UNK         1 GROUP             0       ****    0 ROOT    
