@<TRIPOS>MOLECULE
ZINC09375412_3723
56   59    1
SMALL
USER_CHARGES


@<TRIPOS>ATOM
      1 C1          1.5669   53.1515   23.6265 C.3       1 UNK         0.0000 
      2 C2          2.1638   53.3834   25.0130 C.2       1 UNK         0.0000 
      3 C3          1.7187   52.8969   26.2139 C.2       1 UNK         0.0000 
      4 C4          2.5417   53.1021   27.5238 C.3       1 UNK         0.0000 
      5 H5          2.9868   52.1306   27.7482 H         1 UNK         0.0000 
      6 C6          3.7330   54.0451   27.2765 C.2       1 UNK         0.0000 
      7 C7          4.1039   54.4262   26.0397 C.2       1 UNK         0.0000 
      8 N8          3.3489   54.0860   24.9454 N.pl3     1 UNK         0.0000 
      9 S9          5.5435   55.4119   25.6624 S.3       1 UNK         0.0000 
     10 C10         6.5162   54.3335   24.5748 C.3       1 UNK         0.0000 
     11 C11         6.1720   54.4960   23.0974 C.2       1 UNK         0.0000 
     12 O12         5.1056   54.0482   22.6761 O.2       1 UNK         0.0000 
     13 N13         7.1043   55.1191   22.3486 N.am      1 UNK         0.0000 
     14 C14         7.0732   55.4173   20.9755 C.ar      1 UNK         0.0000 
     15 C15         5.9050   55.4567   20.2003 C.ar      1 UNK         0.0000 
     16 C16         5.9776   55.7641   18.8435 C.ar      1 UNK         0.0000 
     17 C17         7.2127   56.0326   18.2608 C.ar      1 UNK         0.0000 
     18 C18         8.3761   55.9989   19.0242 C.ar      1 UNK         0.0000 
     19 C19         8.3043   55.6966   20.3797 C.ar      1 UNK         0.0000 
     20 F20         7.2821   56.3318   16.9450 F         1 UNK         0.0000 
     21 C21         4.4943   54.4925   28.3932 C.1       1 UNK         0.0000 
     22 N22         5.1042   54.8964   29.2826 N.1       1 UNK         0.0000 
     23 C23         1.7326   53.5515   28.7429 C.2       1 UNK         0.0000 
     24 C24         1.4170   54.7854   29.3031 C.2       1 UNK         0.0000 
     25 C25         0.7029   54.5339   30.4756 C.2       1 UNK         0.0000 
     26 C26         0.5889   53.1590   30.5745 C.2       1 UNK         0.0000 
     27 O27         1.2253   52.5664   29.5322 O.3       1 UNK         0.0000 
     28 C28         0.5443   52.0459   26.3499 C.2       1 UNK         0.0000 
     29 O29         0.5858   51.0319   27.0424 O.2       1 UNK         0.0000 
     30 N30        -0.5596   52.4930   25.7113 N.am      1 UNK         0.0000 
     31 C31        -1.8612   51.9552   25.6881 C.ar      1 UNK         0.0000 
     32 C32        -2.7374   52.5124   24.7535 C.ar      1 UNK         0.0000 
     33 C33        -4.0543   52.0658   24.6710 C.ar      1 UNK         0.0000 
     34 C34        -4.4961   51.0571   25.5235 C.ar      1 UNK         0.0000 
     35 C35        -3.6344   50.4953   26.4606 C.ar      1 UNK         0.0000 
     36 C36        -2.3183   50.9404   26.5464 C.ar      1 UNK         0.0000 
     37 F37        -5.7744   50.6261   25.4441 F         1 UNK         0.0000 
     38 H38         1.0121   54.0342   23.3060 H         1 UNK         0.0000 
     39 H39         2.3519   52.9624   22.8912 H         1 UNK         0.0000 
     40 H40         0.9053   52.2869   23.5852 H         1 UNK         0.0000 
     41 H41         3.7308   54.2873   24.0282 H         1 UNK         0.0000 
     42 H42         6.3785   53.2970   24.8743 H         1 UNK         0.0000 
     43 H43         7.5649   54.5678   24.7384 H         1 UNK         0.0000 
     44 H44         7.9904   55.3062   22.8061 H         1 UNK         0.0000 
     45 H45         4.9332   55.2622   20.6236 H         1 UNK         0.0000 
     46 H46         5.0791   55.7942   18.2449 H         1 UNK         0.0000 
     47 H47         9.3316   56.2058   18.5659 H         1 UNK         0.0000 
     48 H48         9.2166   55.6776   20.9580 H         1 UNK         0.0000 
     49 H49         1.6949   55.7530   28.9122 H         1 UNK         0.0000 
     50 H50         0.3101   55.2664   31.1661 H         1 UNK         0.0000 
     51 H51         0.1202   52.4986   31.2928 H         1 UNK         0.0000 
     52 H52        -0.4226   53.3111   25.1411 H         1 UNK         0.0000 
     53 H53        -2.4054   53.2955   24.0884 H         1 UNK         0.0000 
     54 H54        -4.7346   52.4969   23.9526 H         1 UNK         0.0000 
     55 H55        -3.9777   49.7114   27.1202 H         1 UNK         0.0000 
     56 H56        -1.6875   50.4875   27.2949 H         1 UNK         0.0000 
@<TRIPOS>BOND
     1    1    2 1    
     2    1   38 1    
     3    1   39 1    
     4    1   40 1    
     5    2    8 1    
     6    2    3 2    
     7    3    4 1    
     8    3   28 1    
     9    4    5 1    
    10    4    6 1    
    11    4   23 1    
    12    6    7 2    
    13    6   21 1    
    14    7    8 1    
    15    7    9 1    
    16    8   41 1    
    17    9   10 1    
    18   10   11 1    
    19   10   42 1    
    20   10   43 1    
    21   11   12 2    
    22   11   13 am   BACKBONE|DICT|INTERRES
    23   13   14 1    
    24   13   44 1    
    25   14   19 ar   
    26   14   15 ar   
    27   15   16 ar   
    28   15   45 1    
    29   16   17 ar   
    30   16   46 1    
    31   17   18 ar   
    32   17   20 1    
    33   18   19 ar   
    34   18   47 1    
    35   19   48 1    
    36   21   22 3    
    37   23   27 1    
    38   23   24 2    
    39   24   25 1    
    40   24   49 1    
    41   25   26 2    
    42   25   50 1    
    43   26   27 1    
    44   26   51 1    
    45   28   29 2    
    46   28   30 am   BACKBONE|DICT|INTERRES
    47   30   31 1    
    48   30   52 1    
    49   31   36 ar   
    50   31   32 ar   
    51   32   33 ar   
    52   32   53 1    
    53   33   34 ar   
    54   33   54 1    
    55   34   35 ar   
    56   34   37 1    
    57   35   36 ar   
    58   35   55 1    
    59   36   56 1    
@<TRIPOS>SUBSTRUCTURE
     1 UNK         1 GROUP             0       ****    0 ROOT    
