@<TRIPOS>MOLECULE
ZINC04964123_4108
71   74    1
SMALL
USER_CHARGES


@<TRIPOS>ATOM
      1 C1         -2.8542   49.1615   18.6885 C.3       1 UNK         0.0000 
      2 C2         -2.2195   49.8595   19.9152 C.3       1 UNK         0.0000 
      3 H3         -1.7895   50.7697   19.5008 H         1 UNK         0.0000 
      4 C4         -3.2878   50.2823   20.9603 C.3       1 UNK         0.0000 
      5 C5         -2.6248   50.0621   22.3272 C.3       1 UNK         0.0000 
      6 H6         -1.9102   50.8697   22.4404 H         1 UNK         0.0000 
      7 C7         -3.4816   50.0848   23.6417 C.3       1 UNK         0.0000 
      8 H8         -4.2613   49.3332   23.5135 H         1 UNK         0.0000 
      9 C9         -4.2175   51.4204   23.8453 C.3       1 UNK         0.0000 
     10 C10        -3.2418   52.6063   24.0570 C.3       1 UNK         0.0000 
     11 H11        -3.7334   53.3923   24.6300 H         1 UNK         0.0000 
     12 C12        -1.9408   52.1802   24.7532 C.2       1 UNK         0.0000 
     13 C13        -0.7533   52.7915   24.4967 C.2       1 UNK         0.0000 
     14 C14         0.5156   52.4965   25.1543 C.2       1 UNK         0.0000 
     15 O15         1.5607   53.0880   24.8929 O.2       1 UNK         0.0000 
     16 C16         0.4020   51.4740   26.1834 C.2       1 UNK         0.0000 
     17 C17        -0.7351   50.8048   26.4570 C.2       1 UNK         0.0000 
     18 C18        -2.0915   51.0007   25.7517 C.3       1 UNK         0.0000 
     19 C19        -2.6801   49.7141   24.9644 C.3       1 UNK         0.0000 
     20 C20        -1.7167   48.5033   24.6604 C.3       1 UNK         0.0000 
     21 H21        -2.3459   47.6229   24.5526 H         1 UNK         0.0000 
     22 C22        -0.8812   48.6829   23.3730 C.3       1 UNK         0.0000 
     23 C23        -1.7983   48.7759   22.1219 C.3       1 UNK         0.0000 
     24 C24        -1.1231   49.0326   20.7054 C.3       1 UNK         0.0000 
     25 C25         0.2402   49.8334   20.7622 C.2       1 UNK         0.0000 
     26 O26         1.3089   49.2803   20.4782 O.2       1 UNK         0.0000 
     27 C27         0.2495   51.3366   21.1521 C.3       1 UNK         0.0000 
     28 O28         1.4035   52.0310   20.6585 O.3       1 UNK         0.0000 
     29 C29         2.5772   52.0449   21.3503 C.2       1 UNK         0.0000 
     30 O30         2.7041   51.5770   22.4817 O.2       1 UNK         0.0000 
     31 C31         3.7927   52.6738   20.6043 C.3       1 UNK         0.0000 
     32 C32         3.5096   52.9003   19.0928 C.3       1 UNK         0.0000 
     33 C33         4.9879   51.6964   20.7301 C.3       1 UNK         0.0000 
     34 C34         4.2037   54.0138   21.2633 C.3       1 UNK         0.0000 
     35 O35        -0.7874   47.7984   20.0617 O.3       1 UNK         0.0000 
     36 C36        -2.7072   47.4945   22.0256 C.3       1 UNK         0.0000 
     37 O37        -0.8571   48.0971   25.6817 O.3       1 UNK         0.0000 
     38 F38        -3.5951   49.1765   25.7812 F         1 UNK         0.0000 
     39 C39        -3.0155   51.4902   26.9052 C.3       1 UNK         0.0000 
     40 F40        -2.8955   53.1138   22.8817 F         1 UNK         0.0000 
     41 H41        -3.3521   48.2300   18.9561 H         1 UNK         0.0000 
     42 H42        -3.5968   49.8025   18.2128 H         1 UNK         0.0000 
     43 H43        -2.1011   48.9294   17.9353 H         1 UNK         0.0000 
     44 H44        -3.6622   51.2965   20.8325 H         1 UNK         0.0000 
     45 H45        -4.1475   49.6099   20.9127 H         1 UNK         0.0000 
     46 H46        -4.8511   51.6279   22.9863 H         1 UNK         0.0000 
     47 H47        -4.9090   51.3346   24.6827 H         1 UNK         0.0000 
     48 H48        -0.7441   53.6007   23.7821 H         1 UNK         0.0000 
     49 H49         1.2694   51.2495   26.7845 H         1 UNK         0.0000 
     50 H50        -0.6848   50.0970   27.2774 H         1 UNK         0.0000 
     51 H51        -0.1925   47.8451   23.2761 H         1 UNK         0.0000 
     52 H52        -0.2457   49.5627   23.4826 H         1 UNK         0.0000 
     53 H53         0.2198   51.4143   22.2384 H         1 UNK         0.0000 
     54 H54        -0.6308   51.8651   20.7942 H         1 UNK         0.0000 
     55 H55         4.3935   53.2793   18.5774 H         1 UNK         0.0000 
     56 H56         2.7107   53.6235   18.9213 H         1 UNK         0.0000 
     57 H57         3.2328   51.9713   18.5889 H         1 UNK         0.0000 
     58 H58         5.3796   51.6574   21.7474 H         1 UNK         0.0000 
     59 H59         4.7076   50.6814   20.4489 H         1 UNK         0.0000 
     60 H60         5.8153   51.9922   20.0813 H         1 UNK         0.0000 
     61 H61         4.2820   53.9350   22.3507 H         1 UNK         0.0000 
     62 H62         5.1748   54.3497   20.8951 H         1 UNK         0.0000 
     63 H63         3.5048   54.8162   21.0428 H         1 UNK         0.0000 
     64 H64        -0.0397   47.9692   19.4785 H         1 UNK         0.0000 
     65 H65        -3.4867   47.4335   22.7821 H         1 UNK         0.0000 
     66 H66        -3.2300   47.4262   21.0740 H         1 UNK         0.0000 
     67 H67        -2.1089   46.5852   22.1074 H         1 UNK         0.0000 
     68 H68        -1.2955   48.0968   26.5531 H         1 UNK         0.0000 
     69 H69        -2.6795   52.4544   27.2830 H         1 UNK         0.0000 
     70 H70        -4.0534   51.6200   26.6157 H         1 UNK         0.0000 
     71 H71        -3.0201   50.7893   27.7431 H         1 UNK         0.0000 
@<TRIPOS>BOND
     1    1    2 1    
     2    1   41 1    
     3    1   42 1    
     4    1   43 1    
     5    2    3 1    
     6    2   24 1    
     7    2    4 1    
     8    4    5 1    
     9    4   44 1    
    10    4   45 1    
    11    5    6 1    
    12    5   23 1    
    13    5    7 1    
    14    7    8 1    
    15    7   19 1    
    16    7    9 1    
    17    9   10 1    
    18    9   46 1    
    19    9   47 1    
    20   10   11 1    
    21   10   12 1    
    22   10   40 1    
    23   12   18 1    
    24   12   13 2    
    25   13   14 1    
    26   13   48 1    
    27   14   15 2    
    28   14   16 1    
    29   16   17 2    
    30   16   49 1    
    31   17   18 1    
    32   17   50 1    
    33   18   19 1    
    34   18   39 1    
    35   19   20 1    
    36   19   38 1    
    37   20   21 1    
    38   20   22 1    
    39   20   37 1    
    40   22   23 1    
    41   22   51 1    
    42   22   52 1    
    43   23   24 1    
    44   23   36 1    
    45   24   25 1    
    46   24   35 1    
    47   25   26 2    
    48   25   27 1    
    49   27   28 1    
    50   27   53 1    
    51   27   54 1    
    52   28   29 1    
    53   29   30 2    
    54   29   31 1    
    55   31   32 1    
    56   31   33 1    
    57   31   34 1    
    58   32   55 1    
    59   32   56 1    
    60   32   57 1    
    61   33   58 1    
    62   33   59 1    
    63   33   60 1    
    64   34   61 1    
    65   34   62 1    
    66   34   63 1    
    67   35   64 1    
    68   36   65 1    
    69   36   66 1    
    70   36   67 1    
    71   37   68 1    
    72   39   69 1    
    73   39   70 1    
    74   39   71 1    
@<TRIPOS>SUBSTRUCTURE
     1 UNK         1 GROUP             0       ****    0 ROOT    
