@<TRIPOS>MOLECULE
ZINC05149619_4593
49   52    1
SMALL
USER_CHARGES


@<TRIPOS>ATOM
      1 C1         -6.9423   50.2601   22.7409 C.3       1 UNK         0.0000 
      2 C2         -5.9101   50.1766   23.8681 C.3       1 UNK         0.0000 
      3 O3         -4.9200   51.1685   23.6280 O.3       1 UNK         0.0000 
      4 C4         -3.8578   51.2977   24.4991 C.ar      1 UNK         0.0000 
      5 C5         -3.6738   50.5159   25.6497 C.ar      1 UNK         0.0000 
      6 C6         -2.5724   50.7290   26.4758 C.ar      1 UNK         0.0000 
      7 C7         -1.6424   51.7303   26.1648 C.ar      1 UNK         0.0000 
      8 C8         -1.8236   52.4971   25.0117 C.ar      1 UNK         0.0000 
      9 C9         -2.9231   52.2818   24.1882 C.ar      1 UNK         0.0000 
     10 C10        -0.4671   51.9830   27.0569 C.ar      1 UNK         0.0000 
     11 C11         0.7936   52.5693   26.8509 C.ar      1 UNK         0.0000 
     12 C12         1.4072   52.4755   28.1138 C.ar      1 UNK         0.0000 
     13 N13         0.6619   51.9291   29.0393 N.2       1 UNK         0.0000 
     14 N14        -0.4634   51.6341   28.3875 N.pl3     1 UNK         0.0000 
     15 H15        -1.2225   51.1508   28.8462 H         1 UNK         0.0000 
     16 O16         2.6760   52.8942   28.4253 O.3       1 UNK         0.0000 
     17 C17         3.3902   53.3991   27.3845 C.2       1 UNK         0.0000 
     18 C18         2.9741   53.5286   26.0987 C.2       1 UNK         0.0000 
     19 C19         1.5510   53.1474   25.6330 C.3       1 UNK         0.0000 
     20 H20         1.1043   54.0964   25.3467 H         1 UNK         0.0000 
     21 C21         1.4952   52.3154   24.3351 C.ar      1 UNK         0.0000 
     22 C22         1.8449   52.9181   23.1193 C.ar      1 UNK         0.0000 
     23 C23         1.8681   52.1738   21.9419 C.ar      1 UNK         0.0000 
     24 C24         1.5247   50.8204   21.9650 C.ar      1 UNK         0.0000 
     25 C25         1.1259   50.2236   23.1592 C.ar      1 UNK         0.0000 
     26 C26         1.1038   50.9668   24.3364 C.ar      1 UNK         0.0000 
     27 S27         1.5876   49.8196   20.5019 S.3       1 UNK         0.0000 
     28 C28         2.5305   50.7170   19.2327 C.3       1 UNK         0.0000 
     29 C29         3.8867   54.0733   25.1452 C.1       1 UNK         0.0000 
     30 N30         4.6639   54.4965   24.4005 N.1       1 UNK         0.0000 
     31 N31         4.6282   53.7246   27.8693 N.pl3     1 UNK         0.0000 
     32 H32        -7.7302   49.5179   22.8752 H         1 UNK         0.0000 
     33 H33        -7.4101   51.2460   22.7089 H         1 UNK         0.0000 
     34 H34        -6.4757   50.0827   21.7703 H         1 UNK         0.0000 
     35 H35        -5.4575   49.1834   23.8852 H         1 UNK         0.0000 
     36 H36        -6.3943   50.3453   24.8320 H         1 UNK         0.0000 
     37 H37        -4.3714   49.7382   25.9198 H         1 UNK         0.0000 
     38 H38        -2.4443   50.0965   27.3433 H         1 UNK         0.0000 
     39 H39        -1.1211   53.2774   24.7524 H         1 UNK         0.0000 
     40 H40        -3.0530   52.8816   23.2987 H         1 UNK         0.0000 
     41 H41         2.1242   53.9614   23.0864 H         1 UNK         0.0000 
     42 H42         2.1636   52.6622   21.0250 H         1 UNK         0.0000 
     43 H43         0.8596   49.1762   23.1815 H         1 UNK         0.0000 
     44 H44         0.8214   50.4638   25.2522 H         1 UNK         0.0000 
     45 H45         2.6999   50.0810   18.3628 H         1 UNK         0.0000 
     46 H46         3.5057   51.0173   19.6162 H         1 UNK         0.0000 
     47 H47         1.9905   51.6055   18.9047 H         1 UNK         0.0000 
     48 H48         5.3179   54.1585   27.2732 H         1 UNK         0.0000 
     49 H49         4.9596   53.3106   28.7283 H         1 UNK         0.0000 
@<TRIPOS>BOND
     1    1    2 1    
     2    1   32 1    
     3    1   33 1    
     4    1   34 1    
     5    2    3 1    
     6    2   35 1    
     7    2   36 1    
     8    3    4 1    
     9    4    9 ar   
    10    4    5 ar   
    11    5    6 ar   
    12    5   37 1    
    13    6    7 ar   
    14    6   38 1    
    15    7    8 ar   
    16    7   10 1    
    17    8    9 ar   
    18    8   39 1    
    19    9   40 1    
    20   10   14 ar   
    21   10   11 ar   
    22   11   19 1    
    23   11   12 ar   
    24   12   13 ar   
    25   12   16 1    
    26   13   14 ar   
    27   14   15 1    
    28   16   17 1    
    29   17   18 2    
    30   17   31 1    
    31   18   19 1    
    32   18   29 1    
    33   19   20 1    
    34   19   21 1    
    35   21   26 ar   
    36   21   22 ar   
    37   22   23 ar   
    38   22   41 1    
    39   23   24 ar   
    40   23   42 1    
    41   24   25 ar   
    42   24   27 1    
    43   25   26 ar   
    44   25   43 1    
    45   26   44 1    
    46   27   28 1    
    47   28   45 1    
    48   28   46 1    
    49   28   47 1    
    50   29   30 3    
    51   31   48 1    
    52   31   49 1    
@<TRIPOS>SUBSTRUCTURE
     1 UNK         1 GROUP             0       ****    0 ROOT    
