@<TRIPOS>MOLECULE
ZINC09410831_4874
57   60    1
SMALL
USER_CHARGES


@<TRIPOS>ATOM
      1 C1          0.9217   52.3055   27.9370 C.3       1 UNK         0.0000 
      2 C2         -0.2720   51.4026   27.6002 C.3       1 UNK         0.0000 
      3 H3         -0.5676   50.8962   28.5206 H         1 UNK         0.0000 
      4 C4          0.0924   50.3844   26.4962 C.3       1 UNK         0.0000 
      5 C5         -2.3553   50.5740   25.7027 C.3       1 UNK         0.0000 
      6 C6         -2.5802   51.5795   26.8517 C.3       1 UNK         0.0000 
      7 H7         -3.2429   52.3644   26.4835 H         1 UNK         0.0000 
      8 O8         -1.3385   52.2313   27.1377 O.3       1 UNK         0.0000 
      9 C9         -3.2589   50.9677   28.0962 C.3       1 UNK         0.0000 
     10 C10        -0.9588   48.4890   25.0555 C.3       1 UNK         0.0000 
     11 C11        -0.0703   48.8766   23.8568 C.3       1 UNK         0.0000 
     12 O12        -0.4067   50.1658   23.3503 O.3       1 UNK         0.0000 
     13 C13         0.5375   50.8031   22.5794 C.ar      1 UNK         0.0000 
     14 C14         0.6354   52.1896   22.6823 C.ar      1 UNK         0.0000 
     15 C15         1.6051   52.8846   21.9606 C.ar      1 UNK         0.0000 
     16 C16         2.4856   52.2023   21.1113 C.ar      1 UNK         0.0000 
     17 C17         2.3385   50.8145   20.9591 C.ar      1 UNK         0.0000 
     18 C18         1.3865   50.1225   21.7008 C.ar      1 UNK         0.0000 
     19 O19         3.1048   50.0967   20.0807 O.3       1 UNK         0.0000 
     20 C20         3.5456   52.9482   20.3654 C.ar      1 UNK         0.0000 
     21 C21         4.6485   53.7272   20.8341 C.ar      1 UNK         0.0000 
     22 C22         5.2771   54.1080   19.6496 C.ar      1 UNK         0.0000 
     23 N23         4.5612   53.5658   18.6264 N.pl3     1 UNK         0.0000 
     24 H24         4.7873   53.6448   17.6449 H         1 UNK         0.0000 
     25 N25         3.5123   52.8750   19.0493 N.2       1 UNK         0.0000 
     26 C26         5.1175   54.0993   22.2204 C.ar      1 UNK         0.0000 
     27 C27         6.2635   54.8967   22.3631 C.ar      1 UNK         0.0000 
     28 C28         6.7045   55.2939   23.6223 C.ar      1 UNK         0.0000 
     29 C29         6.0326   54.8696   24.7609 C.ar      1 UNK         0.0000 
     30 C30         4.8877   54.0963   24.6422 C.ar      1 UNK         0.0000 
     31 C31         4.4478   53.6974   23.3822 C.ar      1 UNK         0.0000 
     32 Br32        6.7046   55.2971   26.4873 Br        1 UNK         0.0000 
     33 H33         1.7705   51.7247   28.2998 H         1 UNK         0.0000 
     34 H34         0.6554   53.0230   28.7139 H         1 UNK         0.0000 
     35 H35         1.2499   52.8732   27.0655 H         1 UNK         0.0000 
     36 H36         0.5144   50.8609   25.6113 H         1 UNK         0.0000 
     37 H37         0.7674   49.6191   26.8816 H         1 UNK         0.0000 
     38 H38        -2.1107   51.0680   24.7636 H         1 UNK         0.0000 
     39 H39        -3.2362   49.9418   25.5813 H         1 UNK         0.0000 
     40 H40        -4.2660   50.6236   27.8604 H         1 UNK         0.0000 
     41 H41        -2.7259   50.1105   28.5009 H         1 UNK         0.0000 
     42 H42        -3.3465   51.6967   28.8969 H         1 UNK         0.0000 
     43 H43        -0.4958   47.6980   25.6477 H         1 UNK         0.0000 
     44 H44        -1.9472   48.1408   24.7532 H         1 UNK         0.0000 
     45 H45         0.9752   48.8509   24.1734 H         1 UNK         0.0000 
     46 H46        -0.1834   48.1286   23.0716 H         1 UNK         0.0000 
     47 H47        -0.0237   52.7251   23.3493 H         1 UNK         0.0000 
     48 H48         1.6878   53.9561   22.0819 H         1 UNK         0.0000 
     49 H49         1.3063   49.0538   21.5732 H         1 UNK         0.0000 
     50 H50         3.6316   50.6324   19.4727 H         1 UNK         0.0000 
     51 H51         6.1594   54.6947   19.4420 H         1 UNK         0.0000 
     52 H52         6.8171   55.2400   21.5031 H         1 UNK         0.0000 
     53 H53         7.5676   55.9305   23.7157 H         1 UNK         0.0000 
     54 H54         4.3696   53.7568   25.5269 H         1 UNK         0.0000 
     55 H55         3.5963   53.0477   23.3466 H         1 UNK         0.0000 
     56 N56        -1.1903   49.6271   26.0817 N.4       1 UNK         0.0000 
     57 H57        -1.4732   49.1549   26.9531 H         1 UNK         0.0000 
@<TRIPOS>BOND
     1    1    2 1    
     2    1   33 1    
     3    1   34 1    
     4    1   35 1    
     5    2    3 1    
     6    2    8 1    
     7    2    4 1    
     8    4   36 1    
     9    4   37 1    
    10    4   56 1    
    11    5    6 1    
    12    5   38 1    
    13    5   39 1    
    14    5   56 1    
    15    6    7 1    
    16    6    8 1    
    17    6    9 1    
    18    9   40 1    
    19    9   41 1    
    20    9   42 1    
    21   10   11 1    
    22   10   43 1    
    23   10   44 1    
    24   10   56 1    
    25   11   12 1    
    26   11   45 1    
    27   11   46 1    
    28   12   13 1    
    29   13   18 ar   
    30   13   14 ar   
    31   14   15 ar   
    32   14   47 1    
    33   15   16 ar   
    34   15   48 1    
    35   16   17 ar   
    36   16   20 1    
    37   17   18 ar   
    38   17   19 1    
    39   18   49 1    
    40   19   50 1    
    41   20   25 ar   
    42   20   21 ar   
    43   21   22 ar   
    44   21   26 1    
    45   22   23 ar   
    46   22   51 1    
    47   23   24 1    
    48   23   25 ar   
    49   26   31 ar   
    50   26   27 ar   
    51   27   28 ar   
    52   27   52 1    
    53   28   29 ar   
    54   28   53 1    
    55   29   30 ar   
    56   29   32 1    
    57   30   31 ar   
    58   30   54 1    
    59   31   55 1    
    60   56   57 1    
@<TRIPOS>SUBSTRUCTURE
     1 UNK         1 GROUP             0       ****    0 ROOT    
