ZINC39836545_5313
                    3D
 Schrodinger Suite 2024-2.
 62 65  0  0  1  0            999 V2000
    1.4658   55.3261   30.2243 C   0  0  0  0  0  0
    1.2967   53.8709   29.7159 C   0  0  0  0  0  0
    2.2840   52.9412   30.4689 C   0  0  0  0  0  0
   -0.1303   53.4261   30.1169 C   0  0  0  0  0  0
    1.5002   53.8344   28.1505 C   0  0  2  0  0  0
    0.9368   54.6853   27.7619 H   0  0  0  0  0  0
    1.0346   52.5269   27.4565 C   0  0  0  0  0  0
    0.9478   52.6797   25.9236 C   0  0  0  0  0  0
    2.2201   53.3260   25.3800 C   0  0  0  0  0  0
    3.1360   53.9589   26.2330 C   0  0  0  0  0  0
    4.5443   54.4969   25.3916 S   0  0  0  0  0  0
    3.8974   53.9392   23.8683 C   0  0  0  0  0  0
    2.6527   53.2977   24.0325 C   0  0  0  0  0  0
    1.8391   52.7644   22.9563 C   0  0  0  0  0  0
    0.6155   52.8918   22.9440 O   0  0  0  0  0  0
    2.5294   52.1152   22.0040 N   0  0  0  0  0  0
    1.9667   51.5081   20.8016 C   0  0  1  0  0  0
    1.5465   52.2670   20.1355 H   0  0  0  0  0  0
    3.1005   50.7809   20.0458 C   0  0  0  0  0  0
    2.4933   49.9554   18.9062 C   0  0  0  0  0  0
    0.9043   49.2807   19.6207 S   0  0  0  0  0  0
   -0.2078   49.6294   18.7323 O   0  0  0  0  0  0
    1.0880   47.9035   20.0784 O   0  0  0  0  0  0
    0.9083   50.4253   21.1032 C   0  0  0  0  0  0
    4.5253   54.2036   22.6555 N   0  0  0  0  0  0
    5.8224   54.4968   22.4278 C   0  0  0  0  0  0
    6.7044   54.4669   23.2875 O   0  0  0  0  0  0
    6.1556   54.8968   21.0051 C   0  0  0  0  0  0
    5.3311   54.5336   19.9224 C   0  0  0  0  0  0
    5.6635   54.9025   18.6210 C   0  0  0  0  0  0
    6.8193   55.6355   18.3744 C   0  0  0  0  0  0
    7.6491   55.9987   19.4317 C   0  0  0  0  0  0
    7.3208   55.6351   20.7391 C   0  0  0  0  0  0
    9.0899   56.8951   19.1153 Cl  0  0  0  0  0  0
    2.9826   54.1064   27.7412 C   0  0  0  0  0  0
    0.8086   56.0178   29.6919 H   0  0  0  0  0  0
    1.2099   55.4216   31.2799 H   0  0  0  0  0  0
    2.4855   55.6925   30.0987 H   0  0  0  0  0  0
    2.2887   51.9378   30.0433 H   0  0  0  0  0  0
    3.3086   53.3131   30.4446 H   0  0  0  0  0  0
    2.0135   52.8336   31.5201 H   0  0  0  0  0  0
   -0.3144   52.3689   29.9229 H   0  0  0  0  0  0
   -0.3123   53.5595   31.1859 H   0  0  0  0  0  0
   -0.8893   54.0058   29.5900 H   0  0  0  0  0  0
    1.6516   51.6786   27.7591 H   0  0  0  0  0  0
    0.0304   52.2552   27.7778 H   0  0  0  0  0  0
    0.0937   53.2934   25.6381 H   0  0  0  0  0  0
    0.7723   51.7011   25.4751 H   0  0  0  0  0  0
    3.5226   52.0073   22.1266 H   0  0  0  0  0  0
    3.8480   51.4824   19.6701 H   0  0  0  0  0  0
    3.6404   50.1189   20.7241 H   0  0  0  0  0  0
    2.2285   50.6290   18.0893 H   0  0  0  0  0  0
    3.1043   49.1589   18.4818 H   0  0  0  0  0  0
    1.3294   49.8000   21.8919 H   0  0  0  0  0  0
   -0.0843   50.7182   21.4401 H   0  0  0  0  0  0
    3.9528   54.0626   21.8365 H   0  0  0  0  0  0
    4.4299   53.9542   20.0643 H   0  0  0  0  0  0
    5.0230   54.6079   17.7998 H   0  0  0  0  0  0
    7.0744   55.9149   17.3643 H   0  0  0  0  0  0
    7.9907   55.9142   21.5435 H   0  0  0  0  0  0
    3.6513   53.3844   28.2090 H   0  0  0  0  0  0
    3.3007   55.1004   28.0561 H   0  0  0  0  0  0
  1  2  1  0  0  0
  1 36  1  0  0  0
  1 37  1  0  0  0
  1 38  1  0  0  0
  2  3  1  0  0  0
  2  4  1  0  0  0
  2  5  1  0  0  0
  3 39  1  0  0  0
  3 40  1  0  0  0
  3 41  1  0  0  0
  4 42  1  0  0  0
  4 43  1  0  0  0
  4 44  1  0  0  0
  5  6  1  0  0  0
  5 35  1  0  0  0
  5  7  1  0  0  0
  7  8  1  0  0  0
  7 45  1  0  0  0
  7 46  1  0  0  0
  8  9  1  0  0  0
  8 47  1  0  0  0
  8 48  1  0  0  0
  9 13  1  0  0  0
  9 10  2  0  0  0
 10 11  1  0  0  0
 10 35  1  0  0  0
 11 12  1  0  0  0
 12 13  2  0  0  0
 12 25  1  0  0  0
 13 14  1  0  0  0
 14 15  2  0  0  0
 14 16  1  0  0  0
 16 17  1  0  0  0
 16 49  1  0  0  0
 17 18  1  0  0  0
 17 24  1  0  0  0
 17 19  1  0  0  0
 19 20  1  0  0  0
 19 50  1  0  0  0
 19 51  1  0  0  0
 20 21  1  0  0  0
 20 52  1  0  0  0
 20 53  1  0  0  0
 21 22  2  0  0  0
 21 23  2  0  0  0
 21 24  1  0  0  0
 24 54  1  0  0  0
 24 55  1  0  0  0
 25 26  1  0  0  0
 25 56  1  0  0  0
 26 27  2  0  0  0
 26 28  1  0  0  0
 28 33  2  0  0  0
 28 29  1  0  0  0
 29 30  2  0  0  0
 29 57  1  0  0  0
 30 31  1  0  0  0
 30 58  1  0  0  0
 31 32  2  0  0  0
 31 59  1  0  0  0
 32 33  1  0  0  0
 32 34  1  0  0  0
 33 60  1  0  0  0
 35 61  1  0  0  0
 35 62  1  0  0  0
M  END
> <i_i_glide_confnum>
94

> <i_i_glide_lignum>
5314

> <i_i_glide_posenum>
381

> <i_i_glide_rotatable_bonds>
7

> <i_m_Source_File_Index>
5964

> <b_m_subgroup_collapsed>
0

> <r_i_docking_score>
-5.49419

> <r_i_glide_ecoul>
-2.66384

> <r_i_glide_eff_state_penalty>
0

> <r_i_glide_einternal>
11.7905

> <r_i_glide_emodel>
-55.3595

> <r_i_glide_energy>
-46.8556

> <r_i_glide_erotb>
0.474081

> <r_i_glide_esite>
-0.0430308

> <r_i_glide_evdw>
-44.1917

> <r_i_glide_gscore>
-5.49419

> <r_i_glide_hbond>
0

> <r_i_glide_ligand_efficiency>
-0.166491

> <r_i_glide_ligand_efficiency_ln>
-1.22188

> <r_i_glide_ligand_efficiency_sa>
-0.534025

> <r_i_glide_lipo>
-2.79803

> <r_i_glide_metal>
0

> <r_i_glide_rewards>
-0.518053

> <s_i_glide_gridfile>
wee1_glide-grid

> <s_m_Source_File>
wee1_decoys_glide_SP.sdf

> <s_m_Source_Path>
/Users/zhangxujun/Desktop

> <s_m_entry_id>
6239

> <s_m_entry_name>
wee1_decoys_glide_SP.5964

> <s_m_subgroup_title>
wee1_decoys_glide_SP

> <s_m_subgroupid>
wee1_decoys_glide_SP


$$$$
