@<TRIPOS>MOLECULE
ZINC39686643_3084
73   76    1
SMALL
USER_CHARGES


@<TRIPOS>ATOM
      1 C1          6.2914   55.7174   21.2460 C.3       1 UNK         0.0000 
      2 C2          5.4902   54.7048   20.3980 C.3       1 UNK         0.0000 
      3 H3          6.0229   53.7541   20.4139 H         1 UNK         0.0000 
      4 C4          5.3920   55.1026   18.9093 C.3       1 UNK         0.0000 
      5 C5          6.7368   55.0404   18.1907 C.ar      1 UNK         0.0000 
      6 C6          7.1702   53.8129   17.6762 C.ar      1 UNK         0.0000 
      7 C7          8.4157   53.7041   17.0636 C.ar      1 UNK         0.0000 
      8 C8          9.2328   54.8255   16.9525 C.ar      1 UNK         0.0000 
      9 C9          8.8011   56.0566   17.4471 C.ar      1 UNK         0.0000 
     10 C10         7.5474   56.1825   18.0683 C.ar      1 UNK         0.0000 
     11 O11         7.0644   57.3732   18.5851 O.3       1 UNK         0.0000 
     12 C12         7.7973   58.5738   18.3769 C.3       1 UNK         0.0000 
     13 N13         4.1642   54.4263   20.9480 N.am      1 UNK         0.0000 
     14 C14         3.9254   53.6952   22.0473 C.2       1 UNK         0.0000 
     15 O15         4.8304   53.2967   22.7818 O.2       1 UNK         0.0000 
     16 C16         2.4359   53.3678   22.3302 C.3       1 UNK         0.0000 
     17 H17         1.8417   54.2474   22.0831 H         1 UNK         0.0000 
     18 C18         2.2485   53.0600   23.8355 C.3       1 UNK         0.0000 
     19 N19         1.1092   52.1411   23.8775 N.am      1 UNK         0.0000 
     20 C20         0.7288   51.7184   22.5179 C.3       1 UNK         0.0000 
     21 C21         1.8988   52.1061   21.5911 C.3       1 UNK         0.0000 
     22 C22         1.4745   52.4019   20.1277 C.3       1 UNK         0.0000 
     23 C23         0.8377   51.1846   19.4248 C.3       1 UNK         0.0000 
     24 N24         1.8621   50.0265   19.4173 N.4       1 UNK         0.0000 
     25 C25         2.3513   49.6627   20.8343 C.3       1 UNK         0.0000 
     26 C26         2.9333   50.9340   21.4863 C.3       1 UNK         0.0000 
     27 C27         0.3350   51.7786   24.9455 C.2       1 UNK         0.0000 
     28 O28        -0.6860   51.1131   24.7417 O.2       1 UNK         0.0000 
     29 C29         0.6555   52.1401   26.4019 C.ar      1 UNK         0.0000 
     30 C30        -0.3147   51.8626   27.3809 C.ar      1 UNK         0.0000 
     31 C31        -0.0943   52.1155   28.7289 C.ar      1 UNK         0.0000 
     32 C32         1.1220   52.6587   29.1665 C.ar      1 UNK         0.0000 
     33 C33         2.1154   52.9383   28.2157 C.ar      1 UNK         0.0000 
     34 C34         1.8738   52.6822   26.8558 C.ar      1 UNK         0.0000 
     35 C35         3.4674   53.5023   28.6699 C.3       1 UNK         0.0000 
     36 F36         4.0529   52.6421   29.5075 F         1 UNK         0.0000 
     37 F37         4.3053   53.7209   27.6544 F         1 UNK         0.0000 
     38 F38         3.2851   54.6621   29.3056 F         1 UNK         0.0000 
     39 O39         1.4068   52.9220   30.4964 O.3       1 UNK         0.0000 
     40 C40         0.3812   52.7474   31.4712 C.3       1 UNK         0.0000 
     41 H41         7.2956   55.8541   20.8450 H         1 UNK         0.0000 
     42 H42         5.8229   56.7005   21.2404 H         1 UNK         0.0000 
     43 H43         6.4119   55.3869   22.2777 H         1 UNK         0.0000 
     44 H44         4.9361   56.0864   18.7940 H         1 UNK         0.0000 
     45 H45         4.7112   54.4223   18.3933 H         1 UNK         0.0000 
     46 H46         6.5483   52.9317   17.7650 H         1 UNK         0.0000 
     47 H47         8.7516   52.7511   16.6808 H         1 UNK         0.0000 
     48 H48        10.2015   54.7405   16.4833 H         1 UNK         0.0000 
     49 H49         9.4630   56.9024   17.3447 H         1 UNK         0.0000 
     50 H50         7.2389   59.4069   18.8032 H         1 UNK         0.0000 
     51 H51         8.7653   58.5393   18.8746 H         1 UNK         0.0000 
     52 H52         7.9470   58.7827   17.3184 H         1 UNK         0.0000 
     53 H53         3.3702   54.7424   20.4037 H         1 UNK         0.0000 
     54 H54         3.1037   52.4963   24.2076 H         1 UNK         0.0000 
     55 H55         2.0717   53.9870   24.3821 H         1 UNK         0.0000 
     56 H56        -0.1327   52.3297   22.2434 H         1 UNK         0.0000 
     57 H57         0.3934   50.6865   22.4202 H         1 UNK         0.0000 
     58 H58         0.7267   53.1959   20.1303 H         1 UNK         0.0000 
     59 H59         2.3105   52.7927   19.5445 H         1 UNK         0.0000 
     60 H60        -0.0570   50.8154   19.9274 H         1 UNK         0.0000 
     61 H61         0.6015   51.3880   18.3784 H         1 UNK         0.0000 
     62 H62         1.4628   49.2137   18.9679 H         1 UNK         0.0000 
     63 H63         1.5092   49.2278   21.3729 H         1 UNK         0.0000 
     64 H64         3.1025   48.8878   20.6999 H         1 UNK         0.0000 
     65 H65         3.8362   51.2337   20.9499 H         1 UNK         0.0000 
     66 H66         3.2717   50.6554   22.4814 H         1 UNK         0.0000 
     67 H67        -1.2659   51.4221   27.1128 H         1 UNK         0.0000 
     68 H68        -0.8846   51.8640   29.4218 H         1 UNK         0.0000 
     69 H69         2.6885   52.8802   26.1879 H         1 UNK         0.0000 
     70 H70         0.7231   53.0678   32.4534 H         1 UNK         0.0000 
     71 H71        -0.4953   53.3425   31.2184 H         1 UNK         0.0000 
     72 H72         0.0975   51.6982   31.5572 H         1 UNK         0.0000 
     73 H73         2.6612   50.2864   18.8485 H         1 UNK         0.0000 
@<TRIPOS>BOND
     1    1    2 1    
     2    1   41 1    
     3    1   42 1    
     4    1   43 1    
     5    2    3 1    
     6    2    4 1    
     7    2   13 1    
     8    4    5 1    
     9    4   44 1    
    10    4   45 1    
    11    5   10 ar   
    12    5    6 ar   
    13    6    7 ar   
    14    6   46 1    
    15    7    8 ar   
    16    7   47 1    
    17    8    9 ar   
    18    8   48 1    
    19    9   10 ar   
    20    9   49 1    
    21   10   11 1    
    22   11   12 1    
    23   12   50 1    
    24   12   51 1    
    25   12   52 1    
    26   13   14 am   BACKBONE|DICT|INTERRES
    27   13   53 1    
    28   14   15 2    
    29   14   16 1    
    30   16   17 1    
    31   16   21 1    
    32   16   18 1    
    33   18   19 1    
    34   18   54 1    
    35   18   55 1    
    36   19   20 1    
    37   19   27 am   BACKBONE|DICT|INTERRES
    38   20   21 1    
    39   20   56 1    
    40   20   57 1    
    41   21   26 1    
    42   21   22 1    
    43   22   23 1    
    44   22   58 1    
    45   22   59 1    
    46   23   24 1    
    47   23   60 1    
    48   23   61 1    
    49   24   25 1    
    50   24   62 1    
    51   24   73 1    
    52   25   26 1    
    53   25   63 1    
    54   25   64 1    
    55   26   65 1    
    56   26   66 1    
    57   27   28 2    
    58   27   29 1    
    59   29   34 ar   
    60   29   30 ar   
    61   30   31 ar   
    62   30   67 1    
    63   31   32 ar   
    64   31   68 1    
    65   32   33 ar   
    66   32   39 1    
    67   33   34 ar   
    68   33   35 1    
    69   34   69 1    
    70   35   36 1    
    71   35   37 1    
    72   35   38 1    
    73   39   40 1    
    74   40   70 1    
    75   40   71 1    
    76   40   72 1    
@<TRIPOS>SUBSTRUCTURE
     1 UNK         1 GROUP             0       ****    0 ROOT    
