@<TRIPOS>MOLECULE
ZINC09631028_1006
52   56    1
SMALL
USER_CHARGES


@<TRIPOS>ATOM
      1 C1          1.0209   53.4900   29.8981 C.ar      1 UNK         0.0000 
      2 C2          1.8109   54.5265   29.4068 C.ar      1 UNK         0.0000 
      3 C3          2.2436   54.5004   28.0829 C.ar      1 UNK         0.0000 
      4 C4          1.8731   53.4421   27.2390 C.ar      1 UNK         0.0000 
      5 C5          1.0842   52.3980   27.7511 C.ar      1 UNK         0.0000 
      6 C6          0.6612   52.4247   29.0777 C.ar      1 UNK         0.0000 
      7 N7          2.2816   53.4438   25.8771 N.pl3     1 UNK         0.0000 
      8 C8          3.3486   54.0904   25.3001 C.ar      1 UNK         0.0000 
      9 C9          3.3503   53.7813   23.9456 C.ar      1 UNK         0.0000 
     10 C10         2.2264   52.9369   23.8085 C.ar      1 UNK         0.0000 
     11 N11         1.5960   52.7589   24.9498 N.2       1 UNK         0.0000 
     12 C12         1.7337   52.2799   22.6012 C.2       1 UNK         0.0000 
     13 C13         0.4087   52.0393   22.2355 C.2       1 UNK         0.0000 
     14 C14         0.2774   51.3692   21.0143 C.2       1 UNK         0.0000 
     15 C15         1.5038   51.0740   20.4355 C.2       1 UNK         0.0000 
     16 S16         2.8252   51.6127   21.4135 S.3       1 UNK         0.0000 
     17 C17         4.2557   54.2412   22.9012 C.2       1 UNK         0.0000 
     18 C18         5.5407   54.6702   23.0032 C.2       1 UNK         0.0000 
     19 C19         6.2068   54.7461   24.2692 C.1       1 UNK         0.0000 
     20 N20         6.7043   54.8433   25.3117 N.1       1 UNK         0.0000 
     21 C21         6.3054   55.1198   21.8399 C.2       1 UNK         0.0000 
     22 O22         7.3715   55.6987   22.0690 O.2       1 UNK         0.0000 
     23 N23         5.8447   54.8873   20.6189 N.2       1 UNK         0.0000 
     24 C24         6.2916   55.6218   19.5291 C.ar      1 UNK         0.0000 
     25 C25         6.7040   56.9684   19.6003 C.ar      1 UNK         0.0000 
     26 C26         7.1494   57.6698   18.4869 C.ar      1 UNK         0.0000 
     27 C27         7.1441   57.0587   17.2299 C.ar      1 UNK         0.0000 
     28 C28         6.7237   55.7420   17.1114 C.ar      1 UNK         0.0000 
     29 C29         6.2862   55.0305   18.2396 C.ar      1 UNK         0.0000 
     30 N30         5.8744   53.6308   18.0273 N.pl3     1 UNK         0.0000 
     31 O31         4.7446   53.2967   18.3683 O.co2     1 UNK         0.0000 
     32 O32         6.6855   52.8963   17.4728 O.co2     1 UNK         0.0000 
     33 O33         7.6103   57.6944   16.0980 O.3       1 UNK         0.0000 
     34 C34         7.6813   59.1207   16.2234 C.3       1 UNK         0.0000 
     35 C35         8.3043   59.5138   17.5857 C.3       1 UNK         0.0000 
     36 O36         7.5277   58.9832   18.6659 O.3       1 UNK         0.0000 
     37 H37         0.6814   53.5091   30.9245 H         1 UNK         0.0000 
     38 H38         2.0804   55.3539   30.0477 H         1 UNK         0.0000 
     39 H39         2.8469   55.3181   27.7186 H         1 UNK         0.0000 
     40 H40         0.7874   51.5639   27.1261 H         1 UNK         0.0000 
     41 H41         0.0476   51.6224   29.4649 H         1 UNK         0.0000 
     42 H42         4.0133   54.6986   25.8936 H         1 UNK         0.0000 
     43 H43        -0.4323   52.3416   22.8418 H         1 UNK         0.0000 
     44 H44        -0.6720   51.1072   20.5713 H         1 UNK         0.0000 
     45 H45         1.7008   50.5677   19.5021 H         1 UNK         0.0000 
     46 H46         3.7832   54.2057   21.9288 H         1 UNK         0.0000 
     47 H47         6.6780   57.4934   20.5409 H         1 UNK         0.0000 
     48 H48         6.7368   55.2701   16.1418 H         1 UNK         0.0000 
     49 H49         6.6754   59.5412   16.1573 H         1 UNK         0.0000 
     50 H50         8.2650   59.5302   15.3984 H         1 UNK         0.0000 
     51 H51         8.3492   60.5981   17.6816 H         1 UNK         0.0000 
     52 H52         9.3217   59.1236   17.6467 H         1 UNK         0.0000 
@<TRIPOS>BOND
     1    1    6 ar   
     2    1    2 ar   
     3    1   37 1    
     4    2    3 ar   
     5    2   38 1    
     6    3    4 ar   
     7    3   39 1    
     8    4    5 ar   
     9    4    7 1    
    10    5    6 ar   
    11    5   40 1    
    12    6   41 1    
    13    7   11 ar   
    14    7    8 ar   
    15    8    9 ar   
    16    8   42 1    
    17    9   10 ar   
    18    9   17 1    
    19   10   11 ar   
    20   10   12 1    
    21   12   16 1    
    22   12   13 2    
    23   13   14 1    
    24   13   43 1    
    25   14   15 2    
    26   14   44 1    
    27   15   16 1    
    28   15   45 1    
    29   17   18 2    
    30   17   46 1    
    31   18   19 1    
    32   18   21 1    
    33   19   20 3    
    34   21   22 2    
    35   21   23 1    
    36   23   24 1    
    37   24   29 ar   
    38   24   25 ar   
    39   25   26 ar   
    40   25   47 1    
    41   26   36 1    
    42   26   27 ar   
    43   27   28 ar   
    44   27   33 1    
    45   28   29 ar   
    46   28   48 1    
    47   29   30 1    
    48   30   31 2    
    49   30   32 1    
    50   33   34 1    
    51   34   35 1    
    52   34   49 1    
    53   34   50 1    
    54   35   36 1    
    55   35   51 1    
    56   35   52 1    
@<TRIPOS>SUBSTRUCTURE
     1 UNK         1 GROUP             0       ****    0 ROOT    
