@<TRIPOS>MOLECULE
ZINC13180572_515
61   63    1
SMALL
USER_CHARGES


@<TRIPOS>ATOM
      1 C1         -6.9253   51.2970   23.8959 C.3       1 UNK         0.0000 
      2 C2         -5.5689   50.6732   24.1691 C.ar      1 UNK         0.0000 
      3 C3         -4.7211   50.3365   23.1119 C.ar      1 UNK         0.0000 
      4 C4         -3.4752   49.7709   23.3718 C.ar      1 UNK         0.0000 
      5 C5         -3.0739   49.5308   24.6895 C.ar      1 UNK         0.0000 
      6 C6         -3.9277   49.8743   25.7453 C.ar      1 UNK         0.0000 
      7 C7         -5.1692   50.4462   25.4859 C.ar      1 UNK         0.0000 
      8 C8         -1.6969   48.9083   24.9746 C.3       1 UNK         0.0000 
      9 H9         -1.0643   49.0173   24.0892 H         1 UNK         0.0000 
     10 C10        -1.7546   47.3897   25.3125 C.3       1 UNK         0.0000 
     11 C11        -2.5790   46.5310   24.3436 C.2       1 UNK         0.0000 
     12 O12        -2.3651   46.6656   23.1193 O.co2     1 UNK         0.0000 
     13 N13        -1.0221   49.5933   26.0817 N.am      1 UNK         0.0000 
     14 C14        -0.2816   50.7127   26.0482 C.2       1 UNK         0.0000 
     15 O15         0.0732   51.2428   24.9936 O.2       1 UNK         0.0000 
     16 C16         0.0985   51.3354   27.4205 C.3       1 UNK         0.0000 
     17 C17         1.6117   51.1429   27.6731 C.3       1 UNK         0.0000 
     18 C18         1.9918   51.7478   29.0317 C.3       1 UNK         0.0000 
     19 N19         1.6862   53.1894   29.0409 N.pl3     1 UNK         0.0000 
     20 C20         0.3128   53.5989   28.6421 C.3       1 UNK         0.0000 
     21 C21        -0.1895   52.8605   27.3733 C.3       1 UNK         0.0000 
     22 S22         3.0011   54.3587   29.2571 S.o2      1 UNK         0.0000 
     23 O23         2.4301   55.7096   29.2816 O.2       1 UNK         0.0000 
     24 O24         3.8416   53.8737   30.3581 O.2       1 UNK         0.0000 
     25 C25         4.0188   54.2649   27.7861 C.ar      1 UNK         0.0000 
     26 C26         5.4087   54.1666   27.8929 C.ar      1 UNK         0.0000 
     27 C27         6.1959   54.1223   26.7434 C.ar      1 UNK         0.0000 
     28 C28         5.6068   54.1754   25.4753 C.ar      1 UNK         0.0000 
     29 C29         4.2069   54.2673   25.3656 C.ar      1 UNK         0.0000 
     30 C30         3.4279   54.3235   26.5248 C.ar      1 UNK         0.0000 
     31 C31         3.5058   54.3137   24.0139 C.3       1 UNK         0.0000 
     32 C32         6.4978   54.0996   24.2428 C.3       1 UNK         0.0000 
     33 H33        -7.1019   52.1302   24.5769 H         1 UNK         0.0000 
     34 H34        -6.9969   51.6946   22.8836 H         1 UNK         0.0000 
     35 H35        -7.7186   50.5651   24.0493 H         1 UNK         0.0000 
     36 H36        -5.0270   50.5036   22.0896 H         1 UNK         0.0000 
     37 H37        -2.8286   49.5022   22.5489 H         1 UNK         0.0000 
     38 H38        -3.6291   49.6895   26.7681 H         1 UNK         0.0000 
     39 H39        -5.8209   50.7037   26.3082 H         1 UNK         0.0000 
     40 H40        -0.7477   46.9763   25.2816 H         1 UNK         0.0000 
     41 H41        -2.1449   47.2378   26.3209 H         1 UNK         0.0000 
     42 H42        -1.2133   49.1786   27.0004 H         1 UNK         0.0000 
     43 H43        -0.4980   50.8276   28.1815 H         1 UNK         0.0000 
     44 H44         1.9042   50.0966   27.6888 H         1 UNK         0.0000 
     45 H45         2.1975   51.6972   26.9398 H         1 UNK         0.0000 
     46 H46         1.4624   51.2961   29.8677 H         1 UNK         0.0000 
     47 H47         3.0587   51.6169   29.2165 H         1 UNK         0.0000 
     48 H48        -0.3446   53.4146   29.4926 H         1 UNK         0.0000 
     49 H49         0.3037   54.6768   28.4814 H         1 UNK         0.0000 
     50 H50         0.3711   53.2966   26.5485 H         1 UNK         0.0000 
     51 H51        -1.2577   53.0638   27.2809 H         1 UNK         0.0000 
     52 H52         5.8859   54.1352   28.8626 H         1 UNK         0.0000 
     53 H53         7.2677   54.0408   26.8464 H         1 UNK         0.0000 
     54 H54         2.3550   54.4080   26.4463 H         1 UNK         0.0000 
     55 H55         3.3803   53.3054   23.6167 H         1 UNK         0.0000 
     56 H56         2.5258   54.7879   24.0845 H         1 UNK         0.0000 
     57 H57         4.0753   54.8967   23.2910 H         1 UNK         0.0000 
     58 H58         6.0919   53.3881   23.5229 H         1 UNK         0.0000 
     59 H59         6.5609   55.0728   23.7551 H         1 UNK         0.0000 
     60 H60         7.5046   53.7593   24.4831 H         1 UNK         0.0000 
     61 O61        -3.3679   45.6967   24.8446 O.co2     1 UNK         0.0000 
@<TRIPOS>BOND
     1    1    2 1    
     2    1   33 1    
     3    1   34 1    
     4    1   35 1    
     5    2    7 ar   
     6    2    3 ar   
     7    3    4 ar   
     8    3   36 1    
     9    4    5 ar   
    10    4   37 1    
    11    5    6 ar   
    12    5    8 1    
    13    6    7 ar   
    14    6   38 1    
    15    7   39 1    
    16    8    9 1    
    17    8   10 1    
    18    8   13 1    
    19   10   11 1    
    20   10   40 1    
    21   10   41 1    
    22   11   12 2    
    23   11   61 1    
    24   13   14 am   BACKBONE|DICT|INTERRES
    25   13   42 1    
    26   14   15 2    
    27   14   16 1    
    28   16   21 1    
    29   16   17 1    
    30   16   43 1    
    31   17   18 1    
    32   17   44 1    
    33   17   45 1    
    34   18   19 1    
    35   18   46 1    
    36   18   47 1    
    37   19   20 1    
    38   19   22 1    
    39   20   21 1    
    40   20   48 1    
    41   20   49 1    
    42   21   50 1    
    43   21   51 1    
    44   22   23 2    
    45   22   24 2    
    46   22   25 1    
    47   25   30 ar   
    48   25   26 ar   
    49   26   27 ar   
    50   26   52 1    
    51   27   28 ar   
    52   27   53 1    
    53   28   29 ar   
    54   28   32 1    
    55   29   30 ar   
    56   29   31 1    
    57   30   54 1    
    58   31   55 1    
    59   31   56 1    
    60   31   57 1    
    61   32   58 1    
    62   32   59 1    
    63   32   60 1    
@<TRIPOS>SUBSTRUCTURE
     1 UNK         1 GROUP             0       ****    0 ROOT    
