@<TRIPOS>MOLECULE
ZINC20905309_3532
50   53    1
SMALL
USER_CHARGES


@<TRIPOS>ATOM
      1 C1          2.1319   53.2751   27.9442 C.ar      1 UNK         0.0000 
      2 C2          1.9040   53.3465   26.5772 C.ar      1 UNK         0.0000 
      3 C3          2.9281   53.6967   25.7035 C.ar      1 UNK         0.0000 
      4 C4          4.2518   53.9685   26.1766 C.ar      1 UNK         0.0000 
      5 C5          4.4661   53.8834   27.5938 C.ar      1 UNK         0.0000 
      6 C6          3.3955   53.5421   28.4572 C.ar      1 UNK         0.0000 
      7 C7          5.7501   54.1309   28.1231 C.ar      1 UNK         0.0000 
      8 C8          6.8041   54.4448   27.2806 C.ar      1 UNK         0.0000 
      9 C9          6.6136   54.5204   25.9102 C.ar      1 UNK         0.0000 
     10 C10         5.3641   54.2986   25.3135 C.ar      1 UNK         0.0000 
     11 C11         5.2540   54.4061   23.8408 C.2       1 UNK         0.0000 
     12 N12         6.2009   54.7852   23.0805 N.2       1 UNK         0.0000 
     13 N13         5.9064   54.8965   21.7157 N.pl3     1 UNK         0.0000 
     14 C14         6.7389   55.5059   20.8070 C.ar      1 UNK         0.0000 
     15 N15         6.3946   56.0308   19.6613 N.2       1 UNK         0.0000 
     16 C16         7.5665   56.3839   19.1379 C.ar      1 UNK         0.0000 
     17 N17         8.6338   56.0968   19.8580 N.2       1 UNK         0.0000 
     18 N18         8.0896   55.5789   20.9581 N.pl3     1 UNK         0.0000 
     19 S19         7.7258   57.1442   17.5534 S.3       1 UNK         0.0000 
     20 C20         6.2613   58.2409   17.5385 C.3       1 UNK         0.0000 
     21 C21         4.9822   57.6180   16.9588 C.2       1 UNK         0.0000 
     22 O22         4.8514   56.3958   16.9164 O.2       1 UNK         0.0000 
     23 N23         4.0519   58.4979   16.5295 N.am      1 UNK         0.0000 
     24 C24         2.7503   58.2484   16.0609 C.ar      1 UNK         0.0000 
     25 C25         2.0364   57.0643   16.3055 C.ar      1 UNK         0.0000 
     26 C26         0.7215   56.9431   15.8630 C.ar      1 UNK         0.0000 
     27 C27         0.1072   57.9927   15.1735 C.ar      1 UNK         0.0000 
     28 C28         0.8280   59.1643   14.9115 C.ar      1 UNK         0.0000 
     29 C29         2.1411   59.2919   15.3593 C.ar      1 UNK         0.0000 
     30 C30        -1.3484   57.8466   14.7315 C.3       1 UNK         0.0000 
     31 F31        -1.7527   58.8561   13.9586 F         1 UNK         0.0000 
     32 F32        -2.1297   57.8105   15.8113 F         1 UNK         0.0000 
     33 F33        -1.5115   56.7117   14.0516 F         1 UNK         0.0000 
     34 H34         1.3230   53.0047   28.6100 H         1 UNK         0.0000 
     35 H35         0.9183   53.1306   26.1906 H         1 UNK         0.0000 
     36 H36         2.6919   53.7408   24.6524 H         1 UNK         0.0000 
     37 H37         3.5704   53.4762   29.5221 H         1 UNK         0.0000 
     38 H38         5.9155   54.0820   29.1897 H         1 UNK         0.0000 
     39 H39         7.7865   54.6254   27.6880 H         1 UNK         0.0000 
     40 H40         7.4763   54.7548   25.2994 H         1 UNK         0.0000 
     41 H41         4.2879   54.1441   23.4262 H         1 UNK         0.0000 
     42 H42         4.9326   54.7502   21.4858 H         1 UNK         0.0000 
     43 H43         6.5250   59.1145   16.9386 H         1 UNK         0.0000 
     44 H44         6.0632   58.6141   18.5420 H         1 UNK         0.0000 
     45 H45         4.3158   59.4774   16.5113 H         1 UNK         0.0000 
     46 H46         2.4646   56.2481   16.8671 H         1 UNK         0.0000 
     47 H47         0.1731   56.0358   16.0751 H         1 UNK         0.0000 
     48 H48         0.3730   59.9928   14.3887 H         1 UNK         0.0000 
     49 H49         2.6766   60.2159   15.1830 H         1 UNK         0.0000 
     50 H50         8.6173   55.2706   21.7652 H         1 UNK         0.0000 
@<TRIPOS>BOND
     1    1    6 ar   
     2    1    2 ar   
     3    1   34 1    
     4    2    3 ar   
     5    2   35 1    
     6    3    4 ar   
     7    3   36 1    
     8    4   10 ar   
     9    4    5 ar   
    10    5    6 ar   
    11    5    7 ar   
    12    6   37 1    
    13    7    8 ar   
    14    7   38 1    
    15    8    9 ar   
    16    8   39 1    
    17    9   10 ar   
    18    9   40 1    
    19   10   11 1    
    20   11   12 2    
    21   11   41 1    
    22   12   13 1    
    23   13   14 1    
    24   13   42 1    
    25   14   18 ar   
    26   14   15 ar   
    27   15   16 ar   
    28   16   17 ar   
    29   16   19 1    
    30   17   18 ar   
    31   18   50 1    
    32   19   20 1    
    33   20   21 1    
    34   20   43 1    
    35   20   44 1    
    36   21   22 2    
    37   21   23 am   BACKBONE|DICT|INTERRES
    38   23   24 1    
    39   23   45 1    
    40   24   29 ar   
    41   24   25 ar   
    42   25   26 ar   
    43   25   46 1    
    44   26   27 ar   
    45   26   47 1    
    46   27   28 ar   
    47   27   30 1    
    48   28   29 ar   
    49   28   48 1    
    50   29   49 1    
    51   30   31 1    
    52   30   32 1    
    53   30   33 1    
@<TRIPOS>SUBSTRUCTURE
     1 UNK         1 GROUP             0       ****    0 ROOT    
