@<TRIPOS>MOLECULE
ZINC49068567_1107
79   82    1
SMALL
USER_CHARGES


@<TRIPOS>ATOM
      1 C1         -0.0794   52.4958   30.4817 C.3       1 UNK         0.0000 
      2 C2          0.4840   51.9077   29.1738 C.3       1 UNK         0.0000 
      3 C3         -0.5725   51.8191   28.0678 C.3       1 UNK         0.0000 
      4 O4          1.5337   52.7347   28.6879 O.3       1 UNK         0.0000 
      5 C5          2.8189   52.6002   29.1028 C.2       1 UNK         0.0000 
      6 O6          3.1927   51.6967   29.8580 O.2       1 UNK         0.0000 
      7 N7          3.6440   53.6105   28.5714 N.am      1 UNK         0.0000 
      8 C8          3.1052   54.7246   27.7507 C.3       1 UNK         0.0000 
      9 C9          3.8716   54.7535   26.4114 C.3       1 UNK         0.0000 
     10 C10         5.3987   54.8089   26.6070 C.3       1 UNK         0.0000 
     11 C11         5.7765   53.5341   27.3736 C.3       1 UNK         0.0000 
     12 C12         5.1054   53.4972   28.7617 C.3       1 UNK         0.0000 
     13 C13         6.1459   54.9722   25.2662 C.3       1 UNK         0.0000 
     14 O14         5.6610   54.0351   24.3051 O.3       1 UNK         0.0000 
     15 C15         5.7620   54.3533   22.9695 C.ar      1 UNK         0.0000 
     16 C16         6.7512   55.1949   22.4409 C.ar      1 UNK         0.0000 
     17 C17         6.7868   55.4573   21.0712 C.ar      1 UNK         0.0000 
     18 C18         5.8210   54.8931   20.2206 C.ar      1 UNK         0.0000 
     19 N19         4.8793   54.0965   20.7782 N.pl3     1 UNK         0.0000 
     20 C20         4.8249   53.8006   22.0929 C.ar      1 UNK         0.0000 
     21 N21         5.7971   55.1377   18.8040 N.pl3     1 UNK         0.0000 
     22 C22         5.2124   54.1467   17.8580 C.3       1 UNK         0.0000 
     23 C23         6.3139   53.1806   17.3544 C.3       1 UNK         0.0000 
     24 N24         7.4286   53.9592   16.7698 N.pl3     1 UNK         0.0000 
     25 C25         8.0012   54.9554   17.7002 C.3       1 UNK         0.0000 
     26 C26         6.8670   55.9158   18.1244 C.3       1 UNK         0.0000 
     27 S27         8.5274   53.1215   15.6654 S.o2      1 UNK         0.0000 
     28 O28         7.7034   52.5742   14.5831 O.2       1 UNK         0.0000 
     29 O29         9.6426   54.0268   15.3701 O.2       1 UNK         0.0000 
     30 C30         9.1792   51.6339   16.6456 C.3       1 UNK         0.0000 
     31 C31        10.5127   51.0817   16.0714 C.3       1 UNK         0.0000 
     32 C32        10.8946   49.6997   16.6712 C.3       1 UNK         0.0000 
     33 C33        12.3264   49.3046   16.2408 C.3       1 UNK         0.0000 
     34 C34        12.4641   49.2709   14.7027 C.3       1 UNK         0.0000 
     35 C35        11.9640   50.5773   14.0519 C.3       1 UNK         0.0000 
     36 C36        10.5418   50.9266   14.5297 C.3       1 UNK         0.0000 
     37 H37        -0.8916   51.8779   30.8683 H         1 UNK         0.0000 
     38 H38        -0.4700   53.5026   30.3332 H         1 UNK         0.0000 
     39 H39         0.6854   52.5422   31.2565 H         1 UNK         0.0000 
     40 H40         0.8561   50.8974   29.3460 H         1 UNK         0.0000 
     41 H41        -1.4349   51.2364   28.3934 H         1 UNK         0.0000 
     42 H42        -0.9220   52.8065   27.7677 H         1 UNK         0.0000 
     43 H43        -0.1668   51.3273   27.1821 H         1 UNK         0.0000 
     44 H44         2.0474   54.6133   27.5105 H         1 UNK         0.0000 
     45 H45         3.1968   55.6413   28.3301 H         1 UNK         0.0000 
     46 H46         3.5869   53.9012   25.7906 H         1 UNK         0.0000 
     47 H47         3.5487   55.6168   25.8298 H         1 UNK         0.0000 
     48 H48         5.6546   55.6617   27.2376 H         1 UNK         0.0000 
     49 H49         6.8600   53.4789   27.4935 H         1 UNK         0.0000 
     50 H50         5.5225   52.6464   26.7971 H         1 UNK         0.0000 
     51 H51         5.4325   54.3153   29.4036 H         1 UNK         0.0000 
     52 H52         5.3843   52.5639   29.2540 H         1 UNK         0.0000 
     53 H53         5.9933   55.9984   24.9225 H         1 UNK         0.0000 
     54 H54         7.2206   54.8424   25.4042 H         1 UNK         0.0000 
     55 H55         7.5016   55.6399   23.0762 H         1 UNK         0.0000 
     56 H56         7.5838   56.0797   20.6951 H         1 UNK         0.0000 
     57 H57         4.0209   53.1483   22.4021 H         1 UNK         0.0000 
     58 H58         4.4012   53.5909   18.3295 H         1 UNK         0.0000 
     59 H59         4.7774   54.7055   17.0258 H         1 UNK         0.0000 
     60 H60         5.9014   52.5096   16.5997 H         1 UNK         0.0000 
     61 H61         6.6799   52.6152   18.2146 H         1 UNK         0.0000 
     62 H62         8.7928   55.5145   17.1997 H         1 UNK         0.0000 
     63 H63         8.3860   54.4433   18.5833 H         1 UNK         0.0000 
     64 H64         6.4176   56.3891   17.2485 H         1 UNK         0.0000 
     65 H65         7.2242   56.7329   18.7491 H         1 UNK         0.0000 
     66 H66         9.3089   51.9504   17.6807 H         1 UNK         0.0000 
     67 H67         8.3804   50.8963   16.6264 H         1 UNK         0.0000 
     68 H68        11.2899   51.8010   16.3409 H         1 UNK         0.0000 
     69 H69        10.8587   49.7426   17.7598 H         1 UNK         0.0000 
     70 H70        10.1664   48.9270   16.4073 H         1 UNK         0.0000 
     71 H71        13.0419   50.0166   16.6566 H         1 UNK         0.0000 
     72 H72        12.6010   48.3340   16.6531 H         1 UNK         0.0000 
     73 H73        13.4999   49.0851   14.4161 H         1 UNK         0.0000 
     74 H74        11.8925   48.4315   14.3029 H         1 UNK         0.0000 
     75 H75        12.6450   51.3919   14.2978 H         1 UNK         0.0000 
     76 H76        11.9821   50.4958   12.9644 H         1 UNK         0.0000 
     77 H77         9.7986   50.1995   14.1960 H         1 UNK         0.0000 
     78 H78        10.2568   51.8534   14.0338 H         1 UNK         0.0000 
     79 H79         4.1759   53.7048   20.1675 H         1 UNK         0.0000 
@<TRIPOS>BOND
     1    1    2 1    
     2    1   37 1    
     3    1   38 1    
     4    1   39 1    
     5    2    3 1    
     6    2    4 1    
     7    2   40 1    
     8    3   41 1    
     9    3   42 1    
    10    3   43 1    
    11    4    5 1    
    12    5    6 2    
    13    5    7 am   BACKBONE|DICT|INTERRES
    14    7   12 1    
    15    7    8 1    
    16    8    9 1    
    17    8   44 1    
    18    8   45 1    
    19    9   10 1    
    20    9   46 1    
    21    9   47 1    
    22   10   11 1    
    23   10   13 1    
    24   10   48 1    
    25   11   12 1    
    26   11   49 1    
    27   11   50 1    
    28   12   51 1    
    29   12   52 1    
    30   13   14 1    
    31   13   53 1    
    32   13   54 1    
    33   14   15 1    
    34   15   20 ar   
    35   15   16 ar   
    36   16   17 ar   
    37   16   55 1    
    38   17   18 ar   
    39   17   56 1    
    40   18   19 ar   
    41   18   21 1    
    42   19   20 ar   
    43   19   79 1    
    44   20   57 1    
    45   21   26 1    
    46   21   22 1    
    47   22   23 1    
    48   22   58 1    
    49   22   59 1    
    50   23   24 1    
    51   23   60 1    
    52   23   61 1    
    53   24   25 1    
    54   24   27 1    
    55   25   26 1    
    56   25   62 1    
    57   25   63 1    
    58   26   64 1    
    59   26   65 1    
    60   27   28 2    
    61   27   29 2    
    62   27   30 1    
    63   30   31 1    
    64   30   66 1    
    65   30   67 1    
    66   31   36 1    
    67   31   32 1    
    68   31   68 1    
    69   32   33 1    
    70   32   69 1    
    71   32   70 1    
    72   33   34 1    
    73   33   71 1    
    74   33   72 1    
    75   34   35 1    
    76   34   73 1    
    77   34   74 1    
    78   35   36 1    
    79   35   75 1    
    80   35   76 1    
    81   36   77 1    
    82   36   78 1    
@<TRIPOS>SUBSTRUCTURE
     1 UNK         1 GROUP             0       ****    0 ROOT    
