@<TRIPOS>MOLECULE
ZINC10876428_2701
60   62    1
SMALL
USER_CHARGES


@<TRIPOS>ATOM
      1 C1          6.0358   54.6460   22.8725 C.3       1 UNK         0.0000 
      2 C2          4.6795   54.2415   23.4320 C.2       1 UNK         0.0000 
      3 C3          3.5872   53.8677   22.6328 C.2       1 UNK         0.0000 
      4 S4          2.1959   53.4556   23.6008 S.3       1 UNK         0.0000 
      5 C5          3.1015   53.6470   25.0490 C.ar      1 UNK         0.0000 
      6 C6          4.3906   54.0878   24.8074 C.ar      1 UNK         0.0000 
      7 C7          5.2480   54.3611   25.9555 C.ar      1 UNK         0.0000 
      8 O8          6.2901   55.0208   25.9002 O.2       1 UNK         0.0000 
      9 N9          4.7360   53.7726   27.1204 N.pl3     1 UNK         0.0000 
     10 C10         3.4070   53.3315   27.2727 C.ar      1 UNK         0.0000 
     11 N11         2.6060   53.2970   26.2628 N.2       1 UNK         0.0000 
     12 S12         2.7586   52.7487   28.8812 S.3       1 UNK         0.0000 
     13 C13         1.4477   51.5597   28.4188 C.3       1 UNK         0.0000 
     14 C14         0.0981   52.1756   28.0374 C.2       1 UNK         0.0000 
     15 O15        -0.0959   53.3816   28.2045 O.2       1 UNK         0.0000 
     16 N16        -0.8098   51.2966   27.5583 N.am      1 UNK         0.0000 
     17 C17        -1.9708   51.5795   26.9372 C.2       1 UNK         0.0000 
     18 O18        -2.2996   52.6779   26.4817 O.2       1 UNK         0.0000 
     19 N19        -2.7571   50.4926   26.8816 N.am      1 UNK         0.0000 
     20 C20        -4.1894   50.4896   26.5578 C.3       1 UNK         0.0000 
     21 H21        -4.4498   49.4416   26.7223 H         1 UNK         0.0000 
     22 C22        -4.5048   50.7877   25.0676 C.3       1 UNK         0.0000 
     23 C23        -6.0029   50.6017   24.7306 C.3       1 UNK         0.0000 
     24 C24        -6.9401   51.3250   25.7200 C.3       1 UNK         0.0000 
     25 C25        -6.5882   50.9843   27.1814 C.3       1 UNK         0.0000 
     26 C26        -5.1148   51.3317   27.4888 C.3       1 UNK         0.0000 
     27 H27        -4.9871   52.3845   27.2274 H         1 UNK         0.0000 
     28 C28        -4.8087   51.1389   28.9899 C.3       1 UNK         0.0000 
     29 C29         5.6396   53.6856   28.3104 C.3       1 UNK         0.0000 
     30 C30         7.1415   53.4002   28.0821 C.3       1 UNK         0.0000 
     31 C31         5.4913   54.9301   29.1727 C.3       1 UNK         0.0000 
     32 C32         3.5058   53.7798   21.1264 C.3       1 UNK         0.0000 
     33 H33         6.1165   54.5311   21.7915 H         1 UNK         0.0000 
     34 H34         6.3044   55.6723   23.1270 H         1 UNK         0.0000 
     35 H35         6.8305   54.0385   23.3093 H         1 UNK         0.0000 
     36 H36         1.2836   50.9060   29.2753 H         1 UNK         0.0000 
     37 H37         1.8057   50.9333   27.6042 H         1 UNK         0.0000 
     38 H38        -0.6073   50.3134   27.6813 H         1 UNK         0.0000 
     39 H39        -2.4250   49.6611   27.3642 H         1 UNK         0.0000 
     40 H40        -3.9050   50.1456   24.4202 H         1 UNK         0.0000 
     41 H41        -4.2187   51.8138   24.8319 H         1 UNK         0.0000 
     42 H42        -6.2382   49.5365   24.7387 H         1 UNK         0.0000 
     43 H43        -6.1999   50.9441   23.7133 H         1 UNK         0.0000 
     44 H44        -7.9770   51.0577   25.5134 H         1 UNK         0.0000 
     45 H45        -6.8685   52.4036   25.5661 H         1 UNK         0.0000 
     46 H46        -7.2434   51.5469   27.8484 H         1 UNK         0.0000 
     47 H47        -6.7932   49.9363   27.4097 H         1 UNK         0.0000 
     48 H48        -4.9260   50.0952   29.2869 H         1 UNK         0.0000 
     49 H49        -3.7884   51.4325   29.2376 H         1 UNK         0.0000 
     50 H50        -5.4746   51.7380   29.6122 H         1 UNK         0.0000 
     51 H51         5.3302   52.8291   28.9098 H         1 UNK         0.0000 
     52 H52         7.6399   53.2968   29.0412 H         1 UNK         0.0000 
     53 H53         7.3139   52.4967   27.5074 H         1 UNK         0.0000 
     54 H54         7.6804   54.2240   27.6196 H         1 UNK         0.0000 
     55 H55         6.0786   54.8968   30.0817 H         1 UNK         0.0000 
     56 H56         5.9044   55.7322   28.5827 H         1 UNK         0.0000 
     57 H57         4.4590   55.1558   29.4414 H         1 UNK         0.0000 
     58 H58         4.3513   53.2337   20.7072 H         1 UNK         0.0000 
     59 H59         2.6061   53.2671   20.7859 H         1 UNK         0.0000 
     60 H60         3.5049   54.7668   20.6678 H         1 UNK         0.0000 
@<TRIPOS>BOND
     1    1    2 1    
     2    1   33 1    
     3    1   34 1    
     4    1   35 1    
     5    2    6 1    
     6    2    3 2    
     7    3    4 1    
     8    3   32 1    
     9    4    5 1    
    10    5   11 ar   
    11    5    6 ar   
    12    6    7 ar   
    13    7    8 2    
    14    7    9 ar   
    15    9   10 ar   
    16    9   29 1    
    17   10   11 ar   
    18   10   12 1    
    19   12   13 1    
    20   13   14 1    
    21   13   36 1    
    22   13   37 1    
    23   14   15 2    
    24   14   16 am   BACKBONE|DICT|INTERRES
    25   16   17 am   BACKBONE|DICT|INTERRES
    26   16   38 1    
    27   17   18 2    
    28   17   19 am   BACKBONE|DICT|INTERRES
    29   19   20 1    
    30   19   39 1    
    31   20   21 1    
    32   20   26 1    
    33   20   22 1    
    34   22   23 1    
    35   22   40 1    
    36   22   41 1    
    37   23   24 1    
    38   23   42 1    
    39   23   43 1    
    40   24   25 1    
    41   24   44 1    
    42   24   45 1    
    43   25   26 1    
    44   25   46 1    
    45   25   47 1    
    46   26   27 1    
    47   26   28 1    
    48   28   48 1    
    49   28   49 1    
    50   28   50 1    
    51   29   30 1    
    52   29   31 1    
    53   29   51 1    
    54   30   52 1    
    55   30   53 1    
    56   30   54 1    
    57   31   55 1    
    58   31   56 1    
    59   31   57 1    
    60   32   58 1    
    61   32   59 1    
    62   32   60 1    
@<TRIPOS>SUBSTRUCTURE
     1 UNK         1 GROUP             0       ****    0 ROOT    
