@<TRIPOS>MOLECULE
ZINC49122876_1600
42   43    1
SMALL
USER_CHARGES


@<TRIPOS>ATOM
      1 C1          3.2852   54.0727   29.6679 C.3       1 UNK         0.0000 
      2 C2          3.3906   54.4597   28.1847 C.3       1 UNK         0.0000 
      3 C3          4.2327   53.4876   27.3075 C.3       1 UNK         0.0000 
      4 H4          3.7656   52.5043   27.3884 H         1 UNK         0.0000 
      5 C5          5.7014   53.3430   27.7882 C.3       1 UNK         0.0000 
      6 C6          6.5628   54.5886   27.4939 C.3       1 UNK         0.0000 
      7 C7          6.5441   54.9533   25.9952 C.3       1 UNK         0.0000 
      8 C8          5.1012   55.0864   25.4710 C.3       1 UNK         0.0000 
      9 C9          4.2621   53.8275   25.7834 C.3       1 UNK         0.0000 
     10 H10         4.6897   52.9938   25.2334 H         1 UNK         0.0000 
     11 N11         2.8906   54.0968   25.3087 N.pl3     1 UNK         0.0000 
     12 S12         2.3050   53.5582   23.7460 S.o2      1 UNK         0.0000 
     13 O13         1.2559   54.4965   23.3429 O.2       1 UNK         0.0000 
     14 O14         3.4618   53.2971   22.8819 O.2       1 UNK         0.0000 
     15 C15         1.4825   52.0070   24.0800 C.ar      1 UNK         0.0000 
     16 C16         1.7112   50.8828   23.2816 C.ar      1 UNK         0.0000 
     17 C17         1.0602   49.6966   23.6135 C.ar      1 UNK         0.0000 
     18 N18         0.2133   49.5813   24.6695 N.ar      1 UNK         0.0000 
     19 C19        -0.0231   50.6818   25.4285 C.ar      1 UNK         0.0000 
     20 C20         0.5922   51.9130   25.1552 C.ar      1 UNK         0.0000 
     21 N21        -0.9297   50.4988   26.4820 N.pl3     1 UNK         0.0000 
     22 N22        -1.2746   51.5718   27.3983 N.3       1 UNK         0.0000 
     23 H23         2.5756   54.7278   30.1742 H         1 UNK         0.0000 
     24 H24         2.9395   53.0468   29.7914 H         1 UNK         0.0000 
     25 H25         4.2412   54.1716   30.1807 H         1 UNK         0.0000 
     26 H26         3.7912   55.4663   28.1179 H         1 UNK         0.0000 
     27 H27         2.3725   54.5172   27.7979 H         1 UNK         0.0000 
     28 H28         6.1586   52.4967   27.2815 H         1 UNK         0.0000 
     29 H29         5.7458   53.1047   28.8498 H         1 UNK         0.0000 
     30 H30         6.1988   55.4306   28.0813 H         1 UNK         0.0000 
     31 H31         7.5871   54.4160   27.8231 H         1 UNK         0.0000 
     32 H32         7.0858   55.8853   25.8257 H         1 UNK         0.0000 
     33 H33         7.0686   54.1851   25.4240 H         1 UNK         0.0000 
     34 H34         4.6443   55.9674   25.9160 H         1 UNK         0.0000 
     35 H35         5.1144   55.2717   24.3959 H         1 UNK         0.0000 
     36 H36         2.3917   54.8743   25.7445 H         1 UNK         0.0000 
     37 H37         2.3872   50.9238   22.4388 H         1 UNK         0.0000 
     38 H38         1.2281   48.8010   23.0343 H         1 UNK         0.0000 
     39 H39         0.3934   52.7802   25.7654 H         1 UNK         0.0000 
     40 H40        -1.0388   49.5875   26.9389 H         1 UNK         0.0000 
     41 H41        -0.4348   52.0687   27.6627 H         1 UNK         0.0000 
     42 H42        -1.9635   52.1680   26.9597 H         1 UNK         0.0000 
@<TRIPOS>BOND
     1    1    2 1    
     2    1   23 1    
     3    1   24 1    
     4    1   25 1    
     5    2    3 1    
     6    2   26 1    
     7    2   27 1    
     8    3    4 1    
     9    3    9 1    
    10    3    5 1    
    11    5    6 1    
    12    5   28 1    
    13    5   29 1    
    14    6    7 1    
    15    6   30 1    
    16    6   31 1    
    17    7    8 1    
    18    7   32 1    
    19    7   33 1    
    20    8    9 1    
    21    8   34 1    
    22    8   35 1    
    23    9   10 1    
    24    9   11 1    
    25   11   12 1    
    26   11   36 1    
    27   12   13 2    
    28   12   14 2    
    29   12   15 1    
    30   15   20 ar   
    31   15   16 ar   
    32   16   17 ar   
    33   16   37 1    
    34   17   18 ar   
    35   17   38 1    
    36   18   19 ar   
    37   19   20 ar   
    38   19   21 1    
    39   20   39 1    
    40   21   22 1    
    41   21   40 1    
    42   22   41 1    
    43   22   42 1    
@<TRIPOS>SUBSTRUCTURE
     1 UNK         1 GROUP             0       ****    0 ROOT    
