@<TRIPOS>MOLECULE
ZINC13363058_523
56   59    1
SMALL
USER_CHARGES


@<TRIPOS>ATOM
      1 C1          0.3885   48.9365   25.3408 C.3       1 UNK         0.0000 
      2 C2          0.7045   50.0864   24.4036 C.ar      1 UNK         0.0000 
      3 C3          1.2393   50.0685   23.1284 C.ar      1 UNK         0.0000 
      4 C4          1.4170   51.3717   22.6594 C.ar      1 UNK         0.0000 
      5 C5          0.9003   52.2008   23.6630 C.ar      1 UNK         0.0000 
      6 N6          0.5077   51.4111   24.7375 N.pl3     1 UNK         0.0000 
      7 C7         -0.0012   51.8906   26.0326 C.3       1 UNK         0.0000 
      8 C8          1.1523   52.1332   27.0374 C.3       1 UNK         0.0000 
      9 H9          1.6289   51.1813   27.2804 H         1 UNK         0.0000 
     10 C10         0.7014   52.7626   28.3830 C.3       1 UNK         0.0000 
     11 O11         1.8284   52.8959   29.2655 O.3       1 UNK         0.0000 
     12 C12         2.9407   53.4501   28.6614 C.ar      1 UNK         0.0000 
     13 C13         3.9522   53.9576   29.4695 C.ar      1 UNK         0.0000 
     14 C14         5.1056   54.4925   28.8869 C.ar      1 UNK         0.0000 
     15 C15         5.2652   54.4967   27.5039 C.ar      1 UNK         0.0000 
     16 C16         4.2573   53.9829   26.6955 C.ar      1 UNK         0.0000 
     17 C17         3.1058   53.4499   27.2698 C.ar      1 UNK         0.0000 
     18 O18         2.1267   52.9852   26.4222 O.3       1 UNK         0.0000 
     19 C19         0.7554   53.7149   23.6818 C.3       1 UNK         0.0000 
     20 C20         2.0053   51.7557   21.3824 C.2       1 UNK         0.0000 
     21 C21         3.0277   52.6231   21.1959 C.2       1 UNK         0.0000 
     22 C22         3.6665   53.2460   22.3104 C.1       1 UNK         0.0000 
     23 N23         4.2095   53.7216   23.2086 N.1       1 UNK         0.0000 
     24 C24         3.5115   52.9457   19.8584 C.2       1 UNK         0.0000 
     25 O25         2.9634   52.5001   18.8477 O.2       1 UNK         0.0000 
     26 N26         4.5715   53.7946   19.8397 N.am      1 UNK         0.0000 
     27 C27         5.3010   54.3641   18.7693 C.ar      1 UNK         0.0000 
     28 C28         5.2350   53.8379   17.4678 C.ar      1 UNK         0.0000 
     29 C29         5.9273   54.4335   16.4175 C.ar      1 UNK         0.0000 
     30 C30         6.6956   55.5675   16.6482 C.ar      1 UNK         0.0000 
     31 C31         6.7913   56.0928   17.9324 C.ar      1 UNK         0.0000 
     32 C32         6.1228   55.5027   19.0185 C.ar      1 UNK         0.0000 
     33 C33         6.3270   56.0987   20.3911 C.2       1 UNK         0.0000 
     34 O34         6.7044   57.2938   20.4813 O.co2     1 UNK         0.0000 
     35 H35         0.6786   47.9789   24.9076 H         1 UNK         0.0000 
     36 H36         0.9213   49.0189   26.2866 H         1 UNK         0.0000 
     37 H37        -0.6748   48.8741   25.5759 H         1 UNK         0.0000 
     38 H38         1.5240   49.1746   22.5926 H         1 UNK         0.0000 
     39 H39        -0.5734   52.8039   25.8675 H         1 UNK         0.0000 
     40 H40        -0.7068   51.1591   26.4287 H         1 UNK         0.0000 
     41 H41         0.2669   53.7473   28.1997 H         1 UNK         0.0000 
     42 H42        -0.0522   52.1411   28.8668 H         1 UNK         0.0000 
     43 H43         3.8593   53.9277   30.5405 H         1 UNK         0.0000 
     44 H44         5.8881   54.8966   29.5130 H         1 UNK         0.0000 
     45 H45         6.1598   54.9083   27.0629 H         1 UNK         0.0000 
     46 H46         4.3764   53.9920   25.6276 H         1 UNK         0.0000 
     47 H47         1.1044   54.1720   22.7550 H         1 UNK         0.0000 
     48 H48        -0.2823   54.0218   23.8163 H         1 UNK         0.0000 
     49 H49         1.3346   54.1880   24.4725 H         1 UNK         0.0000 
     50 H50         1.5491   51.2578   20.5373 H         1 UNK         0.0000 
     51 H51         4.8929   54.1564   20.7352 H         1 UNK         0.0000 
     52 H52         4.6674   52.9478   17.2448 H         1 UNK         0.0000 
     53 H53         5.8676   54.0105   15.4259 H         1 UNK         0.0000 
     54 H54         7.2296   56.0333   15.8325 H         1 UNK         0.0000 
     55 H55         7.4117   56.9667   18.0813 H         1 UNK         0.0000 
     56 O56         6.1417   55.3590   21.3827 O.co2     1 UNK         0.0000 
@<TRIPOS>BOND
     1    1    2 1    
     2    1   35 1    
     3    1   36 1    
     4    1   37 1    
     5    2    6 ar   
     6    2    3 ar   
     7    3    4 ar   
     8    3   38 1    
     9    4    5 ar   
    10    4   20 1    
    11    5    6 ar   
    12    5   19 1    
    13    6    7 1    
    14    7    8 1    
    15    7   39 1    
    16    7   40 1    
    17    8    9 1    
    18    8   18 1    
    19    8   10 1    
    20   10   11 1    
    21   10   41 1    
    22   10   42 1    
    23   11   12 1    
    24   12   17 ar   
    25   12   13 ar   
    26   13   14 ar   
    27   13   43 1    
    28   14   15 ar   
    29   14   44 1    
    30   15   16 ar   
    31   15   45 1    
    32   16   17 ar   
    33   16   46 1    
    34   17   18 1    
    35   19   47 1    
    36   19   48 1    
    37   19   49 1    
    38   20   21 2    
    39   20   50 1    
    40   21   22 1    
    41   21   24 1    
    42   22   23 3    
    43   24   25 2    
    44   24   26 am   BACKBONE|DICT|INTERRES
    45   26   27 1    
    46   26   51 1    
    47   27   32 ar   
    48   27   28 ar   
    49   28   29 ar   
    50   28   52 1    
    51   29   30 ar   
    52   29   53 1    
    53   30   31 ar   
    54   30   54 1    
    55   31   32 ar   
    56   31   55 1    
    57   32   33 1    
    58   33   34 2    
    59   33   56 1    
@<TRIPOS>SUBSTRUCTURE
     1 UNK         1 GROUP             0       ****    0 ROOT    
