@<TRIPOS>MOLECULE
ZINC38051342_1897
35   37    1
SMALL
USER_CHARGES


@<TRIPOS>ATOM
      1 C1          0.6848   52.3926   22.0310 C.ar      1 UNK         0.0000 
      2 C2         -0.1246   52.0518   20.9508 C.ar      1 UNK         0.0000 
      3 C3         -1.4153   51.5788   21.1758 C.ar      1 UNK         0.0000 
      4 C4         -1.8970   51.4190   22.4733 C.ar      1 UNK         0.0000 
      5 C5         -1.0888   51.7521   23.5578 C.ar      1 UNK         0.0000 
      6 C6          0.1921   52.2637   23.3387 C.ar      1 UNK         0.0000 
      7 N7          0.9547   52.6039   24.4666 N.am      1 UNK         0.0000 
      8 C8          1.7862   53.6677   24.5875 C.2       1 UNK         0.0000 
      9 O9          1.9081   54.4968   23.6840 O.2       1 UNK         0.0000 
     10 N10         2.5517   53.6906   25.7257 N.am      1 UNK         0.0000 
     11 C11         1.8757   53.2673   26.9806 C.3       1 UNK         0.0000 
     12 C12         2.2354   54.2694   28.0849 C.3       1 UNK         0.0000 
     13 S13         3.9647   54.0418   28.5287 S.3       1 UNK         0.0000 
     14 C14         4.6714   54.2656   26.9181 C.ar      1 UNK         0.0000 
     15 C15         3.9465   54.0585   25.7141 C.ar      1 UNK         0.0000 
     16 C16         4.6728   54.1710   24.5033 C.ar      1 UNK         0.0000 
     17 C17         6.0233   54.4962   24.4800 C.ar      1 UNK         0.0000 
     18 C18         6.7019   54.6881   25.6695 C.ar      1 UNK         0.0000 
     19 C19         6.0335   54.5718   26.8811 C.ar      1 UNK         0.0000 
     20 N20         6.7044   54.6167   23.2722 N.pl3     1 UNK         0.0000 
     21 F21        -2.2118   51.2794   20.1257 F         1 UNK         0.0000 
     22 H22         1.6821   52.7652   21.8430 H         1 UNK         0.0000 
     23 H23         0.2445   52.1667   19.9418 H         1 UNK         0.0000 
     24 H24        -2.8950   51.0404   22.6360 H         1 UNK         0.0000 
     25 H25        -1.4703   51.6296   24.5618 H         1 UNK         0.0000 
     26 H26         0.8394   52.0085   25.2720 H         1 UNK         0.0000 
     27 H27         0.7886   53.2083   26.8974 H         1 UNK         0.0000 
     28 H28         2.2658   52.2960   27.2904 H         1 UNK         0.0000 
     29 H29         2.0819   55.3035   27.7727 H         1 UNK         0.0000 
     30 H30         1.6340   54.1027   28.9790 H         1 UNK         0.0000 
     31 H31         4.2089   53.9887   23.5470 H         1 UNK         0.0000 
     32 H32         7.7547   54.8967   25.6427 H         1 UNK         0.0000 
     33 H33         6.5817   54.7055   27.8033 H         1 UNK         0.0000 
     34 H34         6.2020   54.5054   22.4039 H         1 UNK         0.0000 
     35 H35         7.6852   54.8767   23.2819 H         1 UNK         0.0000 
@<TRIPOS>BOND
     1    1    6 ar   
     2    1    2 ar   
     3    1   22 1    
     4    2    3 ar   
     5    2   23 1    
     6    3    4 ar   
     7    3   21 1    
     8    4    5 ar   
     9    4   24 1    
    10    5    6 ar   
    11    5   25 1    
    12    6    7 1    
    13    7    8 am   BACKBONE|DICT|INTERRES
    14    7   26 1    
    15    8    9 2    
    16    8   10 am   BACKBONE|DICT|INTERRES
    17   10   15 1    
    18   10   11 1    
    19   11   12 1    
    20   11   27 1    
    21   11   28 1    
    22   12   13 1    
    23   12   29 1    
    24   12   30 1    
    25   13   14 1    
    26   14   19 ar   
    27   14   15 ar   
    28   15   16 ar   
    29   16   17 ar   
    30   16   31 1    
    31   17   18 ar   
    32   17   20 1    
    33   18   19 ar   
    34   18   32 1    
    35   19   33 1    
    36   20   34 1    
    37   20   35 1    
@<TRIPOS>SUBSTRUCTURE
     1 UNK         1 GROUP             0       ****    0 ROOT    
