@<TRIPOS>MOLECULE
ZINC39684688_2211
74   76    1
SMALL
USER_CHARGES


@<TRIPOS>ATOM
      1 C1          0.1113   49.7951   17.2837 C.3       1 UNK         0.0000 
      2 C2          1.3984   50.6559   17.2351 C.3       1 UNK         0.0000 
      3 H3          2.2415   49.9694   17.3464 H         1 UNK         0.0000 
      4 C4          1.6311   51.4155   15.8753 C.3       1 UNK         0.0000 
      5 C5          1.8134   50.4206   14.7001 C.3       1 UNK         0.0000 
      6 C6          2.9189   52.2815   15.9471 C.3       1 UNK         0.0000 
      7 C7          0.4454   52.3573   15.5486 C.3       1 UNK         0.0000 
      8 N8          1.4756   51.5672   18.3839 N.am      1 UNK         0.0000 
      9 C9          1.6230   51.2372   19.6785 C.2       1 UNK         0.0000 
     10 O10         1.6487   50.0737   20.0815 O.2       1 UNK         0.0000 
     11 C11         1.8896   52.4281   20.6322 C.3       1 UNK         0.0000 
     12 H12         2.0967   53.2964   20.0111 H         1 UNK         0.0000 
     13 C13         0.6446   52.7334   21.4602 C.3       1 UNK         0.0000 
     14 N14         0.8457   52.0808   22.7502 N.am      1 UNK         0.0000 
     15 C15         2.1915   51.4930   22.8389 C.3       1 UNK         0.0000 
     16 C16         2.9888   52.1997   21.7124 C.3       1 UNK         0.0000 
     17 C17         4.2736   51.4592   21.2618 C.3       1 UNK         0.0000 
     18 C18         4.9362   52.1913   20.0804 C.3       1 UNK         0.0000 
     19 N19         5.2996   53.6352   20.5066 N.4       1 UNK         0.0000 
     20 C20         4.1917   54.4310   21.2325 C.3       1 UNK         0.0000 
     21 C21         3.5428   53.5325   22.3067 C.3       1 UNK         0.0000 
     22 C22         0.0149   52.3418   23.7977 C.2       1 UNK         0.0000 
     23 O23        -0.9919   53.0457   23.6816 O.2       1 UNK         0.0000 
     24 C24         0.2511   51.6931   25.1765 C.3       1 UNK         0.0000 
     25 H25        -0.6131   51.9791   25.7751 H         1 UNK         0.0000 
     26 C26         0.2778   50.1387   25.1284 C.3       1 UNK         0.0000 
     27 C27         0.5131   49.5769   26.5272 C.3       1 UNK         0.0000 
     28 C28        -0.9987   49.5106   24.5222 C.3       1 UNK         0.0000 
     29 O29         1.4849   52.2185   25.6916 O.3       1 UNK         0.0000 
     30 C30         1.5347   52.9283   26.8774 C.ar      1 UNK         0.0000 
     31 C31         2.6731   53.7137   27.0662 C.ar      1 UNK         0.0000 
     32 C32         2.8164   54.4941   28.2109 C.ar      1 UNK         0.0000 
     33 C33         1.8208   54.4760   29.1845 C.ar      1 UNK         0.0000 
     34 C34         0.6971   53.6686   29.0304 C.ar      1 UNK         0.0000 
     35 C35         0.5536   52.8934   27.8823 C.ar      1 UNK         0.0000 
     36 H36         0.0157   49.1609   16.4051 H         1 UNK         0.0000 
     37 H37         0.1174   49.1166   18.1369 H         1 UNK         0.0000 
     38 H38        -0.7869   50.4105   17.3324 H         1 UNK         0.0000 
     39 H39         0.9129   49.8411   14.4999 H         1 UNK         0.0000 
     40 H40         2.0573   50.9402   13.7724 H         1 UNK         0.0000 
     41 H41         2.6236   49.7140   14.8864 H         1 UNK         0.0000 
     42 H42         2.8281   53.1000   16.6618 H         1 UNK         0.0000 
     43 H43         3.7859   51.6911   16.2452 H         1 UNK         0.0000 
     44 H44         3.1552   52.7339   14.9831 H         1 UNK         0.0000 
     45 H45         0.2637   53.0740   16.3500 H         1 UNK         0.0000 
     46 H46         0.6297   52.9317   14.6399 H         1 UNK         0.0000 
     47 H47        -0.4805   51.8034   15.3905 H         1 UNK         0.0000 
     48 H48         1.5077   52.5458   18.1439 H         1 UNK         0.0000 
     49 H49         0.7047   53.7934   21.6645 H         1 UNK         0.0000 
     50 H50        -0.3092   52.5308   20.9691 H         1 UNK         0.0000 
     51 H51         2.1447   50.4408   22.5536 H         1 UNK         0.0000 
     52 H52         2.7042   51.5958   23.7921 H         1 UNK         0.0000 
     53 H53         4.0128   50.4598   20.9204 H         1 UNK         0.0000 
     54 H54         4.9868   51.3026   22.0668 H         1 UNK         0.0000 
     55 H55         4.2880   52.2728   19.2068 H         1 UNK         0.0000 
     56 H56         5.8621   51.7050   19.7656 H         1 UNK         0.0000 
     57 H57         5.6228   54.1518   19.6978 H         1 UNK         0.0000 
     58 H58         3.5054   54.7838   20.4643 H         1 UNK         0.0000 
     59 H59         4.6881   55.2953   21.6723 H         1 UNK         0.0000 
     60 H60         4.2265   53.3498   23.1387 H         1 UNK         0.0000 
     61 H61         2.7292   54.1112   22.7478 H         1 UNK         0.0000 
     62 H62         1.1188   49.8024   24.5235 H         1 UNK         0.0000 
     63 H63        -0.2127   49.9626   27.2421 H         1 UNK         0.0000 
     64 H64         0.4348   48.4966   26.5358 H         1 UNK         0.0000 
     65 H65         1.5043   49.8247   26.8997 H         1 UNK         0.0000 
     66 H66        -1.8905   49.8028   25.0790 H         1 UNK         0.0000 
     67 H67        -1.1459   49.8031   23.4818 H         1 UNK         0.0000 
     68 H68        -0.9469   48.4208   24.5409 H         1 UNK         0.0000 
     69 H69         3.4432   53.7278   26.3094 H         1 UNK         0.0000 
     70 H70         3.6940   55.1106   28.3391 H         1 UNK         0.0000 
     71 H71         1.9228   55.0875   30.0690 H         1 UNK         0.0000 
     72 H72        -0.0629   53.6413   29.7983 H         1 UNK         0.0000 
     73 H73        -0.3207   52.2671   27.8083 H         1 UNK         0.0000 
     74 H74         6.0885   53.5797   21.1352 H         1 UNK         0.0000 
@<TRIPOS>BOND
     1    1    2 1    
     2    1   36 1    
     3    1   37 1    
     4    1   38 1    
     5    2    3 1    
     6    2    4 1    
     7    2    8 1    
     8    4    5 1    
     9    4    6 1    
    10    4    7 1    
    11    5   39 1    
    12    5   40 1    
    13    5   41 1    
    14    6   42 1    
    15    6   43 1    
    16    6   44 1    
    17    7   45 1    
    18    7   46 1    
    19    7   47 1    
    20    8    9 am   BACKBONE|DICT|INTERRES
    21    8   48 1    
    22    9   10 2    
    23    9   11 1    
    24   11   12 1    
    25   11   16 1    
    26   11   13 1    
    27   13   14 1    
    28   13   49 1    
    29   13   50 1    
    30   14   15 1    
    31   14   22 am   BACKBONE|DICT|INTERRES
    32   15   16 1    
    33   15   51 1    
    34   15   52 1    
    35   16   21 1    
    36   16   17 1    
    37   17   18 1    
    38   17   53 1    
    39   17   54 1    
    40   18   19 1    
    41   18   55 1    
    42   18   56 1    
    43   19   20 1    
    44   19   57 1    
    45   19   74 1    
    46   20   21 1    
    47   20   58 1    
    48   20   59 1    
    49   21   60 1    
    50   21   61 1    
    51   22   23 2    
    52   22   24 1    
    53   24   25 1    
    54   24   26 1    
    55   24   29 1    
    56   26   27 1    
    57   26   28 1    
    58   26   62 1    
    59   27   63 1    
    60   27   64 1    
    61   27   65 1    
    62   28   66 1    
    63   28   67 1    
    64   28   68 1    
    65   29   30 1    
    66   30   35 ar   
    67   30   31 ar   
    68   31   32 ar   
    69   31   69 1    
    70   32   33 ar   
    71   32   70 1    
    72   33   34 ar   
    73   33   71 1    
    74   34   35 ar   
    75   34   72 1    
    76   35   73 1    
@<TRIPOS>SUBSTRUCTURE
     1 UNK         1 GROUP             0       ****    0 ROOT    
