@<TRIPOS>MOLECULE
ZINC36073362_5696
77   80    1
SMALL
USER_CHARGES


@<TRIPOS>ATOM
      1 C1          4.0918   54.2090   29.4526 C.3       1 UNK         0.0000 
      2 C2          5.3713   54.3854   28.6240 C.3       1 UNK         0.0000 
      3 O3          4.9774   54.4948   27.2672 O.3       1 UNK         0.0000 
      4 C4          5.8731   54.6254   26.2618 C.2       1 UNK         0.0000 
      5 O5          7.1015   54.6368   26.3982 O.2       1 UNK         0.0000 
      6 C6          5.1970   54.7250   24.8697 C.3       1 UNK         0.0000 
      7 H7          5.1087   55.7943   24.7015 H         1 UNK         0.0000 
      8 C8          3.7817   54.0974   24.8405 C.3       1 UNK         0.0000 
      9 C9          3.1951   54.2071   23.4337 C.3       1 UNK         0.0000 
     10 C10         4.0939   53.5651   22.3605 C.3       1 UNK         0.0000 
     11 N11         5.4352   54.1921   22.4438 N.am      1 UNK         0.0000 
     12 C12         6.1267   54.1708   23.7603 C.3       1 UNK         0.0000 
     13 C13         5.9898   54.8967   21.4138 C.2       1 UNK         0.0000 
     14 O14         6.9143   55.6995   21.5773 O.2       1 UNK         0.0000 
     15 C15         5.5344   54.6430   20.0576 C.2       1 UNK         0.0000 
     16 C16         5.1075   53.4285   19.5116 C.2       1 UNK         0.0000 
     17 O17         4.9263   53.5964   18.1845 O.3       1 UNK         0.0000 
     18 C18         5.2809   54.8847   17.9838 C.2       1 UNK         0.0000 
     19 N19         5.6480   55.5207   19.0722 N.2       1 UNK         0.0000 
     20 C20         5.2166   55.4254   16.5746 C.3       1 UNK         0.0000 
     21 N21         4.1774   56.5781   16.5334 N.4       1 UNK         0.0000 
     22 C22         2.9813   56.2891   15.5838 C.3       1 UNK         0.0000 
     23 C23         1.8342   55.4878   16.2076 C.ar      1 UNK         0.0000 
     24 C24         0.6827   56.1789   16.6100 C.ar      1 UNK         0.0000 
     25 C25        -0.4304   55.4984   17.1297 C.ar      1 UNK         0.0000 
     26 C26        -0.3568   54.1173   17.2816 C.ar      1 UNK         0.0000 
     27 C27         0.7793   53.4168   16.8879 C.ar      1 UNK         0.0000 
     28 C28         1.8779   54.0859   16.3252 C.ar      1 UNK         0.0000 
     29 O29         2.9926   53.4235   15.8501 O.3       1 UNK         0.0000 
     30 C30         3.1224   52.0157   16.0426 C.3       1 UNK         0.0000 
     31 O31        -1.6179   56.0988   17.4989 O.3       1 UNK         0.0000 
     32 C32        -1.8272   57.4618   17.1532 C.3       1 UNK         0.0000 
     33 C33         4.7754   58.0097   16.3702 C.3       1 UNK         0.0000 
     34 H34         3.9259   58.6384   16.6552 H         1 UNK         0.0000 
     35 C35         5.8775   58.2710   17.4191 C.3       1 UNK         0.0000 
     36 C36         5.1862   58.3907   14.9418 C.ar      1 UNK         0.0000 
     37 C37         4.3886   59.2879   14.2206 C.ar      1 UNK         0.0000 
     38 C38         4.7436   59.6610   12.9273 C.ar      1 UNK         0.0000 
     39 C39         5.9040   59.1462   12.3545 C.ar      1 UNK         0.0000 
     40 C40         6.7175   58.2702   13.0682 C.ar      1 UNK         0.0000 
     41 C41         6.3625   57.8969   14.3616 C.ar      1 UNK         0.0000 
     42 H42         4.3050   54.0991   30.5132 H         1 UNK         0.0000 
     43 H43         3.5417   53.3218   29.1359 H         1 UNK         0.0000 
     44 H44         3.4320   55.0697   29.3342 H         1 UNK         0.0000 
     45 H45         5.9044   55.2844   28.9361 H         1 UNK         0.0000 
     46 H46         6.0391   53.5327   28.7610 H         1 UNK         0.0000 
     47 H47         3.8077   53.0508   25.1456 H         1 UNK         0.0000 
     48 H48         3.1100   54.6172   25.5258 H         1 UNK         0.0000 
     49 H49         2.2090   53.7413   23.4079 H         1 UNK         0.0000 
     50 H50         3.0349   55.2548   23.1821 H         1 UNK         0.0000 
     51 H51         4.1993   52.4967   22.5270 H         1 UNK         0.0000 
     52 H52         3.5902   53.7183   21.4068 H         1 UNK         0.0000 
     53 H53         7.0706   54.7235   23.7456 H         1 UNK         0.0000 
     54 H54         6.3660   53.1313   23.9762 H         1 UNK         0.0000 
     55 H55         4.9452   52.4266   19.8848 H         1 UNK         0.0000 
     56 H56         6.1789   55.8051   16.2475 H         1 UNK         0.0000 
     57 H57         4.9476   54.6754   15.8352 H         1 UNK         0.0000 
     58 H58         2.6109   57.2687   15.2773 H         1 UNK         0.0000 
     59 H59         3.3821   55.8165   14.6853 H         1 UNK         0.0000 
     60 H60         0.6567   57.2536   16.5032 H         1 UNK         0.0000 
     61 H61        -1.1999   53.5790   17.6875 H         1 UNK         0.0000 
     62 H62         0.7769   52.3439   17.0040 H         1 UNK         0.0000 
     63 H63         4.0911   51.6955   15.6604 H         1 UNK         0.0000 
     64 H64         3.0913   51.7441   17.0987 H         1 UNK         0.0000 
     65 H65         2.3554   51.4566   15.5053 H         1 UNK         0.0000 
     66 H66        -2.8816   57.6965   17.2816 H         1 UNK         0.0000 
     67 H67        -1.2459   58.1219   17.7958 H         1 UNK         0.0000 
     68 H68        -1.5861   57.6699   16.1098 H         1 UNK         0.0000 
     69 H69         6.2274   59.2968   17.3542 H         1 UNK         0.0000 
     70 H70         5.5080   58.1259   18.4344 H         1 UNK         0.0000 
     71 H71         6.7590   57.6457   17.2904 H         1 UNK         0.0000 
     72 H72         3.4984   59.7130   14.6640 H         1 UNK         0.0000 
     73 H73         4.1263   60.3558   12.3759 H         1 UNK         0.0000 
     74 H74         6.1812   59.4371   11.3517 H         1 UNK         0.0000 
     75 H75         7.6256   57.8883   12.6225 H         1 UNK         0.0000 
     76 H76         7.0214   57.2371   14.9034 H         1 UNK         0.0000 
     77 H77         3.7631   56.5767   17.4559 H         1 UNK         0.0000 
@<TRIPOS>BOND
     1    1    2 1    
     2    1   42 1    
     3    1   43 1    
     4    1   44 1    
     5    2    3 1    
     6    2   45 1    
     7    2   46 1    
     8    3    4 1    
     9    4    5 2    
    10    4    6 1    
    11    6    7 1    
    12    6   12 1    
    13    6    8 1    
    14    8    9 1    
    15    8   47 1    
    16    8   48 1    
    17    9   10 1    
    18    9   49 1    
    19    9   50 1    
    20   10   11 1    
    21   10   51 1    
    22   10   52 1    
    23   11   12 1    
    24   11   13 am   BACKBONE|DICT|INTERRES
    25   12   53 1    
    26   12   54 1    
    27   13   14 2    
    28   13   15 1    
    29   15   19 1    
    30   15   16 2    
    31   16   17 1    
    32   16   55 1    
    33   17   18 1    
    34   18   19 2    
    35   18   20 1    
    36   20   21 1    
    37   20   56 1    
    38   20   57 1    
    39   21   22 1    
    40   21   33 1    
    41   21   77 1    
    42   22   23 1    
    43   22   58 1    
    44   22   59 1    
    45   23   28 ar   
    46   23   24 ar   
    47   24   25 ar   
    48   24   60 1    
    49   25   26 ar   
    50   25   31 1    
    51   26   27 ar   
    52   26   61 1    
    53   27   28 ar   
    54   27   62 1    
    55   28   29 1    
    56   29   30 1    
    57   30   63 1    
    58   30   64 1    
    59   30   65 1    
    60   31   32 1    
    61   32   66 1    
    62   32   67 1    
    63   32   68 1    
    64   33   34 1    
    65   33   35 1    
    66   33   36 1    
    67   35   69 1    
    68   35   70 1    
    69   35   71 1    
    70   36   41 ar   
    71   36   37 ar   
    72   37   38 ar   
    73   37   72 1    
    74   38   39 ar   
    75   38   73 1    
    76   39   40 ar   
    77   39   74 1    
    78   40   41 ar   
    79   40   75 1    
    80   41   76 1    
@<TRIPOS>SUBSTRUCTURE
     1 UNK         1 GROUP             0       ****    0 ROOT    
