@<TRIPOS>MOLECULE
ZINC15946720_3463
74   77    1
SMALL
USER_CHARGES


@<TRIPOS>ATOM
      1 C1          6.5822   54.9979   17.1062 C.3       1 UNK         0.0000 
      2 C2          6.7946   55.1388   18.6022 C.ar      1 UNK         0.0000 
      3 C3          8.0222   55.5790   19.1045 C.ar      1 UNK         0.0000 
      4 C4          8.2127   55.6967   20.4796 C.ar      1 UNK         0.0000 
      5 C5          7.1825   55.3733   21.3608 C.ar      1 UNK         0.0000 
      6 C6          5.9561   54.8985   20.8688 C.ar      1 UNK         0.0000 
      7 C7          5.7664   54.8023   19.4862 C.ar      1 UNK         0.0000 
      8 N8          4.8812   54.4965   21.6754 N.am      1 UNK         0.0000 
      9 C9          4.8876   54.0969   22.9657 C.2       1 UNK         0.0000 
     10 O10         5.8881   54.0952   23.6818 O.2       1 UNK         0.0000 
     11 C11         3.5812   53.6840   23.4662 C.2       1 UNK         0.0000 
     12 C12         3.2160   53.6969   24.8474 C.2       1 UNK         0.0000 
     13 C13         1.9481   53.1297   25.0724 C.2       1 UNK         0.0000 
     14 S14         1.1493   52.6842   23.6102 S.3       1 UNK         0.0000 
     15 C15         2.5486   53.0994   22.6884 C.2       1 UNK         0.0000 
     16 N16         2.4701   52.7779   21.3426 N.am      1 UNK         0.0000 
     17 C17         3.3021   51.9100   20.7164 C.2       1 UNK         0.0000 
     18 O18         4.2313   51.3300   21.2816 O.2       1 UNK         0.0000 
     19 C19         3.1045   51.6328   19.2136 C.3       1 UNK         0.0000 
     20 C20         1.9503   52.3649   17.0884 C.3       1 UNK         0.0000 
     21 C21         0.6482   52.9664   16.5274 C.3       1 UNK         0.0000 
     22 C22        -0.5606   52.0643   16.8462 C.3       1 UNK         0.0000 
     23 C23        -0.6845   51.9316   18.3777 C.3       1 UNK         0.0000 
     24 C24         0.5857   51.3065   18.9779 C.3       1 UNK         0.0000 
     25 C25        -1.8546   52.6084   16.2179 C.3       1 UNK         0.0000 
     26 C26         1.3406   52.8420   26.4415 C.3       1 UNK         0.0000 
     27 C27         2.0031   53.7606   27.5057 C.3       1 UNK         0.0000 
     28 H28         1.7518   54.7980   27.2820 H         1 UNK         0.0000 
     29 C29         3.5411   53.6234   27.3585 C.3       1 UNK         0.0000 
     30 C30         4.0676   54.1935   26.0270 C.3       1 UNK         0.0000 
     31 C31         1.4962   53.5046   28.9781 C.3       1 UNK         0.0000 
     32 C32         1.8924   54.7047   29.8755 C.3       1 UNK         0.0000 
     33 C33         2.0751   52.2062   29.5943 C.3       1 UNK         0.0000 
     34 C34        -0.0484   53.3998   29.0183 C.3       1 UNK         0.0000 
     35 H35         7.5302   54.9697   16.5674 H         1 UNK         0.0000 
     36 H36         5.9799   55.8235   16.7260 H         1 UNK         0.0000 
     37 H37         6.0599   54.0654   16.8849 H         1 UNK         0.0000 
     38 H38         8.8304   55.8310   18.4334 H         1 UNK         0.0000 
     39 H39         9.1603   56.0448   20.8634 H         1 UNK         0.0000 
     40 H40         7.3685   55.4883   22.4177 H         1 UNK         0.0000 
     41 H41         4.8245   54.4459   19.0933 H         1 UNK         0.0000 
     42 H42         3.9956   54.4113   21.2015 H         1 UNK         0.0000 
     43 H43         1.6212   53.0549   20.8713 H         1 UNK         0.0000 
     44 H44         3.9317   52.0963   18.6728 H         1 UNK         0.0000 
     45 H45         3.1150   50.5661   18.9782 H         1 UNK         0.0000 
     46 H46         2.7865   53.0457   16.9134 H         1 UNK         0.0000 
     47 H47         2.1841   51.3795   16.6778 H         1 UNK         0.0000 
     48 H48         0.4901   53.9774   16.9115 H         1 UNK         0.0000 
     49 H49         0.7372   53.0967   15.4474 H         1 UNK         0.0000 
     50 H50        -0.3649   51.0728   16.4307 H         1 UNK         0.0000 
     51 H51        -1.5532   51.3171   18.6272 H         1 UNK         0.0000 
     52 H52        -0.8946   52.9000   18.8345 H         1 UNK         0.0000 
     53 H53         0.7906   50.3071   18.5848 H         1 UNK         0.0000 
     54 H54         0.5090   51.2660   20.0650 H         1 UNK         0.0000 
     55 H55        -2.1063   53.6001   16.6000 H         1 UNK         0.0000 
     56 H56        -1.7672   52.6870   15.1332 H         1 UNK         0.0000 
     57 H57        -2.7026   51.9533   16.4258 H         1 UNK         0.0000 
     58 H58         0.2585   52.9641   26.4020 H         1 UNK         0.0000 
     59 H59         1.5043   51.7930   26.6900 H         1 UNK         0.0000 
     60 H60         4.0443   54.1717   28.1529 H         1 UNK         0.0000 
     61 H61         3.8532   52.5886   27.5080 H         1 UNK         0.0000 
     62 H62         5.1109   53.8938   25.9433 H         1 UNK         0.0000 
     63 H63         4.0591   55.2832   26.0526 H         1 UNK         0.0000 
     64 H64         1.5123   55.6468   29.4779 H         1 UNK         0.0000 
     65 H65         1.4852   54.6008   30.8815 H         1 UNK         0.0000 
     66 H66         2.9727   54.8090   29.9722 H         1 UNK         0.0000 
     67 H67         1.8704   51.3337   28.9732 H         1 UNK         0.0000 
     68 H68         3.1564   52.2644   29.7315 H         1 UNK         0.0000 
     69 H69         1.6450   52.0080   30.5782 H         1 UNK         0.0000 
     70 H70        -0.4117   52.4758   28.5658 H         1 UNK         0.0000 
     71 H71        -0.4366   53.4164   30.0391 H         1 UNK         0.0000 
     72 H72        -0.4965   54.2302   28.4767 H         1 UNK         0.0000 
     73 N73         1.7911   52.2205   18.6236 N.4       1 UNK         0.0000 
     74 H74         1.6389   53.1525   18.9889 H         1 UNK         0.0000 
@<TRIPOS>BOND
     1    1    2 1    
     2    1   35 1    
     3    1   36 1    
     4    1   37 1    
     5    2    7 ar   
     6    2    3 ar   
     7    3    4 ar   
     8    3   38 1    
     9    4    5 ar   
    10    4   39 1    
    11    5    6 ar   
    12    5   40 1    
    13    6    7 ar   
    14    6    8 1    
    15    7   41 1    
    16    8    9 am   BACKBONE|DICT|INTERRES
    17    8   42 1    
    18    9   10 2    
    19    9   11 1    
    20   11   15 2    
    21   11   12 1    
    22   12   30 1    
    23   12   13 2    
    24   13   14 1    
    25   13   26 1    
    26   14   15 1    
    27   15   16 am   BACKBONE|DICT|INTERRES
    28   16   17 am   BACKBONE|DICT|INTERRES
    29   16   43 1    
    30   17   18 2    
    31   17   19 1    
    32   19   44 1    
    33   19   45 1    
    34   19   73 1    
    35   20   21 1    
    36   20   46 1    
    37   20   47 1    
    38   20   73 1    
    39   21   22 1    
    40   21   48 1    
    41   21   49 1    
    42   22   23 1    
    43   22   25 1    
    44   22   50 1    
    45   23   24 1    
    46   23   51 1    
    47   23   52 1    
    48   24   53 1    
    49   24   54 1    
    50   24   73 1    
    51   25   55 1    
    52   25   56 1    
    53   25   57 1    
    54   26   27 1    
    55   26   58 1    
    56   26   59 1    
    57   27   28 1    
    58   27   29 1    
    59   27   31 1    
    60   29   30 1    
    61   29   60 1    
    62   29   61 1    
    63   30   62 1    
    64   30   63 1    
    65   31   32 1    
    66   31   33 1    
    67   31   34 1    
    68   32   64 1    
    69   32   65 1    
    70   32   66 1    
    71   33   67 1    
    72   33   68 1    
    73   33   69 1    
    74   34   70 1    
    75   34   71 1    
    76   34   72 1    
    77   73   74 1    
@<TRIPOS>SUBSTRUCTURE
     1 UNK         1 GROUP             0       ****    0 ROOT    
