ZINC49212153_1856
                    3D
 Schrodinger Suite 2024-2.
 27 28  0  0  1  0            999 V2000
    4.7485   54.4951   25.7538 C   0  0  0  0  0  0
    3.5944   54.2754   25.0029 C   0  0  0  0  0  0
    3.6664   54.0966   23.6176 C   0  0  0  0  0  0
    4.9254   54.0967   22.9945 C   0  0  0  0  0  0
    6.0810   54.3140   23.7504 C   0  0  0  0  0  0
    5.9905   54.5240   25.1256 C   0  0  0  0  0  0
    7.1044   54.7623   25.8517 F   0  0  0  0  0  0
    5.0984   53.8367   21.1126 Br  0  0  0  0  0  0
    2.4838   53.9396   22.8814 N   0  0  0  0  0  0
    1.9789   52.6302   22.7286 N   0  0  0  0  0  0
    1.1953   52.0576   23.6656 C   0  0  0  0  0  0
    0.7830   52.6302   24.6799 O   0  0  0  0  0  0
    0.9111   50.7818   23.3316 N   0  0  0  0  0  0
    0.1641   49.9001   24.0946 C   0  0  0  0  0  0
   -0.1073   49.8996   25.4568 C   0  0  0  0  0  0
   -0.8644   48.7824   25.6817 N   0  0  0  0  0  0
   -1.2023   48.4967   26.6048 H   0  0  0  0  0  0
   -1.0922   48.0683   24.5752 N   0  0  0  0  0  0
   -0.4775   48.7425   23.6285 C   0  0  0  0  0  0
    4.6813   54.6449   26.8211 H   0  0  0  0  0  0
    2.6364   54.2537   25.4992 H   0  0  0  0  0  0
    7.0497   54.3315   23.2728 H   0  0  0  0  0  0
    2.5335   54.3357   21.9490 H   0  0  0  0  0  0
    2.5332   52.0690   22.0978 H   0  0  0  0  0  0
    1.2466   50.4328   22.4470 H   0  0  0  0  0  0
    0.1674   50.5639   26.2634 H   0  0  0  0  0  0
   -0.4956   48.4034   22.6041 H   0  0  0  0  0  0
  1  6  2  0  0  0
  1  2  1  0  0  0
  1 20  1  0  0  0
  2  3  2  0  0  0
  2 21  1  0  0  0
  3  4  1  0  0  0
  3  9  1  0  0  0
  4  5  2  0  0  0
  4  8  1  0  0  0
  5  6  1  0  0  0
  5 22  1  0  0  0
  6  7  1  0  0  0
  9 10  1  0  0  0
  9 23  1  0  0  0
 10 11  1  0  0  0
 10 24  1  0  0  0
 11 12  2  0  0  0
 11 13  1  0  0  0
 13 14  1  0  0  0
 13 25  1  0  0  0
 14 19  1  0  0  0
 14 15  2  0  0  0
 15 16  1  0  0  0
 15 26  1  0  0  0
 16 17  1  0  0  0
 16 18  1  0  0  0
 18 19  2  0  0  0
 19 27  1  0  0  0
M  END
> <i_i_glide_confnum>
7

> <i_i_glide_lignum>
1857

> <i_i_glide_posenum>
187

> <i_i_glide_rotatable_bonds>
5

> <i_m_Source_File_Index>
2275

> <b_m_subgroup_collapsed>
0

> <r_i_docking_score>
-5.50804

> <r_i_glide_ecoul>
-6.96194

> <r_i_glide_eff_state_penalty>
0

> <r_i_glide_einternal>
3.19517

> <r_i_glide_emodel>
-47.94

> <r_i_glide_energy>
-35.8692

> <r_i_glide_erotb>
0.565042

> <r_i_glide_esite>
-0.106653

> <r_i_glide_evdw>
-28.9072

> <r_i_glide_gscore>
-5.50804

> <r_i_glide_hbond>
-0.240089

> <r_i_glide_ligand_efficiency>
-0.306002

> <r_i_glide_ligand_efficiency_ln>
-1.41581

> <r_i_glide_ligand_efficiency_sa>
-0.801953

> <r_i_glide_lipo>
-1.73058

> <r_i_glide_metal>
0

> <r_i_glide_rewards>
-1.50611

> <s_i_glide_gridfile>
wee1_glide-grid

> <s_m_Source_File>
wee1_decoys_glide_SP.sdf

> <s_m_Source_Path>
/Users/zhangxujun/Desktop

> <s_m_entry_id>
2550

> <s_m_entry_name>
wee1_decoys_glide_SP.2275

> <s_m_subgroup_title>
wee1_decoys_glide_SP

> <s_m_subgroupid>
wee1_decoys_glide_SP


$$$$
