@<TRIPOS>MOLECULE
ZINC22925280_1180
66   70    1
SMALL
USER_CHARGES


@<TRIPOS>ATOM
      1 C1          2.6041   55.1052   29.0335 C.ar      1 UNK         0.0000 
      2 C2          3.3960   54.4966   28.0639 C.ar      1 UNK         0.0000 
      3 C3          2.8390   53.5358   27.2255 C.ar      1 UNK         0.0000 
      4 C4          1.4907   53.1842   27.3506 C.ar      1 UNK         0.0000 
      5 C5          0.7067   53.7965   28.3362 C.ar      1 UNK         0.0000 
      6 C6          1.2640   54.7570   29.1772 C.ar      1 UNK         0.0000 
      7 C7          0.9133   52.1089   26.4170 C.3       1 UNK         0.0000 
      8 H8          1.6981   51.9051   25.6878 H         1 UNK         0.0000 
      9 C9          0.6813   50.7820   27.1783 C.3       1 UNK         0.0000 
     10 O10        -0.4164   50.9052   28.0779 O.3       1 UNK         0.0000 
     11 C11        -1.5928   51.2967   27.4751 C.ar      1 UNK         0.0000 
     12 C12        -2.7680   50.9109   28.1236 C.ar      1 UNK         0.0000 
     13 C13        -4.0022   51.2949   27.6133 C.ar      1 UNK         0.0000 
     14 C14        -4.0557   52.1011   26.4794 C.ar      1 UNK         0.0000 
     15 C15        -2.8802   52.4972   25.8414 C.ar      1 UNK         0.0000 
     16 C16        -1.6126   52.0752   26.3028 C.ar      1 UNK         0.0000 
     17 N17        -0.3548   52.3957   25.6841 N.am      1 UNK         0.0000 
     18 C18        -0.2545   52.8967   24.4110 C.2       1 UNK         0.0000 
     19 O19        -1.1660   52.8337   23.5831 O.2       1 UNK         0.0000 
     20 C20         1.0228   53.6531   23.9575 C.3       1 UNK         0.0000 
     21 N21         1.8967   52.8807   23.0434 N.3       1 UNK         0.0000 
     22 C22         1.2374   52.7108   21.7297 C.3       1 UNK         0.0000 
     23 C23         2.1529   52.0486   20.6805 C.3       1 UNK         0.0000 
     24 N24         3.3606   52.9819   20.4851 N.4       1 UNK         0.0000 
     25 C25         4.1070   53.0997   21.8319 C.3       1 UNK         0.0000 
     26 C26         3.1274   53.6848   22.8737 C.3       1 UNK         0.0000 
     27 C27         4.2905   52.5039   19.3392 C.3       1 UNK         0.0000 
     28 C28         5.0813   53.7083   18.8169 C.2       1 UNK         0.0000 
     29 O29         6.3072   53.6795   18.8823 O.2       1 UNK         0.0000 
     30 N30         4.3566   54.7357   18.3197 N.am      1 UNK         0.0000 
     31 C31         4.8072   55.9859   17.8565 C.ar      1 UNK         0.0000 
     32 C32         3.9048   56.7306   17.0880 C.ar      1 UNK         0.0000 
     33 C33         4.2665   57.9821   16.5899 C.ar      1 UNK         0.0000 
     34 C34         5.5322   58.4984   16.8602 C.ar      1 UNK         0.0000 
     35 C35         6.4312   57.7791   17.6438 C.ar      1 UNK         0.0000 
     36 C36         6.0737   56.5286   18.1433 C.ar      1 UNK         0.0000 
     37 F37         7.6485   58.2961   17.9290 F         1 UNK         0.0000 
     38 H38         3.0349   55.8541   29.6817 H         1 UNK         0.0000 
     39 H39         4.4397   54.7644   27.9654 H         1 UNK         0.0000 
     40 H40         3.4627   53.0626   26.4794 H         1 UNK         0.0000 
     41 H41        -0.3331   53.5308   28.4537 H         1 UNK         0.0000 
     42 H42         0.6630   55.2275   29.9425 H         1 UNK         0.0000 
     43 H43         0.4822   49.9751   26.4691 H         1 UNK         0.0000 
     44 H44         1.5716   50.4978   27.7387 H         1 UNK         0.0000 
     45 H45        -2.7157   50.3027   29.0158 H         1 UNK         0.0000 
     46 H46        -4.9110   50.9851   28.1100 H         1 UNK         0.0000 
     47 H47        -5.0127   52.4233   26.0969 H         1 UNK         0.0000 
     48 H48        -2.9945   53.1419   24.9843 H         1 UNK         0.0000 
     49 H49         1.5702   54.0563   24.8079 H         1 UNK         0.0000 
     50 H50         0.7053   54.5751   23.4696 H         1 UNK         0.0000 
     51 H51         0.9363   53.6955   21.3675 H         1 UNK         0.0000 
     52 H52         0.3524   52.0827   21.8229 H         1 UNK         0.0000 
     53 H53         1.6390   51.9993   19.7182 H         1 UNK         0.0000 
     54 H54         2.5154   51.0569   20.9661 H         1 UNK         0.0000 
     55 H55         4.4942   52.1110   22.0894 H         1 UNK         0.0000 
     56 H56         4.9332   53.7960   21.6716 H         1 UNK         0.0000 
     57 H57         3.6485   53.7914   23.8270 H         1 UNK         0.0000 
     58 H58         2.8396   54.6770   22.5179 H         1 UNK         0.0000 
     59 H59         3.6629   52.0969   18.5445 H         1 UNK         0.0000 
     60 H60         4.9180   51.7017   19.7290 H         1 UNK         0.0000 
     61 H61         3.3653   54.5839   18.2146 H         1 UNK         0.0000 
     62 H62         2.9184   56.3474   16.8659 H         1 UNK         0.0000 
     63 H63         3.5667   58.5613   16.0037 H         1 UNK         0.0000 
     64 H64         5.8059   59.4750   16.4829 H         1 UNK         0.0000 
     65 H65         6.7946   56.0075   18.7534 H         1 UNK         0.0000 
     66 H66         2.9890   53.8910   20.2284 H         1 UNK         0.0000 
@<TRIPOS>BOND
     1    1    6 ar   
     2    1    2 ar   
     3    1   38 1    
     4    2    3 ar   
     5    2   39 1    
     6    3    4 ar   
     7    3   40 1    
     8    4    5 ar   
     9    4    7 1    
    10    5    6 ar   
    11    5   41 1    
    12    6   42 1    
    13    7    8 1    
    14    7   17 1    
    15    7    9 1    
    16    9   10 1    
    17    9   43 1    
    18    9   44 1    
    19   10   11 1    
    20   11   16 ar   
    21   11   12 ar   
    22   12   13 ar   
    23   12   45 1    
    24   13   14 ar   
    25   13   46 1    
    26   14   15 ar   
    27   14   47 1    
    28   15   16 ar   
    29   15   48 1    
    30   16   17 1    
    31   17   18 am   BACKBONE|DICT|INTERRES
    32   18   19 2    
    33   18   20 1    
    34   20   21 1    
    35   20   49 1    
    36   20   50 1    
    37   21   26 1    
    38   21   22 1    
    39   22   23 1    
    40   22   51 1    
    41   22   52 1    
    42   23   24 1    
    43   23   53 1    
    44   23   54 1    
    45   24   25 1    
    46   24   27 1    
    47   24   66 1    
    48   25   26 1    
    49   25   55 1    
    50   25   56 1    
    51   26   57 1    
    52   26   58 1    
    53   27   28 1    
    54   27   59 1    
    55   27   60 1    
    56   28   29 2    
    57   28   30 am   BACKBONE|DICT|INTERRES
    58   30   31 1    
    59   30   61 1    
    60   31   36 ar   
    61   31   32 ar   
    62   32   33 ar   
    63   32   62 1    
    64   33   34 ar   
    65   33   63 1    
    66   34   35 ar   
    67   34   64 1    
    68   35   36 ar   
    69   35   37 1    
    70   36   65 1    
@<TRIPOS>SUBSTRUCTURE
     1 UNK         1 GROUP             0       ****    0 ROOT    
