@<TRIPOS>MOLECULE
ZINC40156281_4904
60   63    1
SMALL
USER_CHARGES


@<TRIPOS>ATOM
      1 C1          1.7258   52.3587   31.1432 C.3       1 UNK         0.0000 
      2 C2          0.6423   53.2632   30.5191 C.3       1 UNK         0.0000 
      3 C3          0.3036   54.4173   31.4753 C.3       1 UNK         0.0000 
      4 C4          0.8839   53.7803   29.0528 C.3       1 UNK         0.0000 
      5 H5          0.3143   54.7008   28.9326 H         1 UNK         0.0000 
      6 C6          2.3545   54.2441   28.7875 C.2       1 UNK         0.0000 
      7 O7          2.9775   54.8207   29.6813 O.2       1 UNK         0.0000 
      8 N8          2.8390   54.0283   27.5446 N.am      1 UNK         0.0000 
      9 C9          4.1320   54.2323   27.0385 C.ar      1 UNK         0.0000 
     10 C10         5.2851   54.3154   27.8331 C.ar      1 UNK         0.0000 
     11 C11         6.5363   54.4468   27.2354 C.ar      1 UNK         0.0000 
     12 C12         6.6469   54.5040   25.8466 C.ar      1 UNK         0.0000 
     13 C13         5.5089   54.4326   25.0387 C.ar      1 UNK         0.0000 
     14 C14         4.2559   54.2945   25.6468 C.ar      1 UNK         0.0000 
     15 C15         5.6065   54.4848   23.5490 C.ar      1 UNK         0.0000 
     16 C16         4.6973   54.0954   22.5637 C.ar      1 UNK         0.0000 
     17 N17         5.2305   54.3409   21.3082 N.pl3     1 UNK         0.0000 
     18 C18         6.4645   54.9437   21.4960 C.ar      1 UNK         0.0000 
     19 N19         6.7046   54.9699   22.8523 N.pl3     1 UNK         0.0000 
     20 C20         7.4114   55.3539   20.3798 C.3       1 UNK         0.0000 
     21 C21         6.6173   55.3972   19.0541 C.3       1 UNK         0.0000 
     22 C22         5.6736   54.1842   18.8952 C.3       1 UNK         0.0000 
     23 C23         4.5962   54.1190   20.0053 C.3       1 UNK         0.0000 
     24 N24         0.2706   52.9010   28.0344 N.am      1 UNK         0.0000 
     25 C25         0.7114   51.6965   27.6168 C.2       1 UNK         0.0000 
     26 O26         1.7235   51.1782   28.0819 O.2       1 UNK         0.0000 
     27 C27        -0.0587   51.0266   26.4939 C.ar      1 UNK         0.0000 
     28 C28        -1.1184   51.6689   25.8288 C.ar      1 UNK         0.0000 
     29 C29        -1.7917   51.0339   24.7888 C.ar      1 UNK         0.0000 
     30 C30        -1.4156   49.7518   24.3970 C.ar      1 UNK         0.0000 
     31 C31        -0.3681   49.1001   25.0417 C.ar      1 UNK         0.0000 
     32 C32         0.3040   49.7328   26.0818 C.ar      1 UNK         0.0000 
     33 Cl33       -2.2490   48.9672   23.1085 Cl        1 UNK         0.0000 
     34 H34         2.6803   52.8650   31.2796 H         1 UNK         0.0000 
     35 H35         1.4088   51.9952   32.1208 H         1 UNK         0.0000 
     36 H36         1.9035   51.4863   30.5235 H         1 UNK         0.0000 
     37 H37        -0.2573   52.6437   30.5001 H         1 UNK         0.0000 
     38 H38         1.1045   55.1400   31.5864 H         1 UNK         0.0000 
     39 H39        -0.5136   54.9955   31.0713 H         1 UNK         0.0000 
     40 H40         0.0183   54.0588   32.4656 H         1 UNK         0.0000 
     41 H41         2.1909   53.6073   26.8970 H         1 UNK         0.0000 
     42 H42         5.2315   54.2511   28.9103 H         1 UNK         0.0000 
     43 H43         7.4200   54.4957   27.8558 H         1 UNK         0.0000 
     44 H44         7.6187   54.5853   25.3904 H         1 UNK         0.0000 
     45 H45         3.3683   54.2260   25.0339 H         1 UNK         0.0000 
     46 H46         3.7120   53.6615   22.6504 H         1 UNK         0.0000 
     47 H47         7.8719   56.3225   20.5789 H         1 UNK         0.0000 
     48 H48         8.2368   54.6503   20.2843 H         1 UNK         0.0000 
     49 H49         7.3059   55.4503   18.2100 H         1 UNK         0.0000 
     50 H50         6.0270   56.3153   19.0085 H         1 UNK         0.0000 
     51 H51         6.2579   53.2599   18.8934 H         1 UNK         0.0000 
     52 H52         5.1872   54.2166   17.9188 H         1 UNK         0.0000 
     53 H53         4.0724   53.1623   20.0029 H         1 UNK         0.0000 
     54 H54         3.8484   54.8968   19.8566 H         1 UNK         0.0000 
     55 H55        -0.5973   53.2362   27.6472 H         1 UNK         0.0000 
     56 H56        -1.4419   52.6623   26.1001 H         1 UNK         0.0000 
     57 H57        -2.6090   51.5339   24.2864 H         1 UNK         0.0000 
     58 H58        -0.0762   48.1010   24.7484 H         1 UNK         0.0000 
     59 H59         1.1082   49.1957   26.5654 H         1 UNK         0.0000 
     60 H60         7.5662   55.2967   23.2763 H         1 UNK         0.0000 
@<TRIPOS>BOND
     1    1    2 1    
     2    1   34 1    
     3    1   35 1    
     4    1   36 1    
     5    2    3 1    
     6    2    4 1    
     7    2   37 1    
     8    3   38 1    
     9    3   39 1    
    10    3   40 1    
    11    4    5 1    
    12    4    6 1    
    13    4   24 1    
    14    6    7 2    
    15    6    8 am   BACKBONE|DICT|INTERRES
    16    8    9 1    
    17    8   41 1    
    18    9   14 ar   
    19    9   10 ar   
    20   10   11 ar   
    21   10   42 1    
    22   11   12 ar   
    23   11   43 1    
    24   12   13 ar   
    25   12   44 1    
    26   13   14 ar   
    27   13   15 1    
    28   14   45 1    
    29   15   19 ar   
    30   15   16 ar   
    31   16   17 ar   
    32   16   46 1    
    33   17   23 1    
    34   17   18 ar   
    35   18   19 ar   
    36   18   20 1    
    37   19   60 1    
    38   20   21 1    
    39   20   47 1    
    40   20   48 1    
    41   21   22 1    
    42   21   49 1    
    43   21   50 1    
    44   22   23 1    
    45   22   51 1    
    46   22   52 1    
    47   23   53 1    
    48   23   54 1    
    49   24   25 am   BACKBONE|DICT|INTERRES
    50   24   55 1    
    51   25   26 2    
    52   25   27 1    
    53   27   32 ar   
    54   27   28 ar   
    55   28   29 ar   
    56   28   56 1    
    57   29   30 ar   
    58   29   57 1    
    59   30   31 ar   
    60   30   33 1    
    61   31   32 ar   
    62   31   58 1    
    63   32   59 1    
@<TRIPOS>SUBSTRUCTURE
     1 UNK         1 GROUP             0       ****    0 ROOT    
