@<TRIPOS>MOLECULE
ZINC28387870_3422
44   46    1
SMALL
USER_CHARGES


@<TRIPOS>ATOM
      1 C1         -4.5649   51.4042   18.4678 C.3       1 UNK         0.0000 
      2 C2         -3.1496   51.3753   19.0138 C.ar      1 UNK         0.0000 
      3 C3         -2.1452   52.1331   18.4133 C.ar      1 UNK         0.0000 
      4 C4         -0.8486   52.0969   18.9208 C.ar      1 UNK         0.0000 
      5 C5         -0.5364   51.3047   20.0339 C.ar      1 UNK         0.0000 
      6 C6         -1.5596   50.5521   20.6292 C.ar      1 UNK         0.0000 
      7 C7         -2.8564   50.5861   20.1250 C.ar      1 UNK         0.0000 
      8 C8          0.8486   51.2600   20.6331 C.ar      1 UNK         0.0000 
      9 N9          1.0872   50.8127   21.8473 N.2       1 UNK         0.0000 
     10 N10         2.4511   50.9091   22.0846 N.2       1 UNK         0.0000 
     11 C11         2.9832   51.4880   21.0428 C.ar      1 UNK         0.0000 
     12 N12         2.0428   51.6548   20.0495 N.pl3     1 UNK         0.0000 
     13 N13         2.2905   52.0932   18.7579 N.3       1 UNK         0.0000 
     14 S14         4.7037   51.8193   20.8816 S.3       1 UNK         0.0000 
     15 C15         4.6086   53.6384   20.9215 C.3       1 UNK         0.0000 
     16 H16         3.5694   53.9510   20.7994 H         1 UNK         0.0000 
     17 C17         5.3914   54.3053   19.7697 C.3       1 UNK         0.0000 
     18 C18         5.0555   54.0983   22.3193 C.2       1 UNK         0.0000 
     19 O19         6.1893   54.5485   22.4875 O.2       1 UNK         0.0000 
     20 N20         4.1391   53.9392   23.2981 N.am      1 UNK         0.0000 
     21 C21         4.2649   54.0969   24.6932 C.ar      1 UNK         0.0000 
     22 C22         5.4943   54.2778   25.3497 C.ar      1 UNK         0.0000 
     23 C23         5.5566   54.3489   26.7404 C.ar      1 UNK         0.0000 
     24 C24         4.3835   54.2717   27.4985 C.ar      1 UNK         0.0000 
     25 C25         3.1597   54.0955   26.8547 C.ar      1 UNK         0.0000 
     26 C26         3.0947   53.9956   25.4640 C.ar      1 UNK         0.0000 
     27 Cl27        1.5468   53.7160   24.7333 Cl        1 UNK         0.0000 
     28 Cl28        4.4140   54.3853   29.2250 Cl        1 UNK         0.0000 
     29 Cl29        7.1048   54.4968   27.4889 Cl        1 UNK         0.0000 
     30 H30        -4.6734   52.0980   17.6344 H         1 UNK         0.0000 
     31 H31        -4.8575   50.4100   18.1295 H         1 UNK         0.0000 
     32 H32        -5.2646   51.6974   19.2498 H         1 UNK         0.0000 
     33 H33        -2.3620   52.7507   17.5538 H         1 UNK         0.0000 
     34 H34        -0.1025   52.7129   18.4459 H         1 UNK         0.0000 
     35 H35        -1.3546   49.9330   21.4913 H         1 UNK         0.0000 
     36 H36        -3.6292   49.9962   20.5967 H         1 UNK         0.0000 
     37 H37         2.5862   53.0579   18.7382 H         1 UNK         0.0000 
     38 H38         2.9206   51.4658   18.2688 H         1 UNK         0.0000 
     39 H39         5.2728   55.3899   19.7846 H         1 UNK         0.0000 
     40 H40         6.4602   54.0968   19.8164 H         1 UNK         0.0000 
     41 H41         5.0348   53.9534   18.8010 H         1 UNK         0.0000 
     42 H42         3.2273   53.6189   23.0058 H         1 UNK         0.0000 
     43 H43         6.4253   54.3200   24.8077 H         1 UNK         0.0000 
     44 H44         2.2543   54.0196   27.4393 H         1 UNK         0.0000 
@<TRIPOS>BOND
     1    1    2 1    
     2    1   30 1    
     3    1   31 1    
     4    1   32 1    
     5    2    7 ar   
     6    2    3 ar   
     7    3    4 ar   
     8    3   33 1    
     9    4    5 ar   
    10    4   34 1    
    11    5    6 ar   
    12    5    8 1    
    13    6    7 ar   
    14    6   35 1    
    15    7   36 1    
    16    8   12 ar   
    17    8    9 ar   
    18    9   10 ar   
    19   10   11 ar   
    20   11   12 ar   
    21   11   14 1    
    22   12   13 1    
    23   13   37 1    
    24   13   38 1    
    25   14   15 1    
    26   15   16 1    
    27   15   17 1    
    28   15   18 1    
    29   17   39 1    
    30   17   40 1    
    31   17   41 1    
    32   18   19 2    
    33   18   20 am   BACKBONE|DICT|INTERRES
    34   20   21 1    
    35   20   42 1    
    36   21   26 ar   
    37   21   22 ar   
    38   22   23 ar   
    39   22   43 1    
    40   23   24 ar   
    41   23   29 1    
    42   24   25 ar   
    43   24   28 1    
    44   25   26 ar   
    45   25   44 1    
    46   26   27 1    
@<TRIPOS>SUBSTRUCTURE
     1 UNK         1 GROUP             0       ****    0 ROOT    
