ZINC14781014_2663
                    3D
 Schrodinger Suite 2024-2.
 52 56  0  0  1  0            999 V2000
   -6.1155   50.4941   23.9786 C   0  0  0  0  0  0
   -4.6397   50.9071   24.1329 C   0  0  2  0  0  0
   -4.1493   50.2329   24.8372 H   0  0  0  0  0  0
   -4.5148   52.3271   24.7881 C   0  0  0  0  0  0
   -5.3560   52.8760   25.4977 O   0  0  0  0  0  0
   -3.3289   52.8976   24.5058 N   0  0  0  0  0  0
   -2.3319   52.3649   23.6935 C   0  0  0  0  0  0
   -1.0443   52.8910   23.6818 C   0  0  0  0  0  0
   -0.0569   52.3228   22.8574 C   0  0  0  0  0  0
   -0.3946   51.2548   22.0158 C   0  0  0  0  0  0
   -1.6911   50.7292   22.0237 C   0  0  0  0  0  0
   -2.6461   51.2790   22.8783 C   0  0  0  0  0  0
   -3.9404   50.7964   22.8659 O   0  0  0  0  0  0
    1.2616   52.8117   22.8111 N   0  0  0  0  0  0
    1.9532   53.3407   23.8473 C   0  0  0  0  0  0
    1.5052   53.4452   24.9916 O   0  0  0  0  0  0
    3.3023   53.7768   23.5425 C   0  0  0  0  0  0
    4.2607   54.1019   24.5178 C   0  0  0  0  0  0
    5.3973   54.4915   23.8003 C   0  0  0  0  0  0
    5.0399   54.4799   22.4576 N   0  0  0  0  0  0
    3.7773   54.0106   22.3351 N   0  0  0  0  0  0
    5.7560   54.8947   21.2777 C   0  0  0  0  0  0
    7.1041   55.2967   21.3213 C   0  0  0  0  0  0
    7.7709   55.6962   20.1658 C   0  0  0  0  0  0
    7.1026   55.7060   18.9479 C   0  0  0  0  0  0
    5.7737   55.3068   18.8733 C   0  0  0  0  0  0
    5.1083   54.8961   20.0258 C   0  0  0  0  0  0
    7.7529   56.0974   17.8296 F   0  0  0  0  0  0
    6.7048   54.9421   24.4412 C   0  0  0  0  0  0
    6.5162   55.1260   25.9569 C   0  0  0  0  0  0
    5.6496   54.0501   26.6191 C   0  0  0  0  0  0
    4.2213   54.0448   26.0485 C   0  0  0  0  0  0
   -6.6340   51.1352   23.2647 H   0  0  0  0  0  0
   -6.1912   49.4690   23.6162 H   0  0  0  0  0  0
   -6.6564   50.5400   24.9264 H   0  0  0  0  0  0
   -3.1731   53.7761   24.9752 H   0  0  0  0  0  0
   -0.8183   53.7312   24.3161 H   0  0  0  0  0  0
    0.3448   50.8204   21.3590 H   0  0  0  0  0  0
   -1.9494   49.9004   21.3821 H   0  0  0  0  0  0
    1.7525   52.7102   21.9339 H   0  0  0  0  0  0
    7.7041   55.2674   22.2114 H   0  0  0  0  0  0
    8.8122   55.9818   20.2073 H   0  0  0  0  0  0
    5.2645   55.3146   17.9223 H   0  0  0  0  0  0
    4.0727   54.5986   19.9220 H   0  0  0  0  0  0
    7.4842   54.1984   24.2643 H   0  0  0  0  0  0
    7.0507   55.8973   24.0457 H   0  0  0  0  0  0
    7.4790   55.1733   26.4636 H   0  0  0  0  0  0
    6.0426   56.0956   26.0930 H   0  0  0  0  0  0
    6.1115   53.0712   26.4834 H   0  0  0  0  0  0
    5.6156   54.2095   27.6971 H   0  0  0  0  0  0
    3.7005   53.1531   26.4006 H   0  0  0  0  0  0
    3.6616   54.8994   26.4342 H   0  0  0  0  0  0
  1  2  1  0  0  0
  1 33  1  0  0  0
  1 34  1  0  0  0
  1 35  1  0  0  0
  2  3  1  0  0  0
  2 13  1  0  0  0
  2  4  1  0  0  0
  4  5  2  0  0  0
  4  6  1  0  0  0
  6  7  1  0  0  0
  6 36  1  0  0  0
  7 12  2  0  0  0
  7  8  1  0  0  0
  8  9  2  0  0  0
  8 37  1  0  0  0
  9 10  1  0  0  0
  9 14  1  0  0  0
 10 11  2  0  0  0
 10 38  1  0  0  0
 11 12  1  0  0  0
 11 39  1  0  0  0
 12 13  1  0  0  0
 14 15  1  0  0  0
 14 40  1  0  0  0
 15 16  2  0  0  0
 15 17  1  0  0  0
 17 21  2  0  0  0
 17 18  1  0  0  0
 18 32  1  0  0  0
 18 19  2  0  0  0
 19 20  1  0  0  0
 19 29  1  0  0  0
 20 21  1  0  0  0
 20 22  1  0  0  0
 22 27  2  0  0  0
 22 23  1  0  0  0
 23 24  2  0  0  0
 23 41  1  0  0  0
 24 25  1  0  0  0
 24 42  1  0  0  0
 25 26  2  0  0  0
 25 28  1  0  0  0
 26 27  1  0  0  0
 26 43  1  0  0  0
 27 44  1  0  0  0
 29 30  1  0  0  0
 29 45  1  0  0  0
 29 46  1  0  0  0
 30 31  1  0  0  0
 30 47  1  0  0  0
 30 48  1  0  0  0
 31 32  1  0  0  0
 31 49  1  0  0  0
 31 50  1  0  0  0
 32 51  1  0  0  0
 32 52  1  0  0  0
M  END
> <i_i_glide_confnum>
8

> <i_i_glide_lignum>
2664

> <i_i_glide_posenum>
272

> <i_i_glide_rotatable_bonds>
4

> <i_m_Source_File_Index>
5847

> <b_m_subgroup_collapsed>
0

> <r_i_docking_score>
-5.70019

> <r_i_glide_ecoul>
-1.95825

> <r_i_glide_eff_state_penalty>
0

> <r_i_glide_einternal>
4.75688

> <r_i_glide_emodel>
-56.3112

> <r_i_glide_energy>
-42.7426

> <r_i_glide_erotb>
0.447877

> <r_i_glide_esite>
0

> <r_i_glide_evdw>
-40.7843

> <r_i_glide_gscore>
-5.70019

> <r_i_glide_hbond>
0

> <r_i_glide_ligand_efficiency>
-0.183877

> <r_i_glide_ligand_efficiency_ln>
-1.28557

> <r_i_glide_ligand_efficiency_sa>
-0.577628

> <r_i_glide_lipo>
-2.6589

> <r_i_glide_metal>
0

> <r_i_glide_rewards>
-1.15622

> <s_i_glide_gridfile>
wee1_glide-grid

> <s_m_Source_File>
wee1_decoys_glide_SP.sdf

> <s_m_Source_Path>
/Users/zhangxujun/Desktop

> <s_m_entry_id>
6122

> <s_m_entry_name>
wee1_decoys_glide_SP.5847

> <s_m_subgroup_title>
wee1_decoys_glide_SP

> <s_m_subgroupid>
wee1_decoys_glide_SP


$$$$
