@<TRIPOS>MOLECULE
ZINC40325717_953
67   71    1
SMALL
USER_CHARGES


@<TRIPOS>ATOM
      1 C1          5.9037   54.4808   23.8585 C.ar      1 UNK         0.0000 
      2 C2          6.8553   54.4861   24.8695 C.ar      1 UNK         0.0000 
      3 C3          6.4610   54.4704   26.2030 C.ar      1 UNK         0.0000 
      4 C4          5.1041   54.4890   26.5296 C.ar      1 UNK         0.0000 
      5 C5          4.1525   54.5427   25.5049 C.ar      1 UNK         0.0000 
      6 C6          4.5509   54.4961   24.1732 C.ar      1 UNK         0.0000 
      7 C7          4.7333   54.4662   28.0133 C.3       1 UNK         0.0000 
      8 C8          3.2399   54.6169   28.3823 C.3       1 UNK         0.0000 
      9 N9          2.4867   53.3574   28.3373 N.am      1 UNK         0.0000 
     10 C10         1.9208   52.8103   27.1075 C.3       1 UNK         0.0000 
     11 C11         1.2108   51.5309   27.5081 C.3       1 UNK         0.0000 
     12 H12         1.5009   50.6910   26.8823 H         1 UNK         0.0000 
     13 C13         1.7217   51.2682   28.9129 C.3       1 UNK         0.0000 
     14 C14         2.4618   52.5077   29.3896 C.2       1 UNK         0.0000 
     15 O15         2.9558   52.6527   30.5080 O.2       1 UNK         0.0000 
     16 C16        -0.3194   51.6873   27.4696 C.2       1 UNK         0.0000 
     17 O17        -0.8955   52.3753   28.3123 O.2       1 UNK         0.0000 
     18 N18        -0.9054   51.0545   26.4363 N.am      1 UNK         0.0000 
     19 C19        -2.2521   50.9372   26.1057 C.2       1 UNK         0.0000 
     20 C20        -2.7608   50.4981   24.8621 C.2       1 UNK         0.0000 
     21 C21        -4.1767   50.6424   24.8059 C.2       1 UNK         0.0000 
     22 C22        -4.7223   51.0347   26.0408 C.2       1 UNK         0.0000 
     23 S23        -3.5160   51.2973   27.2459 S.3       1 UNK         0.0000 
     24 C24        -6.1962   51.2829   26.3223 C.3       1 UNK         0.0000 
     25 C25        -7.0382   50.6198   25.2165 C.3       1 UNK         0.0000 
     26 C26        -6.5004   50.9615   23.8188 C.3       1 UNK         0.0000 
     27 C27        -5.0765   50.4068   23.5826 C.3       1 UNK         0.0000 
     28 C28        -1.9326   50.0980   23.7299 C.2       1 UNK         0.0000 
     29 O29        -2.2330   50.3667   22.5676 O.2       1 UNK         0.0000 
     30 N30        -0.7914   49.4625   24.0660 N.am      1 UNK         0.0000 
     31 C31         0.3095   49.1372   23.1536 C.3       1 UNK         0.0000 
     32 C32         1.1522   50.3039   22.6178 C.ar      1 UNK         0.0000 
     33 C33         1.0189   51.6101   23.1092 C.ar      1 UNK         0.0000 
     34 C34         1.7808   52.6427   22.5735 C.ar      1 UNK         0.0000 
     35 C35         2.6882   52.3722   21.5526 C.ar      1 UNK         0.0000 
     36 C36         2.8403   51.0775   21.0620 C.ar      1 UNK         0.0000 
     37 C37         2.0718   50.0454   21.5958 C.ar      1 UNK         0.0000 
     38 H38         6.2188   54.4797   22.8253 H         1 UNK         0.0000 
     39 H39         7.9019   54.4925   24.6146 H         1 UNK         0.0000 
     40 H40         7.2063   54.4420   26.9849 H         1 UNK         0.0000 
     41 H41         3.1000   54.6221   25.7115 H         1 UNK         0.0000 
     42 H42         3.8153   54.5255   23.3840 H         1 UNK         0.0000 
     43 H43         5.2705   55.2968   28.4621 H         1 UNK         0.0000 
     44 H44         5.1594   53.5831   28.4924 H         1 UNK         0.0000 
     45 H45         2.7472   55.4222   27.8361 H         1 UNK         0.0000 
     46 H46         3.2137   54.9337   29.4261 H         1 UNK         0.0000 
     47 H47         2.7496   52.5314   26.4557 H         1 UNK         0.0000 
     48 H48         1.3042   53.4993   26.5269 H         1 UNK         0.0000 
     49 H49         0.9339   51.0495   29.6354 H         1 UNK         0.0000 
     50 H50         2.3775   50.4068   28.8814 H         1 UNK         0.0000 
     51 H51        -0.2763   50.6764   25.7449 H         1 UNK         0.0000 
     52 H52        -6.4821   50.8962   27.3015 H         1 UNK         0.0000 
     53 H53        -6.3918   52.3556   26.3345 H         1 UNK         0.0000 
     54 H54        -7.0460   49.5357   25.3519 H         1 UNK         0.0000 
     55 H55        -8.0763   50.9384   25.3073 H         1 UNK         0.0000 
     56 H56        -7.1739   50.5753   23.0529 H         1 UNK         0.0000 
     57 H57        -6.4944   52.0454   23.6931 H         1 UNK         0.0000 
     58 H58        -4.6720   50.8728   22.6837 H         1 UNK         0.0000 
     59 H59        -5.1278   49.3368   23.3733 H         1 UNK         0.0000 
     60 H60        -0.7661   49.0092   24.9694 H         1 UNK         0.0000 
     61 H61        -0.0817   48.5603   22.3117 H         1 UNK         0.0000 
     62 H62         0.9887   48.4685   23.6830 H         1 UNK         0.0000 
     63 H63         0.3201   51.8419   23.8958 H         1 UNK         0.0000 
     64 H64         1.6608   53.6511   22.9416 H         1 UNK         0.0000 
     65 H65         3.2739   53.1757   21.1322 H         1 UNK         0.0000 
     66 H66         3.5394   50.8814   20.2605 H         1 UNK         0.0000 
     67 H67         2.1891   49.0464   21.2007 H         1 UNK         0.0000 
@<TRIPOS>BOND
     1    1    6 ar   
     2    1    2 ar   
     3    1   38 1    
     4    2    3 ar   
     5    2   39 1    
     6    3    4 ar   
     7    3   40 1    
     8    4    5 ar   
     9    4    7 1    
    10    5    6 ar   
    11    5   41 1    
    12    6   42 1    
    13    7    8 1    
    14    7   43 1    
    15    7   44 1    
    16    8    9 1    
    17    8   45 1    
    18    8   46 1    
    19    9   14 am   BACKBONE|DICT|INTERRES
    20    9   10 1    
    21   10   11 1    
    22   10   47 1    
    23   10   48 1    
    24   11   12 1    
    25   11   13 1    
    26   11   16 1    
    27   13   14 1    
    28   13   49 1    
    29   13   50 1    
    30   14   15 2    
    31   16   17 2    
    32   16   18 am   BACKBONE|DICT|INTERRES
    33   18   19 am   BACKBONE|DICT|INTERRES
    34   18   51 1    
    35   19   23 1    
    36   19   20 2    
    37   20   21 1    
    38   20   28 1    
    39   21   27 1    
    40   21   22 2    
    41   22   23 1    
    42   22   24 1    
    43   24   25 1    
    44   24   52 1    
    45   24   53 1    
    46   25   26 1    
    47   25   54 1    
    48   25   55 1    
    49   26   27 1    
    50   26   56 1    
    51   26   57 1    
    52   27   58 1    
    53   27   59 1    
    54   28   29 2    
    55   28   30 am   BACKBONE|DICT|INTERRES
    56   30   31 1    
    57   30   60 1    
    58   31   32 1    
    59   31   61 1    
    60   31   62 1    
    61   32   37 ar   
    62   32   33 ar   
    63   33   34 ar   
    64   33   63 1    
    65   34   35 ar   
    66   34   64 1    
    67   35   36 ar   
    68   35   65 1    
    69   36   37 ar   
    70   36   66 1    
    71   37   67 1    
@<TRIPOS>SUBSTRUCTURE
     1 UNK         1 GROUP             0       ****    0 ROOT    
