@<TRIPOS>MOLECULE
ZINC52710237_1813
48   50    1
SMALL
USER_CHARGES


@<TRIPOS>ATOM
      1 C1          1.0527   52.7982   31.7161 C.ar      1 UNK         0.0000 
      2 C2          0.3395   53.6104   30.8426 C.ar      1 UNK         0.0000 
      3 C3          0.7272   53.6918   29.5117 C.ar      1 UNK         0.0000 
      4 C4          1.8205   52.9436   29.0549 C.ar      1 UNK         0.0000 
      5 C5          2.5443   52.1505   29.9513 C.ar      1 UNK         0.0000 
      6 C6          2.1706   52.0967   31.2882 C.ar      1 UNK         0.0000 
      7 C7          2.3130   53.0736   27.5998 C.3       1 UNK         0.0000 
      8 H8          3.0693   52.3064   27.4409 H         1 UNK         0.0000 
      9 C9          1.1870   52.7180   26.5571 C.2       1 UNK         0.0000 
     10 O10         1.3233   53.0170   25.3678 O.2       1 UNK         0.0000 
     11 N11         0.1333   51.9870   27.0057 N.am      1 UNK         0.0000 
     12 C12        -1.0327   51.7492   26.3727 C.2       1 UNK         0.0000 
     13 O13        -1.4167   52.2583   25.3211 O.2       1 UNK         0.0000 
     14 N14        -1.8064   50.8967   27.0362 N.am      1 UNK         0.0000 
     15 N15         2.9358   54.4302   27.4324 N.3       1 UNK         0.0000 
     16 C16         4.0417   54.6503   28.3917 C.3       1 UNK         0.0000 
     17 C17         5.2809   53.7523   28.1414 C.3       1 UNK         0.0000 
     18 C18         5.8069   53.8118   26.6884 C.3       1 UNK         0.0000 
     19 H19         6.3532   52.8965   26.4799 H         1 UNK         0.0000 
     20 C20         6.7890   54.9810   26.4814 C.3       1 UNK         0.0000 
     21 C21         7.2311   55.1229   25.0141 C.3       1 UNK         0.0000 
     22 C22         6.0201   55.3041   24.1093 C.3       1 UNK         0.0000 
     23 C23         5.0849   54.0970   24.2028 C.3       1 UNK         0.0000 
     24 C24         4.6324   53.8781   25.6596 C.3       1 UNK         0.0000 
     25 H25         4.1959   52.8967   25.6835 H         1 UNK         0.0000 
     26 C26         3.5041   54.8135   26.1201 C.3       1 UNK         0.0000 
     27 H27         0.7411   52.7322   32.7499 H         1 UNK         0.0000 
     28 H28        -0.4950   54.1854   31.2058 H         1 UNK         0.0000 
     29 H29         0.1916   54.3427   28.8362 H         1 UNK         0.0000 
     30 H30         3.4119   51.6004   29.6188 H         1 UNK         0.0000 
     31 H31         2.7319   51.5069   31.9990 H         1 UNK         0.0000 
     32 H32         0.2025   51.6251   27.9428 H         1 UNK         0.0000 
     33 H33        -1.4352   50.2178   27.6947 H         1 UNK         0.0000 
     34 H34        -2.7382   50.7393   26.6877 H         1 UNK         0.0000 
     35 H35         4.3217   55.6967   28.3434 H         1 UNK         0.0000 
     36 H36         3.7080   54.5241   29.4205 H         1 UNK         0.0000 
     37 H37         6.0792   53.9909   28.8463 H         1 UNK         0.0000 
     38 H38         5.0425   52.7222   28.4009 H         1 UNK         0.0000 
     39 H39         6.3049   55.9042   26.7847 H         1 UNK         0.0000 
     40 H40         7.6310   54.8754   27.1648 H         1 UNK         0.0000 
     41 H41         7.7661   54.2315   24.6927 H         1 UNK         0.0000 
     42 H42         7.9034   55.9714   24.8820 H         1 UNK         0.0000 
     43 H43         6.3228   55.4886   23.0774 H         1 UNK         0.0000 
     44 H44         5.5045   56.1853   24.4819 H         1 UNK         0.0000 
     45 H45         5.6180   53.2181   23.8412 H         1 UNK         0.0000 
     46 H46         4.2244   54.2070   23.5410 H         1 UNK         0.0000 
     47 H47         2.7305   54.8117   25.3579 H         1 UNK         0.0000 
     48 H48         3.8374   55.8466   26.0817 H         1 UNK         0.0000 
@<TRIPOS>BOND
     1    1    6 ar   
     2    1    2 ar   
     3    1   27 1    
     4    2    3 ar   
     5    2   28 1    
     6    3    4 ar   
     7    3   29 1    
     8    4    5 ar   
     9    4    7 1    
    10    5    6 ar   
    11    5   30 1    
    12    6   31 1    
    13    7    8 1    
    14    7    9 1    
    15    7   15 1    
    16    9   10 2    
    17    9   11 am   BACKBONE|DICT|INTERRES
    18   11   12 am   BACKBONE|DICT|INTERRES
    19   11   32 1    
    20   12   13 2    
    21   12   14 am   BACKBONE|DICT|INTERRES
    22   14   33 1    
    23   14   34 1    
    24   15   26 1    
    25   15   16 1    
    26   16   17 1    
    27   16   35 1    
    28   16   36 1    
    29   17   18 1    
    30   17   37 1    
    31   17   38 1    
    32   18   19 1    
    33   18   24 1    
    34   18   20 1    
    35   20   21 1    
    36   20   39 1    
    37   20   40 1    
    38   21   22 1    
    39   21   41 1    
    40   21   42 1    
    41   22   23 1    
    42   22   43 1    
    43   22   44 1    
    44   23   24 1    
    45   23   45 1    
    46   23   46 1    
    47   24   25 1    
    48   24   26 1    
    49   26   47 1    
    50   26   48 1    
@<TRIPOS>SUBSTRUCTURE
     1 UNK         1 GROUP             0       ****    0 ROOT    
