@<TRIPOS>MOLECULE
ZINC00623048_6028
58   63    1
SMALL
USER_CHARGES


@<TRIPOS>ATOM
      1 C1          0.3094   53.6946   29.5508 C.ar      1 UNK         0.0000 
      2 C2          1.2882   54.6163   29.9077 C.ar      1 UNK         0.0000 
      3 C3          2.3464   54.8970   29.0445 C.ar      1 UNK         0.0000 
      4 C4          2.4294   54.2550   27.7814 C.ar      1 UNK         0.0000 
      5 C5          3.5001   54.4977   26.8822 C.ar      1 UNK         0.0000 
      6 C6          3.5589   53.8776   25.6256 C.ar      1 UNK         0.0000 
      7 C7          2.5254   53.0153   25.2663 C.ar      1 UNK         0.0000 
      8 C8          1.4653   52.7374   26.1261 C.ar      1 UNK         0.0000 
      9 C9          1.4054   53.3372   27.4037 C.ar      1 UNK         0.0000 
     10 C10         0.3544   53.0582   28.3135 C.ar      1 UNK         0.0000 
     11 C11         4.7590   54.0967   24.7402 C.ar      1 UNK         0.0000 
     12 C12         4.8922   54.2005   23.3132 C.ar      1 UNK         0.0000 
     13 C13         6.2322   54.5253   23.1793 C.ar      1 UNK         0.0000 
     14 N14         6.8175   54.5084   24.3945 N.pl3     1 UNK         0.0000 
     15 H15         7.7974   54.6919   24.5650 H         1 UNK         0.0000 
     16 N16         5.9331   54.2428   25.3475 N.2       1 UNK         0.0000 
     17 O17         6.9303   54.8979   22.0647 O.3       1 UNK         0.0000 
     18 C18         6.1852   54.8972   20.9300 C.2       1 UNK         0.0000 
     19 C19         4.8887   54.5149   20.8197 C.2       1 UNK         0.0000 
     20 C20         4.0046   54.1458   22.0411 C.3       1 UNK         0.0000 
     21 H21         3.2654   54.9460   22.0897 H         1 UNK         0.0000 
     22 C22         3.1851   52.8729   21.8043 C.ar      1 UNK         0.0000 
     23 C23         3.7806   51.7177   21.2827 C.ar      1 UNK         0.0000 
     24 C24         3.0073   50.5876   21.0229 C.ar      1 UNK         0.0000 
     25 C25         1.6393   50.5953   21.2880 C.ar      1 UNK         0.0000 
     26 C26         1.0207   51.7465   21.7981 C.ar      1 UNK         0.0000 
     27 C27         1.8038   52.8767   22.0365 C.ar      1 UNK         0.0000 
     28 O28        -0.3226   51.8504   22.1057 O.3       1 UNK         0.0000 
     29 C29        -1.2135   50.7634   21.8353 C.3       1 UNK         0.0000 
     30 C30        -1.2064   49.6765   22.9139 C.ar      1 UNK         0.0000 
     31 C31        -0.3248   49.7101   24.0051 C.ar      1 UNK         0.0000 
     32 C32        -0.3677   48.7138   24.9802 C.ar      1 UNK         0.0000 
     33 C33        -1.2925   47.6768   24.8802 C.ar      1 UNK         0.0000 
     34 C34        -2.1658   47.6258   23.7957 C.ar      1 UNK         0.0000 
     35 C35        -2.1219   48.6201   22.8163 C.ar      1 UNK         0.0000 
     36 F36        -2.9817   48.5607   21.7734 F         1 UNK         0.0000 
     37 C37         4.3043   54.4987   19.5155 C.1       1 UNK         0.0000 
     38 N38         3.9048   54.5104   18.4309 N.1       1 UNK         0.0000 
     39 N39         7.0072   55.2958   19.9097 N.pl3     1 UNK         0.0000 
     40 H40        -0.4960   53.4745   30.2356 H         1 UNK         0.0000 
     41 H41         1.2232   55.1143   30.8653 H         1 UNK         0.0000 
     42 H42         3.1069   55.6097   29.3274 H         1 UNK         0.0000 
     43 H43         4.2831   55.1755   27.1893 H         1 UNK         0.0000 
     44 H44         2.5898   52.4720   24.3441 H         1 UNK         0.0000 
     45 H45         0.6961   52.0378   25.8319 H         1 UNK         0.0000 
     46 H46        -0.4165   52.3500   28.0388 H         1 UNK         0.0000 
     47 H47         4.8398   51.6990   21.0701 H         1 UNK         0.0000 
     48 H48         3.4637   49.6987   20.6129 H         1 UNK         0.0000 
     49 H49         1.0797   49.6938   21.0944 H         1 UNK         0.0000 
     50 H50         1.3240   53.7690   22.4128 H         1 UNK         0.0000 
     51 H51        -1.0441   50.3348   20.8465 H         1 UNK         0.0000 
     52 H52        -2.2155   51.1900   21.8013 H         1 UNK         0.0000 
     53 H53         0.3955   50.5073   24.1093 H         1 UNK         0.0000 
     54 H54         0.3095   48.7436   25.8235 H         1 UNK         0.0000 
     55 H55        -1.3282   46.9206   25.6529 H         1 UNK         0.0000 
     56 H56        -2.8882   46.8274   23.7211 H         1 UNK         0.0000 
     57 H57         6.6399   55.4099   18.9762 H         1 UNK         0.0000 
     58 H58         8.0093   55.2351   20.0099 H         1 UNK         0.0000 
@<TRIPOS>BOND
     1    1   10 ar   
     2    1    2 ar   
     3    1   40 1    
     4    2    3 ar   
     5    2   41 1    
     6    3    4 ar   
     7    3   42 1    
     8    4    9 ar   
     9    4    5 ar   
    10    5    6 ar   
    11    5   43 1    
    12    6    7 ar   
    13    6   11 1    
    14    7    8 ar   
    15    7   44 1    
    16    8    9 ar   
    17    8   45 1    
    18    9   10 ar   
    19   10   46 1    
    20   11   16 ar   
    21   11   12 ar   
    22   12   20 1    
    23   12   13 ar   
    24   13   14 ar   
    25   13   17 1    
    26   14   15 1    
    27   14   16 ar   
    28   17   18 1    
    29   18   19 2    
    30   18   39 1    
    31   19   20 1    
    32   19   37 1    
    33   20   21 1    
    34   20   22 1    
    35   22   27 ar   
    36   22   23 ar   
    37   23   24 ar   
    38   23   47 1    
    39   24   25 ar   
    40   24   48 1    
    41   25   26 ar   
    42   25   49 1    
    43   26   27 ar   
    44   26   28 1    
    45   27   50 1    
    46   28   29 1    
    47   29   30 1    
    48   29   51 1    
    49   29   52 1    
    50   30   35 ar   
    51   30   31 ar   
    52   31   32 ar   
    53   31   53 1    
    54   32   33 ar   
    55   32   54 1    
    56   33   34 ar   
    57   33   55 1    
    58   34   35 ar   
    59   34   56 1    
    60   35   36 1    
    61   37   38 3    
    62   39   57 1    
    63   39   58 1    
@<TRIPOS>SUBSTRUCTURE
     1 UNK         1 GROUP             0       ****    0 ROOT    
