@<TRIPOS>MOLECULE
ZINC45599405_3998
59   64    1
SMALL
USER_CHARGES


@<TRIPOS>ATOM
      1 C1         -0.0503   52.2716   28.5389 C.2       1 UNK         0.0000 
      2 C2          0.9527   52.6462   27.6413 C.2       1 UNK         0.0000 
      3 C3          2.1619   52.9961   28.2478 C.2       1 UNK         0.0000 
      4 S4          2.0088   52.8436   29.9838 S.3       1 UNK         0.0000 
      5 C5          0.3586   52.3441   29.8567 C.2       1 UNK         0.0000 
      6 C6          3.4497   53.4241   27.6613 C.ar      1 UNK         0.0000 
      7 N7          4.5710   53.3720   28.3424 N.2       1 UNK         0.0000 
      8 N8          5.5701   53.9532   27.5796 N.2       1 UNK         0.0000 
      9 C9          5.0246   54.3506   26.4635 C.ar      1 UNK         0.0000 
     10 N10         3.6820   54.0139   26.4238 N.pl3     1 UNK         0.0000 
     11 C11         2.7453   54.3155   25.3353 C.3       1 UNK         0.0000 
     12 C12         2.6654   53.2264   24.2497 C.3       1 UNK         0.0000 
     13 H13         3.6766   52.9184   24.0115 H         1 UNK         0.0000 
     14 C14         1.9358   53.6628   22.9787 C.3       1 UNK         0.0000 
     15 C15         1.3554   52.3838   22.4046 C.3       1 UNK         0.0000 
     16 C16         1.5179   51.3534   23.5230 C.3       1 UNK         0.0000 
     17 O17         1.9042   52.1043   24.6705 O.3       1 UNK         0.0000 
     18 S18         5.8984   55.3265   25.2810 S.3       1 UNK         0.0000 
     19 C19         6.5273   54.0185   24.2036 C.3       1 UNK         0.0000 
     20 C20         6.1275   54.1917   22.7497 C.ar      1 UNK         0.0000 
     21 N21         5.4094   53.1787   22.2157 N.ar      1 UNK         0.0000 
     22 C22         5.0969   53.2492   20.9029 C.ar      1 UNK         0.0000 
     23 C23         5.4817   54.3663   20.1095 C.ar      1 UNK         0.0000 
     24 C24         5.2738   54.7437   18.7324 C.2       1 UNK         0.0000 
     25 C25         5.8841   55.9581   18.4220 C.2       1 UNK         0.0000 
     26 S26         6.7021   56.6759   19.7934 S.3       1 UNK         0.0000 
     27 C27         6.2406   55.3495   20.8152 C.ar      1 UNK         0.0000 
     28 N28         6.5845   55.2925   22.1050 N.ar      1 UNK         0.0000 
     29 C29         5.8487   56.6513   17.0780 C.3       1 UNK         0.0000 
     30 C30         4.4262   57.0501   16.6430 C.3       1 UNK         0.0000 
     31 C31         3.5457   55.8780   16.1602 C.3       1 UNK         0.0000 
     32 C32         3.2360   54.7681   17.1881 C.3       1 UNK         0.0000 
     33 C33         4.4496   53.9717   17.7128 C.3       1 UNK         0.0000 
     34 N34         4.4620   52.1113   20.4089 N.pl3     1 UNK         0.0000 
     35 H35        -1.0364   51.9541   28.2367 H         1 UNK         0.0000 
     36 H36         0.7802   52.6435   26.5800 H         1 UNK         0.0000 
     37 H37        -0.2173   52.1063   30.7422 H         1 UNK         0.0000 
     38 H38         1.7598   54.4794   25.7669 H         1 UNK         0.0000 
     39 H39         3.0527   55.2594   24.8814 H         1 UNK         0.0000 
     40 H40         1.1291   54.3488   23.2358 H         1 UNK         0.0000 
     41 H41         2.5799   54.2203   22.2963 H         1 UNK         0.0000 
     42 H42         0.3066   52.5192   22.1338 H         1 UNK         0.0000 
     43 H43         1.8911   52.0698   21.5103 H         1 UNK         0.0000 
     44 H44         0.6073   50.7923   23.7292 H         1 UNK         0.0000 
     45 H45         2.2958   50.6205   23.2968 H         1 UNK         0.0000 
     46 H46         7.6141   54.0004   24.2629 H         1 UNK         0.0000 
     47 H47         6.1725   53.0667   24.5791 H         1 UNK         0.0000 
     48 H48         6.4881   57.5360   17.0860 H         1 UNK         0.0000 
     49 H49         6.2654   55.9980   16.3116 H         1 UNK         0.0000 
     50 H50         3.9264   57.5853   17.4539 H         1 UNK         0.0000 
     51 H51         4.5074   57.7712   15.8277 H         1 UNK         0.0000 
     52 H52         2.5984   56.2876   15.8084 H         1 UNK         0.0000 
     53 H53         4.0112   55.4253   15.2833 H         1 UNK         0.0000 
     54 H54         2.6844   55.1873   18.0292 H         1 UNK         0.0000 
     55 H55         2.5474   54.0645   16.7151 H         1 UNK         0.0000 
     56 H56         5.0777   53.6736   16.8712 H         1 UNK         0.0000 
     57 H57         4.0780   53.0312   18.1093 H         1 UNK         0.0000 
     58 H58         4.4086   51.9546   19.4078 H         1 UNK         0.0000 
     59 H59         4.2796   51.3548   21.0461 H         1 UNK         0.0000 
@<TRIPOS>BOND
     1    1    5 2    
     2    1    2 1    
     3    1   35 1    
     4    2    3 2    
     5    2   36 1    
     6    3    4 1    
     7    3    6 1    
     8    4    5 1    
     9    5   37 1    
    10    6   10 ar   
    11    6    7 ar   
    12    7    8 ar   
    13    8    9 ar   
    14    9   10 ar   
    15    9   18 1    
    16   10   11 1    
    17   11   12 1    
    18   11   38 1    
    19   11   39 1    
    20   12   13 1    
    21   12   17 1    
    22   12   14 1    
    23   14   15 1    
    24   14   40 1    
    25   14   41 1    
    26   15   16 1    
    27   15   42 1    
    28   15   43 1    
    29   16   17 1    
    30   16   44 1    
    31   16   45 1    
    32   18   19 1    
    33   19   20 1    
    34   19   46 1    
    35   19   47 1    
    36   20   28 ar   
    37   20   21 ar   
    38   21   22 ar   
    39   22   23 ar   
    40   22   34 1    
    41   23   27 ar   
    42   23   24 1    
    43   24   33 1    
    44   24   25 2    
    45   25   26 1    
    46   25   29 1    
    47   26   27 1    
    48   27   28 ar   
    49   29   30 1    
    50   29   48 1    
    51   29   49 1    
    52   30   31 1    
    53   30   50 1    
    54   30   51 1    
    55   31   32 1    
    56   31   52 1    
    57   31   53 1    
    58   32   33 1    
    59   32   54 1    
    60   32   55 1    
    61   33   56 1    
    62   33   57 1    
    63   34   58 1    
    64   34   59 1    
@<TRIPOS>SUBSTRUCTURE
     1 UNK         1 GROUP             0       ****    0 ROOT    
