@<TRIPOS>MOLECULE
ZINC37558255_1578
29   30    1
SMALL
USER_CHARGES


@<TRIPOS>ATOM
      1 C1          3.6223   54.0968   25.7870 C.ar      1 UNK         0.0000 
      2 C2          2.7063   53.8107   24.7775 C.ar      1 UNK         0.0000 
      3 C3          1.5036   53.1690   25.0764 C.ar      1 UNK         0.0000 
      4 C4          1.2251   52.8145   26.4007 C.ar      1 UNK         0.0000 
      5 C5          2.1429   53.0945   27.4099 C.ar      1 UNK         0.0000 
      6 C6          3.3504   53.7314   27.1108 C.ar      1 UNK         0.0000 
      7 C7          4.3515   54.0045   28.2310 C.3       1 UNK         0.0000 
      8 F8          5.5031   54.5013   27.7773 F         1 UNK         0.0000 
      9 F9          4.6210   52.8740   28.8849 F         1 UNK         0.0000 
     10 F10         3.8269   54.8778   29.0921 F         1 UNK         0.0000 
     11 N11         0.6297   52.9066   24.0103 N.pl3     1 UNK         0.0000 
     12 S12        -0.9817   52.1687   24.1371 S.o2      1 UNK         0.0000 
     13 O13        -1.6689   52.7064   25.3161 O.2       1 UNK         0.0000 
     14 O14        -1.5777   52.2526   22.7988 O.2       1 UNK         0.0000 
     15 C15        -0.6210   50.4302   24.4544 C.ar      1 UNK         0.0000 
     16 C16        -0.6092   49.7889   25.6818 C.ar      1 UNK         0.0000 
     17 N17        -0.2760   48.4969   25.4017 N.pl3     1 UNK         0.0000 
     18 H18        -0.1677   47.7636   26.0996 H         1 UNK         0.0000 
     19 N19        -0.0950   48.2743   24.0964 N.2       1 UNK         0.0000 
     20 C20        -0.2835   49.4418   23.5207 C.ar      1 UNK         0.0000 
     21 N21        -0.1530   49.5744   22.1730 N.pl3     1 UNK         0.0000 
     22 H22         4.5474   54.5909   25.5295 H         1 UNK         0.0000 
     23 H23         2.9373   54.0925   23.7617 H         1 UNK         0.0000 
     24 H24         0.3109   52.3156   26.6702 H         1 UNK         0.0000 
     25 H25         1.9155   52.8061   28.4260 H         1 UNK         0.0000 
     26 H26         0.9916   53.0219   23.0744 H         1 UNK         0.0000 
     27 H27        -0.8038   50.1089   26.6968 H         1 UNK         0.0000 
     28 H28        -0.3631   50.4502   21.7174 H         1 UNK         0.0000 
     29 H29         0.1426   48.8064   21.5867 H         1 UNK         0.0000 
@<TRIPOS>BOND
     1    1    6 ar   
     2    1    2 ar   
     3    1   22 1    
     4    2    3 ar   
     5    2   23 1    
     6    3    4 ar   
     7    3   11 1    
     8    4    5 ar   
     9    4   24 1    
    10    5    6 ar   
    11    5   25 1    
    12    6    7 1    
    13    7    8 1    
    14    7    9 1    
    15    7   10 1    
    16   11   12 1    
    17   11   26 1    
    18   12   13 2    
    19   12   14 2    
    20   12   15 1    
    21   15   20 ar   
    22   15   16 ar   
    23   16   17 ar   
    24   16   27 1    
    25   17   18 1    
    26   17   19 ar   
    27   19   20 ar   
    28   20   21 1    
    29   21   28 1    
    30   21   29 1    
@<TRIPOS>SUBSTRUCTURE
     1 UNK         1 GROUP             0       ****    0 ROOT    
