ZINC38611433_3990
                    3D
 Schrodinger Suite 2024-2.
 49 52  0  0  1  0            999 V2000
   -2.5267   50.7629   21.3615 C   0  0  0  0  0  0
   -1.7208   50.3160   20.1577 C   0  0  0  0  0  0
   -0.4316   49.9925   19.9841 C   0  0  0  0  0  0
    0.8532   49.9730   20.8134 C   0  0  1  0  0  0
    1.1199   48.9421   21.0531 H   0  0  0  0  0  0
    1.9736   50.5223   19.9117 C   0  0  0  0  0  0
    1.7960   50.7383   18.5877 C   0  0  0  0  0  0
    0.6745   50.4567   17.8648 O   0  0  0  0  0  0
   -0.3055   49.6442   18.5334 C   0  0  2  0  0  0
   -0.0322   48.6005   18.3666 H   0  0  0  0  0  0
   -1.6232   49.8691   18.0310 N   0  0  0  0  0  0
   -2.3879   50.2304   18.9820 N   0  0  0  0  0  0
    2.7044   51.2967   17.7367 N   0  0  0  0  0  0
    3.2006   50.9267   20.5269 C   0  0  0  0  0  0
    4.1668   51.2967   21.0460 N   0  0  0  0  0  0
    0.7231   50.7210   22.1385 C   0  0  0  0  0  0
    0.5424   50.0432   23.3474 C   0  0  0  0  0  0
    0.4614   50.7501   24.5626 C   0  0  0  0  0  0
    0.6140   52.1452   24.5576 C   0  0  0  0  0  0
    0.7795   52.8106   23.3405 C   0  0  0  0  0  0
    0.8091   52.1121   22.1461 C   0  0  0  0  0  0
    1.1044   54.6759   23.2817 Br  0  0  0  0  0  0
    0.5971   52.8967   25.7160 O   0  0  0  0  0  0
    1.5989   52.6779   26.7187 C   0  0  0  0  0  0
    2.8933   53.4535   26.4653 C   0  0  0  0  0  0
    3.5782   54.0366   27.5368 C   0  0  0  0  0  0
    4.7821   54.7036   27.3139 C   0  0  0  0  0  0
    5.2738   54.8172   26.0142 C   0  0  0  0  0  0
    4.6173   54.2257   24.9501 C   0  0  0  0  0  0
    3.4460   53.5310   25.1852 C   0  0  0  0  0  0
    6.7044   55.6967   25.6817 Cl  0  0  0  0  0  0
    0.2388   50.1517   25.7827 O   0  0  0  0  0  0
    0.0539   48.7495   25.8416 C   0  0  0  0  0  0
   -3.3823   50.1036   21.5107 H   0  0  0  0  0  0
   -1.9389   50.7505   22.2763 H   0  0  0  0  0  0
   -2.8956   51.7767   21.2126 H   0  0  0  0  0  0
    3.6703   51.3149   18.0521 H   0  0  0  0  0  0
    2.6242   51.0652   16.7577 H   0  0  0  0  0  0
    0.4632   48.9671   23.3293 H   0  0  0  0  0  0
    0.9567   52.6580   21.2241 H   0  0  0  0  0  0
    1.1603   53.0221   27.6561 H   0  0  0  0  0  0
    1.8328   51.6307   26.8817 H   0  0  0  0  0  0
    3.1883   53.9645   28.5415 H   0  0  0  0  0  0
    5.3158   55.1550   28.1380 H   0  0  0  0  0  0
    5.0215   54.2837   23.9498 H   0  0  0  0  0  0
    3.0209   53.0085   24.3510 H   0  0  0  0  0  0
    0.9304   48.2107   25.4809 H   0  0  0  0  0  0
   -0.0901   48.4852   26.8817 H   0  0  0  0  0  0
   -0.8301   48.4282   25.2896 H   0  0  0  0  0  0
  1  2  1  0  0  0
  1 34  1  0  0  0
  1 35  1  0  0  0
  1 36  1  0  0  0
  2 12  1  0  0  0
  2  3  2  0  0  0
  3  9  1  0  0  0
  3  4  1  0  0  0
  4  5  1  0  0  0
  4  6  1  0  0  0
  4 16  1  0  0  0
  6  7  2  0  0  0
  6 14  1  0  0  0
  7  8  1  0  0  0
  7 13  1  0  0  0
  8  9  1  0  0  0
  9 10  1  0  0  0
  9 11  1  0  0  0
 11 12  2  0  0  0
 13 37  1  0  0  0
 13 38  1  0  0  0
 14 15  3  0  0  0
 16 21  2  0  0  0
 16 17  1  0  0  0
 17 18  2  0  0  0
 17 39  1  0  0  0
 18 19  1  0  0  0
 18 32  1  0  0  0
 19 20  2  0  0  0
 19 23  1  0  0  0
 20 21  1  0  0  0
 20 22  1  0  0  0
 21 40  1  0  0  0
 23 24  1  0  0  0
 24 25  1  0  0  0
 24 41  1  0  0  0
 24 42  1  0  0  0
 25 30  2  0  0  0
 25 26  1  0  0  0
 26 27  2  0  0  0
 26 43  1  0  0  0
 27 28  1  0  0  0
 27 44  1  0  0  0
 28 29  2  0  0  0
 28 31  1  0  0  0
 29 30  1  0  0  0
 29 45  1  0  0  0
 30 46  1  0  0  0
 32 33  1  0  0  0
 33 47  1  0  0  0
 33 48  1  0  0  0
 33 49  1  0  0  0
M  END
> <i_i_glide_confnum>
1

> <i_i_glide_lignum>
3991

> <i_i_glide_posenum>
284

> <i_i_glide_rotatable_bonds>
6

> <i_m_Source_File_Index>
1108

> <b_m_subgroup_collapsed>
0

> <r_i_docking_score>
-4.45831

> <r_i_glide_ecoul>
-6.83582

> <r_i_glide_eff_state_penalty>
0

> <r_i_glide_einternal>
3.92665

> <r_i_glide_emodel>
-43.1344

> <r_i_glide_energy>
-32.492

> <r_i_glide_erotb>
0.324569

> <r_i_glide_esite>
-0.131089

> <r_i_glide_evdw>
-25.6562

> <r_i_glide_gscore>
-4.45831

> <r_i_glide_hbond>
-0.146366

> <r_i_glide_ligand_efficiency>
-0.143816

> <r_i_glide_ligand_efficiency_ln>
-1.00549

> <r_i_glide_ligand_efficiency_sa>
-0.451782

> <r_i_glide_lipo>
-2.08057

> <r_i_glide_metal>
0

> <r_i_glide_rewards>
-0.116667

> <s_i_glide_gridfile>
wee1_glide-grid

> <s_m_Source_File>
wee1_decoys_glide_SP.sdf

> <s_m_Source_Path>
/Users/zhangxujun/Desktop

> <s_m_entry_id>
1383

> <s_m_entry_name>
wee1_decoys_glide_SP.1108

> <s_m_subgroup_title>
wee1_decoys_glide_SP

> <s_m_subgroupid>
wee1_decoys_glide_SP


$$$$
