@<TRIPOS>MOLECULE
ZINC34107785_29
50   53    1
SMALL
USER_CHARGES


@<TRIPOS>ATOM
      1 C1          0.1807   48.8969   25.6815 C.3       1 UNK         0.0000 
      2 C2         -1.0693   49.7959   25.6162 C.3       1 UNK         0.0000 
      3 H3         -1.9051   49.2084   26.0001 H         1 UNK         0.0000 
      4 C4         -1.3947   50.2152   24.1670 C.3       1 UNK         0.0000 
      5 C5         -0.4651   51.3301   23.6663 C.3       1 UNK         0.0000 
      6 C6         -0.4146   52.4973   24.6661 C.3       1 UNK         0.0000 
      7 N7          0.0076   52.0217   25.9959 N.pl3     1 UNK         0.0000 
      8 C8         -0.9167   51.0204   26.5625 C.3       1 UNK         0.0000 
      9 C9          1.1367   52.4984   26.6671 C.2       1 UNK         0.0000 
     10 N10         1.4208   52.2468   27.8752 N.am      1 UNK         0.0000 
     11 C11         2.6295   52.7456   28.3171 C.2       1 UNK         0.0000 
     12 O12         3.0303   52.6036   29.4733 O.2       1 UNK         0.0000 
     13 C13         3.3573   53.4066   27.2474 C.2       1 UNK         0.0000 
     14 C14         4.6142   53.8812   27.4194 C.2       1 UNK         0.0000 
     15 C15         5.4776   54.4852   26.4174 C.2       1 UNK         0.0000 
     16 C16         6.6364   55.2446   26.4964 C.2       1 UNK         0.0000 
     17 C17         7.0503   55.5145   25.1850 C.2       1 UNK         0.0000 
     18 C18         6.1447   54.8872   24.3419 C.2       1 UNK         0.0000 
     19 O19         5.1987   54.2807   25.1047 O.3       1 UNK         0.0000 
     20 C20         5.9942   54.7699   22.8606 C.ar      1 UNK         0.0000 
     21 C21         6.9099   55.3769   21.9943 C.ar      1 UNK         0.0000 
     22 C22         6.7350   55.2905   20.6135 C.ar      1 UNK         0.0000 
     23 C23         5.6603   54.5574   20.0977 C.ar      1 UNK         0.0000 
     24 C24         4.7342   53.9650   20.9552 C.ar      1 UNK         0.0000 
     25 C25         4.8976   54.0800   22.3309 C.ar      1 UNK         0.0000 
     26 S26         5.4784   54.3297   18.3324 S.o2      1 UNK         0.0000 
     27 O27         4.0706   54.0254   18.0563 O.2       1 UNK         0.0000 
     28 O28         6.1559   55.4546   17.6805 O.2       1 UNK         0.0000 
     29 N29         6.4106   52.8979   17.9832 N.pl3     1 UNK         0.0000 
     30 S30         2.3574   53.4350   25.7900 S.3       1 UNK         0.0000 
     31 H31         1.0890   49.4218   25.3822 H         1 UNK         0.0000 
     32 H32         0.3285   48.5260   26.6951 H         1 UNK         0.0000 
     33 H33         0.0854   48.0245   25.0343 H         1 UNK         0.0000 
     34 H34        -2.4244   50.5749   24.1295 H         1 UNK         0.0000 
     35 H35        -1.3574   49.3547   23.4972 H         1 UNK         0.0000 
     36 H36        -0.7833   51.6863   22.6869 H         1 UNK         0.0000 
     37 H37         0.5423   50.9380   23.5186 H         1 UNK         0.0000 
     38 H38        -1.4364   52.8490   24.8156 H         1 UNK         0.0000 
     39 H39         0.1370   53.3567   24.2860 H         1 UNK         0.0000 
     40 H40        -0.5634   50.6569   27.5302 H         1 UNK         0.0000 
     41 H41        -1.8850   51.4680   26.7974 H         1 UNK         0.0000 
     42 H42         5.0810   53.8273   28.3943 H         1 UNK         0.0000 
     43 H43         7.1045   55.5684   27.4148 H         1 UNK         0.0000 
     44 H44         7.9041   56.0954   24.8671 H         1 UNK         0.0000 
     45 H45         7.7612   55.9133   22.3889 H         1 UNK         0.0000 
     46 H46         7.4563   55.7491   19.9521 H         1 UNK         0.0000 
     47 H47         3.8946   53.4119   20.5587 H         1 UNK         0.0000 
     48 H48         4.1677   53.6163   22.9800 H         1 UNK         0.0000 
     49 H49         5.9020   51.9949   18.0820 H         1 UNK         0.0000 
     50 H50         6.9111   52.9459   17.0930 H         1 UNK         0.0000 
@<TRIPOS>BOND
     1    1    2 1    
     2    1   31 1    
     3    1   32 1    
     4    1   33 1    
     5    2    3 1    
     6    2    8 1    
     7    2    4 1    
     8    4    5 1    
     9    4   34 1    
    10    4   35 1    
    11    5    6 1    
    12    5   36 1    
    13    5   37 1    
    14    6    7 1    
    15    6   38 1    
    16    6   39 1    
    17    7    8 1    
    18    7    9 1    
    19    8   40 1    
    20    8   41 1    
    21    9   30 1    
    22    9   10 2    BACKBONE|DICT|INTERRES
    23   10   11 am   BACKBONE|DICT|INTERRES
    24   11   12 2    
    25   11   13 1    
    26   13   14 2    
    27   13   30 1    
    28   14   15 1    
    29   14   42 1    
    30   15   19 1    
    31   15   16 2    
    32   16   17 1    
    33   16   43 1    
    34   17   18 2    
    35   17   44 1    
    36   18   19 1    
    37   18   20 1    
    38   20   25 ar   
    39   20   21 ar   
    40   21   22 ar   
    41   21   45 1    
    42   22   23 ar   
    43   22   46 1    
    44   23   24 ar   
    45   23   26 1    
    46   24   25 ar   
    47   24   47 1    
    48   25   48 1    
    49   26   27 2    
    50   26   28 2    
    51   26   29 1    
    52   29   49 1    
    53   29   50 1    
@<TRIPOS>SUBSTRUCTURE
     1 UNK         1 GROUP             0       ****    0 ROOT    
