@<TRIPOS>MOLECULE
ZINC49201679_3838
33   34    1
SMALL
USER_CHARGES


@<TRIPOS>ATOM
      1 C1         -1.5942   51.6775   23.3677 C.3       1 UNK         0.0000 
      2 C2         -1.1484   51.3790   24.7835 C.2       1 UNK         0.0000 
      3 C3         -1.7220   50.5615   25.6726 C.2       1 UNK         0.0000 
      4 N4         -1.0782   50.4968   26.8818 N.pl3     1 UNK         0.0000 
      5 H5         -1.2955   49.7825   27.5831 H         1 UNK         0.0000 
      6 C6          0.0283   51.2913   27.0733 C.2       1 UNK         0.0000 
      7 N7          0.6841   51.3534   28.1743 N.am      1 UNK         0.0000 
      8 C8          1.8768   52.0136   28.4551 C.2       1 UNK         0.0000 
      9 O9          2.5064   51.7001   29.4654 O.2       1 UNK         0.0000 
     10 N10         2.3112   52.9472   27.5848 N.am      1 UNK         0.0000 
     11 C11         3.5834   53.6714   27.6685 C.3       1 UNK         0.0000 
     12 H12         4.2883   52.9732   28.1277 H         1 UNK         0.0000 
     13 C13         3.4619   54.8917   28.5997 C.3       1 UNK         0.0000 
     14 C14         4.2079   54.0132   26.3023 C.ar      1 UNK         0.0000 
     15 C15         3.4196   54.0970   25.1435 C.ar      1 UNK         0.0000 
     16 C16         3.9984   54.3220   23.8958 C.ar      1 UNK         0.0000 
     17 C17         5.3761   54.4967   23.7875 C.ar      1 UNK         0.0000 
     18 C18         6.1710   54.4534   24.9291 C.ar      1 UNK         0.0000 
     19 C19         5.5960   54.2058   26.1768 C.ar      1 UNK         0.0000 
     20 Br20        6.7528   54.0949   27.6818 Br        1 UNK         0.0000 
     21 S21         0.3022   52.0965   25.4769 S.3       1 UNK         0.0000 
     22 H22        -2.4899   51.1116   23.1073 H         1 UNK         0.0000 
     23 H23        -0.8055   51.4131   22.6621 H         1 UNK         0.0000 
     24 H24        -1.8153   52.7396   23.2585 H         1 UNK         0.0000 
     25 H25        -2.6091   49.9584   25.5370 H         1 UNK         0.0000 
     26 H26         1.7258   53.1430   26.7891 H         1 UNK         0.0000 
     27 H27         4.4436   55.2969   28.8339 H         1 UNK         0.0000 
     28 H28         2.8528   55.6801   28.1562 H         1 UNK         0.0000 
     29 H29         3.0054   54.6212   29.5522 H         1 UNK         0.0000 
     30 H30         2.3494   53.9844   25.1907 H         1 UNK         0.0000 
     31 H31         3.3764   54.3703   23.0130 H         1 UNK         0.0000 
     32 H32         5.8255   54.6745   22.8212 H         1 UNK         0.0000 
     33 H33         7.2391   54.5883   24.8405 H         1 UNK         0.0000 
@<TRIPOS>BOND
     1    1    2 1    
     2    1   22 1    
     3    1   23 1    
     4    1   24 1    
     5    2   21 1    
     6    2    3 2    
     7    3    4 1    
     8    3   25 1    
     9    4    5 1    
    10    4    6 1    
    11    6    7 2    BACKBONE|DICT|INTERRES
    12    6   21 1    
    13    7    8 am   BACKBONE|DICT|INTERRES
    14    8    9 2    
    15    8   10 am   BACKBONE|DICT|INTERRES
    16   10   11 1    
    17   10   26 1    
    18   11   12 1    
    19   11   13 1    
    20   11   14 1    
    21   13   27 1    
    22   13   28 1    
    23   13   29 1    
    24   14   19 ar   
    25   14   15 ar   
    26   15   16 ar   
    27   15   30 1    
    28   16   17 ar   
    29   16   31 1    
    30   17   18 ar   
    31   17   32 1    
    32   18   19 ar   
    33   18   33 1    
    34   19   20 1    
@<TRIPOS>SUBSTRUCTURE
     1 UNK         1 GROUP             0       ****    0 ROOT    
