@<TRIPOS>MOLECULE
ZINC33037212_3271
62   66    1
SMALL
USER_CHARGES


@<TRIPOS>ATOM
      1 C1          3.3842   53.7622   13.0250 C.3       1 UNK         0.0000 
      2 C2          3.8707   54.0669   14.4298 C.ar      1 UNK         0.0000 
      3 C3          4.0064   55.3927   14.8470 C.ar      1 UNK         0.0000 
      4 C4          4.4642   55.6741   16.1319 C.ar      1 UNK         0.0000 
      5 C5          4.7916   54.6312   17.0022 C.ar      1 UNK         0.0000 
      6 C6          4.6598   53.3067   16.5776 C.ar      1 UNK         0.0000 
      7 C7          4.2020   53.0228   15.2949 C.ar      1 UNK         0.0000 
      8 C8          5.2728   54.9144   18.3862 C.ar      1 UNK         0.0000 
      9 C9          6.2180   55.8726   18.8004 C.ar      1 UNK         0.0000 
     10 N10         6.3854   55.8547   20.1019 N.2       1 UNK         0.0000 
     11 N11         5.5755   54.8967   20.5812 N.pl3     1 UNK         0.0000 
     12 C12         4.8777   54.2749   19.5587 C.ar      1 UNK         0.0000 
     13 N13         3.9042   53.2951   19.7022 N.am      1 UNK         0.0000 
     14 C14         4.0850   52.1116   20.3192 C.2       1 UNK         0.0000 
     15 O15         5.1044   51.7864   20.9254 O.2       1 UNK         0.0000 
     16 C16         2.9221   51.1302   20.2450 C.3       1 UNK         0.0000 
     17 C17         5.5090   54.7014   21.9804 C.ar      1 UNK         0.0000 
     18 C18         4.2712   54.4957   22.5951 C.ar      1 UNK         0.0000 
     19 C19         4.1956   54.3502   23.9744 C.ar      1 UNK         0.0000 
     20 C20         5.3537   54.4303   24.7684 C.ar      1 UNK         0.0000 
     21 C21         6.5897   54.6293   24.1393 C.ar      1 UNK         0.0000 
     22 C22         6.6706   54.7630   22.7586 C.ar      1 UNK         0.0000 
     23 C23         5.3010   54.2691   26.2731 C.2       1 UNK         0.0000 
     24 O24         6.3401   54.2776   26.9388 O.2       1 UNK         0.0000 
     25 N25         4.0643   54.1139   26.7950 N.am      1 UNK         0.0000 
     26 C26         3.6921   53.6416   28.0598 C.ar      1 UNK         0.0000 
     27 C27         4.5482   52.8959   28.8849 C.ar      1 UNK         0.0000 
     28 C28         4.0791   52.3517   30.0802 C.ar      1 UNK         0.0000 
     29 C29         2.7618   52.5616   30.4649 C.ar      1 UNK         0.0000 
     30 C30         1.8969   53.3009   29.6437 C.ar      1 UNK         0.0000 
     31 C31         2.3634   53.8472   28.4491 C.ar      1 UNK         0.0000 
     32 O32         0.5848   53.5379   29.9954 O.3       1 UNK         0.0000 
     33 C33         0.0650   52.5623   30.9044 C.3       1 UNK         0.0000 
     34 C34         1.0475   52.3511   32.0816 C.3       1 UNK         0.0000 
     35 O35         2.3479   51.9580   31.6316 O.3       1 UNK         0.0000 
     36 C36         7.0227   56.8559   17.9790 C.3       1 UNK         0.0000 
     37 H37         3.7569   52.7978   12.6777 H         1 UNK         0.0000 
     38 H38         3.7476   54.5105   12.3196 H         1 UNK         0.0000 
     39 H39         2.2946   53.7542   12.9908 H         1 UNK         0.0000 
     40 H40         3.7547   56.2048   14.1806 H         1 UNK         0.0000 
     41 H41         4.5545   56.7023   16.4512 H         1 UNK         0.0000 
     42 H42         4.9213   52.4956   17.2413 H         1 UNK         0.0000 
     43 H43         4.1074   51.9920   14.9831 H         1 UNK         0.0000 
     44 H44         3.0530   53.4321   19.1774 H         1 UNK         0.0000 
     45 H45         2.0140   51.6047   19.8736 H         1 UNK         0.0000 
     46 H46         3.1789   50.3098   19.5733 H         1 UNK         0.0000 
     47 H47         2.7158   50.7157   21.2315 H         1 UNK         0.0000 
     48 H48         3.3596   54.4686   22.0151 H         1 UNK         0.0000 
     49 H49         3.2166   54.1847   24.3981 H         1 UNK         0.0000 
     50 H50         7.5044   54.6793   24.7120 H         1 UNK         0.0000 
     51 H51         7.6377   54.9199   22.3016 H         1 UNK         0.0000 
     52 H52         3.2956   54.2798   26.1673 H         1 UNK         0.0000 
     53 H53         5.5661   52.6852   28.5949 H         1 UNK         0.0000 
     54 H54         4.7333   51.7572   30.7002 H         1 UNK         0.0000 
     55 H55         1.6822   54.4080   27.8257 H         1 UNK         0.0000 
     56 H56        -0.0993   51.6242   30.3753 H         1 UNK         0.0000 
     57 H57        -0.8957   52.8967   31.2817 H         1 UNK         0.0000 
     58 H58         0.6941   51.5812   32.7651 H         1 UNK         0.0000 
     59 H59         1.1044   53.2775   32.6522 H         1 UNK         0.0000 
     60 H60         7.0117   56.6141   16.9168 H         1 UNK         0.0000 
     61 H61         6.6397   57.8718   18.0818 H         1 UNK         0.0000 
     62 H62         8.0712   56.8740   18.2795 H         1 UNK         0.0000 
@<TRIPOS>BOND
     1    1    2 1    
     2    1   37 1    
     3    1   38 1    
     4    1   39 1    
     5    2    7 ar   
     6    2    3 ar   
     7    3    4 ar   
     8    3   40 1    
     9    4    5 ar   
    10    4   41 1    
    11    5    6 ar   
    12    5    8 1    
    13    6    7 ar   
    14    6   42 1    
    15    7   43 1    
    16    8   12 ar   
    17    8    9 ar   
    18    9   10 ar   
    19    9   36 1    
    20   10   11 ar   
    21   11   12 ar   
    22   11   17 1    
    23   12   13 1    
    24   13   14 am   BACKBONE|DICT|INTERRES
    25   13   44 1    
    26   14   15 2    
    27   14   16 1    
    28   16   45 1    
    29   16   46 1    
    30   16   47 1    
    31   17   22 ar   
    32   17   18 ar   
    33   18   19 ar   
    34   18   48 1    
    35   19   20 ar   
    36   19   49 1    
    37   20   21 ar   
    38   20   23 1    
    39   21   22 ar   
    40   21   50 1    
    41   22   51 1    
    42   23   24 2    
    43   23   25 am   BACKBONE|DICT|INTERRES
    44   25   26 1    
    45   25   52 1    
    46   26   31 ar   
    47   26   27 ar   
    48   27   28 ar   
    49   27   53 1    
    50   28   29 ar   
    51   28   54 1    
    52   29   35 1    
    53   29   30 ar   
    54   30   31 ar   
    55   30   32 1    
    56   31   55 1    
    57   32   33 1    
    58   33   34 1    
    59   33   56 1    
    60   33   57 1    
    61   34   35 1    
    62   34   58 1    
    63   34   59 1    
    64   36   60 1    
    65   36   61 1    
    66   36   62 1    
@<TRIPOS>SUBSTRUCTURE
     1 UNK         1 GROUP             0       ****    0 ROOT    
