@<TRIPOS>MOLECULE
ZINC14857020_71
53   56    1
SMALL
USER_CHARGES


@<TRIPOS>ATOM
      1 C1          5.1792   53.2552   17.0906 C.3       1 UNK         0.0000 
      2 C2          3.9811   53.3168   18.0572 C.3       1 UNK         0.0000 
      3 C3          4.3431   53.5991   19.5139 C.ar      1 UNK         0.0000 
      4 C4          3.7021   52.8893   20.5314 C.ar      1 UNK         0.0000 
      5 C5          4.0136   53.1381   21.8657 C.ar      1 UNK         0.0000 
      6 C6          4.9780   54.0957   22.2008 C.ar      1 UNK         0.0000 
      7 C7          5.6010   54.8214   21.1781 C.ar      1 UNK         0.0000 
      8 C8          5.2845   54.5765   19.8454 C.ar      1 UNK         0.0000 
      9 C9          5.3774   54.3318   23.6248 C.2       1 UNK         0.0000 
     10 C10         6.6365   54.7888   24.0257 C.2       1 UNK         0.0000 
     11 S11         6.7041   54.8972   25.7467 S.3       1 UNK         0.0000 
     12 C12         5.0723   54.3013   25.8070 C.2       1 UNK         0.0000 
     13 N13         4.5355   54.0975   24.6271 N.2       1 UNK         0.0000 
     14 N14         4.3746   54.0713   26.9922 N.am      1 UNK         0.0000 
     15 C15         4.8878   54.0278   28.2486 C.2       1 UNK         0.0000 
     16 O16         6.0882   54.0961   28.4975 O.2       1 UNK         0.0000 
     17 C17         3.9458   53.8755   29.4682 C.3       1 UNK         0.0000 
     18 N18         2.5372   53.6160   29.1100 N.am      1 UNK         0.0000 
     19 C19         2.0553   52.3708   28.9037 C.2       1 UNK         0.0000 
     20 O20         2.6144   51.2969   29.1309 O.2       1 UNK         0.0000 
     21 C21         0.6567   52.5551   28.3302 C.3       1 UNK         0.0000 
     22 N22         0.5294   53.9834   28.4815 N.am      1 UNK         0.0000 
     23 C23         1.6456   54.6081   28.8678 C.2       1 UNK         0.0000 
     24 O24         1.8396   55.8214   28.8824 O.2       1 UNK         0.0000 
     25 C25        -0.3671   51.8645   29.2683 C.3       1 UNK         0.0000 
     26 C26         0.6254   52.0753   26.8530 C.ar      1 UNK         0.0000 
     27 C27         0.1531   50.7938   26.5222 C.ar      1 UNK         0.0000 
     28 C28         0.1558   50.3535   25.2019 C.ar      1 UNK         0.0000 
     29 C29         0.6246   51.1878   24.1919 C.ar      1 UNK         0.0000 
     30 C30         1.0953   52.4605   24.4948 C.ar      1 UNK         0.0000 
     31 C31         1.1049   52.8965   25.8167 C.ar      1 UNK         0.0000 
     32 F32         0.6255   50.7582   22.9098 F         1 UNK         0.0000 
     33 H33         4.8480   52.9876   16.0870 H         1 UNK         0.0000 
     34 H34         5.6948   54.2121   17.0135 H         1 UNK         0.0000 
     35 H35         5.9008   52.4972   17.4034 H         1 UNK         0.0000 
     36 H36         3.4607   52.3584   17.9937 H         1 UNK         0.0000 
     37 H37         3.2729   54.0765   17.7251 H         1 UNK         0.0000 
     38 H38         2.9643   52.1382   20.2881 H         1 UNK         0.0000 
     39 H39         3.5153   52.5604   22.6304 H         1 UNK         0.0000 
     40 H40         6.3366   55.5770   21.4079 H         1 UNK         0.0000 
     41 H41         5.7745   55.1516   19.0742 H         1 UNK         0.0000 
     42 H42         7.5036   55.0359   23.4255 H         1 UNK         0.0000 
     43 H43         3.3985   53.8504   26.8850 H         1 UNK         0.0000 
     44 H44         4.0284   54.7734   30.0809 H         1 UNK         0.0000 
     45 H45         4.3195   53.0467   30.0693 H         1 UNK         0.0000 
     46 H46        -0.3842   54.3954   28.5960 H         1 UNK         0.0000 
     47 H47        -0.1524   50.8060   29.3861 H         1 UNK         0.0000 
     48 H48        -0.3825   52.2942   30.2734 H         1 UNK         0.0000 
     49 H49        -1.3814   51.9395   28.8741 H         1 UNK         0.0000 
     50 H50        -0.2088   50.1050   27.2728 H         1 UNK         0.0000 
     51 H51        -0.2003   49.3618   24.9671 H         1 UNK         0.0000 
     52 H52         1.4615   53.1031   23.7083 H         1 UNK         0.0000 
     53 H53         1.4978   53.8816   26.0239 H         1 UNK         0.0000 
@<TRIPOS>BOND
     1    1    2 1    
     2    1   33 1    
     3    1   34 1    
     4    1   35 1    
     5    2    3 1    
     6    2   36 1    
     7    2   37 1    
     8    3    8 ar   
     9    3    4 ar   
    10    4    5 ar   
    11    4   38 1    
    12    5    6 ar   
    13    5   39 1    
    14    6    7 ar   
    15    6    9 1    
    16    7    8 ar   
    17    7   40 1    
    18    8   41 1    
    19    9   13 1    
    20    9   10 2    
    21   10   11 1    
    22   10   42 1    
    23   11   12 1    
    24   12   13 2    
    25   12   14 am   BACKBONE|DICT|INTERRES
    26   14   15 am   BACKBONE|DICT|INTERRES
    27   14   43 1    
    28   15   16 2    
    29   15   17 1    
    30   17   18 1    
    31   17   44 1    
    32   17   45 1    
    33   18   23 am   BACKBONE|DICT|INTERRES
    34   18   19 am   BACKBONE|DICT|INTERRES
    35   19   20 2    
    36   19   21 1    
    37   21   22 1    
    38   21   25 1    
    39   21   26 1    
    40   22   23 am   BACKBONE|DICT|INTERRES
    41   22   46 1    
    42   23   24 2    
    43   25   47 1    
    44   25   48 1    
    45   25   49 1    
    46   26   31 ar   
    47   26   27 ar   
    48   27   28 ar   
    49   27   50 1    
    50   28   29 ar   
    51   28   51 1    
    52   29   30 ar   
    53   29   32 1    
    54   30   31 ar   
    55   30   52 1    
    56   31   53 1    
@<TRIPOS>SUBSTRUCTURE
     1 UNK         1 GROUP             0       ****    0 ROOT    
