@<TRIPOS>MOLECULE
ZINC36660280_5706
67   70    1
SMALL
USER_CHARGES


@<TRIPOS>ATOM
      1 C1          1.0624   49.3355   17.6276 C.3       1 UNK         0.0000 
      2 C2          1.4144   50.7614   17.1764 C.3       1 UNK         0.0000 
      3 N3          2.7004   51.2968   17.8586 N.4       1 UNK         0.0000 
      4 C4          3.0955   52.6702   17.2486 C.3       1 UNK         0.0000 
      5 C5          4.4199   53.2114   17.8152 C.3       1 UNK         0.0000 
      6 C6          2.6773   51.2539   19.4100 C.3       1 UNK         0.0000 
      7 C7          1.7215   52.3168   19.9968 C.3       1 UNK         0.0000 
      8 N8          1.5565   52.2340   21.4671 N.am      1 UNK         0.0000 
      9 C9          2.5191   52.9107   22.2411 C.2       1 UNK         0.0000 
     10 N10         3.7253   53.1751   21.8016 N.2       1 UNK         0.0000 
     11 C11         4.4760   53.8275   22.7278 C.ar      1 UNK         0.0000 
     12 C12         5.8087   54.2191   22.5514 C.ar      1 UNK         0.0000 
     13 C13         6.4794   54.7889   23.6344 C.ar      1 UNK         0.0000 
     14 C14         5.8557   54.9787   24.8661 C.ar      1 UNK         0.0000 
     15 C15         4.5116   54.6523   25.0464 C.ar      1 UNK         0.0000 
     16 C16         3.8221   54.0968   23.9568 C.ar      1 UNK         0.0000 
     17 S17         2.1338   53.6648   23.7840 S.3       1 UNK         0.0000 
     18 F18         6.5605   55.5122   25.8888 F         1 UNK         0.0000 
     19 C19         0.6089   51.3617   21.9467 C.2       1 UNK         0.0000 
     20 O20        -0.2649   50.9138   21.1935 O.2       1 UNK         0.0000 
     21 C21         0.6436   50.7658   23.3881 C.3       1 UNK         0.0000 
     22 H22         1.2793   51.2985   24.0809 H         1 UNK         0.0000 
     23 C23         1.1319   49.3181   23.3439 C.3       1 UNK         0.0000 
     24 C24         0.4578   48.6745   24.5368 C.3       1 UNK         0.0000 
     25 C25        -0.9570   49.2437   24.5288 C.3       1 UNK         0.0000 
     26 N26        -0.7334   50.6054   23.9609 N.pl3     1 UNK         0.0000 
     27 S27        -1.5394   51.9711   24.7398 S.o2      1 UNK         0.0000 
     28 O28        -1.0699   53.1965   24.0822 O.2       1 UNK         0.0000 
     29 O29        -2.9730   51.6602   24.7886 O.2       1 UNK         0.0000 
     30 C30        -0.9402   51.9820   26.4392 C.ar      1 UNK         0.0000 
     31 C31         0.3216   52.4969   26.7373 C.ar      1 UNK         0.0000 
     32 C32         0.7600   52.5747   28.0557 C.ar      1 UNK         0.0000 
     33 C33        -0.0592   52.1168   29.0859 C.ar      1 UNK         0.0000 
     34 C34        -1.2954   51.5450   28.7882 C.ar      1 UNK         0.0000 
     35 C35        -1.7357   51.4714   27.4683 C.ar      1 UNK         0.0000 
     36 C36         0.4015   52.2438   30.5260 C.3       1 UNK         0.0000 
     37 H37         0.2611   48.9291   17.0101 H         1 UNK         0.0000 
     38 H38         1.9150   48.6634   17.5323 H         1 UNK         0.0000 
     39 H39         0.7122   49.3018   18.6594 H         1 UNK         0.0000 
     40 H40         0.6161   51.4757   17.3830 H         1 UNK         0.0000 
     41 H41         1.6382   50.7709   16.1074 H         1 UNK         0.0000 
     42 H42         3.1863   52.4915   16.1751 H         1 UNK         0.0000 
     43 H43         2.2601   53.3499   17.4278 H         1 UNK         0.0000 
     44 H44         4.7110   54.1254   17.2980 H         1 UNK         0.0000 
     45 H45         4.3469   53.4552   18.8740 H         1 UNK         0.0000 
     46 H46         5.2312   52.4968   17.6838 H         1 UNK         0.0000 
     47 H47         3.7138   51.4106   19.7098 H         1 UNK         0.0000 
     48 H48         2.4283   50.2360   19.7054 H         1 UNK         0.0000 
     49 H49         0.7524   52.2742   19.4995 H         1 UNK         0.0000 
     50 H50         2.1152   53.2969   19.7456 H         1 UNK         0.0000 
     51 H51         6.3034   54.0922   21.6024 H         1 UNK         0.0000 
     52 H52         7.5040   55.0955   23.5170 H         1 UNK         0.0000 
     53 H53         4.0204   54.8383   25.9898 H         1 UNK         0.0000 
     54 H54         0.8743   48.8021   22.4151 H         1 UNK         0.0000 
     55 H55         2.2193   49.2968   23.4257 H         1 UNK         0.0000 
     56 H56         0.4645   47.5846   24.4918 H         1 UNK         0.0000 
     57 H57         0.9738   48.9505   25.4611 H         1 UNK         0.0000 
     58 H58        -1.5281   48.6157   23.8434 H         1 UNK         0.0000 
     59 H59        -1.3212   49.2340   25.5589 H         1 UNK         0.0000 
     60 H60         0.9511   52.8762   25.9586 H         1 UNK         0.0000 
     61 H61         1.7262   53.0056   28.2757 H         1 UNK         0.0000 
     62 H62        -1.9195   51.1438   29.5760 H         1 UNK         0.0000 
     63 H63        -2.6972   51.0258   27.2582 H         1 UNK         0.0000 
     64 H64         1.4139   51.8526   30.6359 H         1 UNK         0.0000 
     65 H65         0.4187   53.2923   30.8256 H         1 UNK         0.0000 
     66 H66        -0.2436   51.6982   31.2176 H         1 UNK         0.0000 
     67 H67         3.4443   50.6506   17.5821 H         1 UNK         0.0000 
@<TRIPOS>BOND
     1    1    2 1    
     2    1   37 1    
     3    1   38 1    
     4    1   39 1    
     5    2    3 1    
     6    2   40 1    
     7    2   41 1    
     8    3    4 1    
     9    3    6 1    
    10    3   67 1    
    11    4    5 1    
    12    4   42 1    
    13    4   43 1    
    14    5   44 1    
    15    5   45 1    
    16    5   46 1    
    17    6    7 1    
    18    6   47 1    
    19    6   48 1    
    20    7    8 1    
    21    7   49 1    
    22    7   50 1    
    23    8    9 am   BACKBONE|DICT|INTERRES
    24    8   19 am   BACKBONE|DICT|INTERRES
    25    9   17 1    
    26    9   10 2    
    27   10   11 1    
    28   11   16 ar   
    29   11   12 ar   
    30   12   13 ar   
    31   12   51 1    
    32   13   14 ar   
    33   13   52 1    
    34   14   15 ar   
    35   14   18 1    
    36   15   16 ar   
    37   15   53 1    
    38   16   17 1    
    39   19   20 2    
    40   19   21 1    
    41   21   22 1    
    42   21   26 1    
    43   21   23 1    
    44   23   24 1    
    45   23   54 1    
    46   23   55 1    
    47   24   25 1    
    48   24   56 1    
    49   24   57 1    
    50   25   26 1    
    51   25   58 1    
    52   25   59 1    
    53   26   27 1    
    54   27   28 2    
    55   27   29 2    
    56   27   30 1    
    57   30   35 ar   
    58   30   31 ar   
    59   31   32 ar   
    60   31   60 1    
    61   32   33 ar   
    62   32   61 1    
    63   33   34 ar   
    64   33   36 1    
    65   34   35 ar   
    66   34   62 1    
    67   35   63 1    
    68   36   64 1    
    69   36   65 1    
    70   36   66 1    
@<TRIPOS>SUBSTRUCTURE
     1 UNK         1 GROUP             0       ****    0 ROOT    
