ZINC32971813_3978
                    3D
 Schrodinger Suite 2024-2.
 56 59  0  0  1  0            999 V2000
    2.3778   48.1101   19.2465 C   0  0  0  0  0  0
    1.0866   48.9111   19.4352 C   0  0  0  0  0  0
    1.2693   49.8817   20.5077 N   0  0  0  0  0  0
    1.7568   51.1624   20.4216 C   0  0  0  0  0  0
    1.7678   51.6293   21.7322 C   0  0  0  0  0  0
    1.2913   50.5510   22.5049 C   0  0  0  0  0  0
    1.0079   49.5069   21.7632 N   0  0  0  0  0  0
    1.0691   50.4652   23.9991 C   0  0  0  0  0  0
    2.1518   53.0119   22.2019 C   0  0  0  0  0  0
    3.5510   53.3175   21.9001 N   0  0  0  0  0  0
    4.4098   53.9666   22.8328 C   0  0  0  0  0  0
    5.6510   54.4052   22.2716 N   0  0  0  0  0  0
    6.0394   54.8967   21.0134 C   0  0  0  0  0  0
    5.2086   54.9593   19.8847 C   0  0  0  0  0  0
    5.7010   55.4516   18.6783 C   0  0  0  0  0  0
    7.0246   55.8748   18.5905 C   0  0  0  0  0  0
    7.8606   55.8131   19.7003 C   0  0  0  0  0  0
    7.3637   55.3325   20.9073 C   0  0  0  0  0  0
    7.6966   56.5473   16.9432 Br  0  0  0  0  0  0
    4.0793   54.0957   24.0656 N   0  0  0  0  0  0
    4.9194   54.5624   25.0746 C   0  0  0  0  0  0
    5.9437   55.2332   24.8835 O   0  0  0  0  0  0
    4.4589   54.2370   26.4790 C   0  0  0  0  0  0
    5.3158   54.5183   27.5640 C   0  0  0  0  0  0
    4.9332   54.2557   28.8811 C   0  0  0  0  0  0
    3.6830   53.6905   29.0956 C   0  0  0  0  0  0
    2.8413   53.4080   28.0603 C   0  0  0  0  0  0
    3.1910   53.6666   26.7397 C   0  0  0  0  0  0
    1.7062   52.8403   28.5457 O   0  0  0  0  0  0
    1.7736   52.9983   29.9374 C   0  0  0  0  0  0
    3.1042   53.3053   30.2643 O   0  0  0  0  0  0
    2.1559   51.8105   19.1110 C   0  0  0  0  0  0
    2.2474   47.2981   18.5316 H   0  0  0  0  0  0
    3.1843   48.7463   18.8804 H   0  0  0  0  0  0
    2.7043   47.6932   20.1972 H   0  0  0  0  0  0
    0.2578   48.2493   19.6929 H   0  0  0  0  0  0
    0.8061   49.4315   18.5189 H   0  0  0  0  0  0
    1.5026   51.3086   24.5333 H   0  0  0  0  0  0
    0.0059   50.4512   24.2419 H   0  0  0  0  0  0
    1.5041   49.5612   24.4274 H   0  0  0  0  0  0
    1.9194   53.1356   23.2595 H   0  0  0  0  0  0
    1.5344   53.7403   21.6819 H   0  0  0  0  0  0
    3.7913   53.3521   20.9213 H   0  0  0  0  0  0
    4.1734   54.6643   19.9130 H   0  0  0  0  0  0
    5.0570   55.5068   17.8126 H   0  0  0  0  0  0
    8.8897   56.1365   19.6267 H   0  0  0  0  0  0
    8.0247   55.2919   21.7622 H   0  0  0  0  0  0
    6.2490   54.7821   22.9961 H   0  0  0  0  0  0
    6.2902   54.9580   27.3987 H   0  0  0  0  0  0
    5.6087   54.4993   29.6817 H   0  0  0  0  0  0
    2.5004   53.4234   25.9453 H   0  0  0  0  0  0
    1.1255   53.8261   30.2339 H   0  0  0  0  0  0
    1.4402   52.0924   30.4453 H   0  0  0  0  0  0
    2.4369   52.8554   19.2391 H   0  0  0  0  0  0
    3.0084   51.3039   18.6545 H   0  0  0  0  0  0
    1.3449   51.7942   18.3837 H   0  0  0  0  0  0
  1  2  1  0  0  0
  1 33  1  0  0  0
  1 34  1  0  0  0
  1 35  1  0  0  0
  2  3  1  0  0  0
  2 36  1  0  0  0
  2 37  1  0  0  0
  3  7  1  0  0  0
  3  4  1  0  0  0
  4  5  2  0  0  0
  4 32  1  0  0  0
  5  6  1  0  0  0
  5  9  1  0  0  0
  6  7  2  0  0  0
  6  8  1  0  0  0
  8 38  1  0  0  0
  8 39  1  0  0  0
  8 40  1  0  0  0
  9 41  1  0  0  0
  9 42  1  0  0  0
  9 10  1  0  0  0
 10 11  1  0  0  0
 10 43  1  0  0  0
 11 12  1  0  0  0
 11 20  2  0  0  0
 12 13  1  0  0  0
 12 48  1  0  0  0
 13 18  2  0  0  0
 13 14  1  0  0  0
 14 15  2  0  0  0
 14 44  1  0  0  0
 15 16  1  0  0  0
 15 45  1  0  0  0
 16 17  2  0  0  0
 16 19  1  0  0  0
 17 18  1  0  0  0
 17 46  1  0  0  0
 18 47  1  0  0  0
 20 21  1  0  0  0
 21 22  2  0  0  0
 21 23  1  0  0  0
 23 28  2  0  0  0
 23 24  1  0  0  0
 24 25  2  0  0  0
 24 49  1  0  0  0
 25 26  1  0  0  0
 25 50  1  0  0  0
 26 31  1  0  0  0
 26 27  2  0  0  0
 27 28  1  0  0  0
 27 29  1  0  0  0
 28 51  1  0  0  0
 29 30  1  0  0  0
 30 31  1  0  0  0
 30 52  1  0  0  0
 30 53  1  0  0  0
 32 54  1  0  0  0
 32 55  1  0  0  0
 32 56  1  0  0  0
M  END
> <i_i_glide_confnum>
245

> <i_i_glide_lignum>
3979

> <i_i_glide_posenum>
136

> <i_i_glide_rotatable_bonds>
8

> <i_m_Source_File_Index>
591

> <b_m_subgroup_collapsed>
0

> <r_i_docking_score>
-5.9672

> <r_i_glide_ecoul>
-5.11214

> <r_i_glide_eff_state_penalty>
0

> <r_i_glide_einternal>
9.75915

> <r_i_glide_emodel>
-64.3005

> <r_i_glide_energy>
-50.3375

> <r_i_glide_erotb>
0.410781

> <r_i_glide_esite>
-0.00364589

> <r_i_glide_evdw>
-45.2254

> <r_i_glide_gscore>
-5.9672

> <r_i_glide_hbond>
-0.32

> <r_i_glide_ligand_efficiency>
-0.186475

> <r_i_glide_ligand_efficiency_ln>
-1.33622

> <r_i_glide_ligand_efficiency_sa>
-0.592021

> <r_i_glide_lipo>
-2.39707

> <r_i_glide_metal>
0

> <r_i_glide_rewards>
-0.629176

> <s_i_glide_gridfile>
wee1_glide-grid

> <s_m_Source_File>
wee1_decoys_glide_SP.sdf

> <s_m_Source_Path>
/Users/zhangxujun/Desktop

> <s_m_entry_id>
866

> <s_m_entry_name>
wee1_decoys_glide_SP.591

> <s_m_subgroup_title>
wee1_decoys_glide_SP

> <s_m_subgroupid>
wee1_decoys_glide_SP


$$$$
