@<TRIPOS>MOLECULE
ZINC06131406_2995
46   48    1
SMALL
USER_CHARGES


@<TRIPOS>ATOM
      1 C1          4.3293   54.4980   29.2180 C.3       1 UNK         0.0000 
      2 O2          3.1738   54.0409   29.9153 O.3       1 UNK         0.0000 
      3 C3          2.1680   53.3960   29.2115 C.ar      1 UNK         0.0000 
      4 C4          2.1394   53.2890   27.8064 C.ar      1 UNK         0.0000 
      5 C5          1.1091   52.6020   27.1428 C.ar      1 UNK         0.0000 
      6 C6          0.0980   52.0201   27.9099 C.ar      1 UNK         0.0000 
      7 C7          0.1041   52.1261   29.2953 C.ar      1 UNK         0.0000 
      8 C8          1.1253   52.8140   29.9493 C.ar      1 UNK         0.0000 
      9 O9          1.1045   52.8962   31.3210 O.3       1 UNK         0.0000 
     10 Br10       -1.2956   51.2967   30.2735 Br        1 UNK         0.0000 
     11 C11         1.0594   52.4361   25.6852 C.2       1 UNK         0.0000 
     12 N12         1.9279   52.9100   24.8728 N.2       1 UNK         0.0000 
     13 N13         1.8738   52.6434   23.5156 N.am      1 UNK         0.0000 
     14 C14         0.8618   52.2053   22.7147 C.2       1 UNK         0.0000 
     15 O15        -0.3333   52.2132   23.0237 O.2       1 UNK         0.0000 
     16 C16         1.2880   51.6058   21.3884 C.ar      1 UNK         0.0000 
     17 C17         0.6078   50.4616   20.9386 C.ar      1 UNK         0.0000 
     18 C18         0.9780   49.8173   19.7599 C.ar      1 UNK         0.0000 
     19 C19         2.0322   50.3129   19.0008 C.ar      1 UNK         0.0000 
     20 C20         2.7039   51.4586   19.4160 C.ar      1 UNK         0.0000 
     21 C21         2.3485   52.1140   20.5989 C.ar      1 UNK         0.0000 
     22 N22         3.0240   53.2966   20.9339 N.pl3     1 UNK         0.0000 
     23 S23         4.6852   53.3046   21.4805 S.o2      1 UNK         0.0000 
     24 O24         4.7502   54.2159   22.6266 O.2       1 UNK         0.0000 
     25 O25         5.1048   51.9044   21.5713 O.2       1 UNK         0.0000 
     26 C26         5.5628   54.0872   20.1072 C.2       1 UNK         0.0000 
     27 C27         5.8559   53.5005   18.8812 C.2       1 UNK         0.0000 
     28 C28         6.5823   54.3476   18.0383 C.2       1 UNK         0.0000 
     29 C29         6.8548   55.5772   18.6221 C.2       1 UNK         0.0000 
     30 S30         6.2212   55.6916   20.2323 S.3       1 UNK         0.0000 
     31 H31         5.0495   54.8990   29.9314 H         1 UNK         0.0000 
     32 H32         4.8227   53.6867   28.6792 H         1 UNK         0.0000 
     33 H33         4.0807   55.2959   28.5173 H         1 UNK         0.0000 
     34 H34         2.9274   53.7314   27.2148 H         1 UNK         0.0000 
     35 H35        -0.7043   51.4641   27.4421 H         1 UNK         0.0000 
     36 H36         0.3208   52.4961   31.7159 H         1 UNK         0.0000 
     37 H37         0.2217   51.8317   25.3481 H         1 UNK         0.0000 
     38 H38         2.7307   52.8932   23.0412 H         1 UNK         0.0000 
     39 H39        -0.2080   50.0472   21.5150 H         1 UNK         0.0000 
     40 H40         0.4529   48.9306   19.4362 H         1 UNK         0.0000 
     41 H41         2.3335   49.8182   18.0871 H         1 UNK         0.0000 
     42 H42         3.5058   51.8317   18.7988 H         1 UNK         0.0000 
     43 H43         2.4644   54.1202   21.1143 H         1 UNK         0.0000 
     44 H44         5.5711   52.4968   18.6053 H         1 UNK         0.0000 
     45 H45         6.9017   54.0696   17.0441 H         1 UNK         0.0000 
     46 H46         7.3975   56.4056   18.1904 H         1 UNK         0.0000 
@<TRIPOS>BOND
     1    1    2 1    
     2    1   31 1    
     3    1   32 1    
     4    1   33 1    
     5    2    3 1    
     6    3    8 ar   
     7    3    4 ar   
     8    4    5 ar   
     9    4   34 1    
    10    5    6 ar   
    11    5   11 1    
    12    6    7 ar   
    13    6   35 1    
    14    7    8 ar   
    15    7   10 1    
    16    8    9 1    
    17    9   36 1    
    18   11   12 2    
    19   11   37 1    
    20   12   13 1    
    21   13   14 am   BACKBONE|DICT|INTERRES
    22   13   38 1    
    23   14   15 2    
    24   14   16 1    
    25   16   21 ar   
    26   16   17 ar   
    27   17   18 ar   
    28   17   39 1    
    29   18   19 ar   
    30   18   40 1    
    31   19   20 ar   
    32   19   41 1    
    33   20   21 ar   
    34   20   42 1    
    35   21   22 1    
    36   22   23 1    
    37   22   43 1    
    38   23   24 2    
    39   23   25 2    
    40   23   26 1    
    41   26   30 1    
    42   26   27 2    
    43   27   28 1    
    44   27   44 1    
    45   28   29 2    
    46   28   45 1    
    47   29   30 1    
    48   29   46 1    
@<TRIPOS>SUBSTRUCTURE
     1 UNK         1 GROUP             0       ****    0 ROOT    
