@<TRIPOS>MOLECULE
ZINC19418704_5893
48   51    1
SMALL
USER_CHARGES


@<TRIPOS>ATOM
      1 C1          1.3551   56.4234   29.7979 C.2       1 UNK         0.0000 
      2 C2          0.9005   55.3584   30.4785 C.2       1 UNK         0.0000 
      3 C3          0.6289   53.9772   29.9025 C.3       1 UNK         0.0000 
      4 O4          0.7852   53.9457   28.4836 O.3       1 UNK         0.0000 
      5 C5          1.1470   52.7013   27.9578 C.3       1 UNK         0.0000 
      6 H6          0.5664   51.9047   28.4325 H         1 UNK         0.0000 
      7 C7          0.9454   52.7103   26.4371 C.2       1 UNK         0.0000 
      8 C8         -0.0354   52.0778   25.7596 C.2       1 UNK         0.0000 
      9 N9         -1.0465   51.2872   26.2562 N.pl3     1 UNK         0.0000 
     10 C10        -1.8305   50.3606   25.5484 C.ar      1 UNK         0.0000 
     11 C11        -1.5577   49.9891   24.2205 C.ar      1 UNK         0.0000 
     12 C12        -2.3214   49.0282   23.5519 C.ar      1 UNK         0.0000 
     13 C13        -3.3724   48.4152   24.2437 C.ar      1 UNK         0.0000 
     14 C14        -3.6556   48.7957   25.5770 C.ar      1 UNK         0.0000 
     15 C15        -2.8961   49.7722   26.2325 C.ar      1 UNK         0.0000 
     16 S16        -5.0055   47.8474   26.1622 S.3       1 UNK         0.0000 
     17 C17        -5.0324   47.0088   24.6153 C.2       1 UNK         0.0000 
     18 N18        -4.1690   47.4394   23.7358 N.2       1 UNK         0.0000 
     19 S19        -6.1607   45.6971   24.2421 S.3       1 UNK         0.0000 
     20 C20        -6.7043   45.1399   25.9058 C.3       1 UNK         0.0000 
     21 C21        -5.5381   44.5236   26.7001 C.2       1 UNK         0.0000 
     22 O22        -4.5317   44.0954   26.0821 O.co2     1 UNK         0.0000 
     23 O23        -5.6950   44.4951   27.9419 O.co2     1 UNK         0.0000 
     24 C24         1.9213   53.4783   25.6465 C.2       1 UNK         0.0000 
     25 O25         1.7378   53.8955   24.4977 O.2       1 UNK         0.0000 
     26 C26         3.2035   53.7118   26.3649 C.ar      1 UNK         0.0000 
     27 C27         4.2345   54.4402   25.7596 C.ar      1 UNK         0.0000 
     28 C28         5.4506   54.6256   26.4133 C.ar      1 UNK         0.0000 
     29 C29         5.6492   54.1067   27.6928 C.ar      1 UNK         0.0000 
     30 C30         4.6313   53.3805   28.3105 C.ar      1 UNK         0.0000 
     31 C31         3.4199   53.1801   27.6465 C.ar      1 UNK         0.0000 
     32 O32         2.4821   52.3882   28.2795 O.3       1 UNK         0.0000 
     33 Cl33        6.7043   55.4922   25.6155 Cl        1 UNK         0.0000 
     34 H34         1.5197   57.3707   30.2942 H         1 UNK         0.0000 
     35 H35         1.5673   56.3685   28.7397 H         1 UNK         0.0000 
     36 H36         0.7050   55.4636   31.5350 H         1 UNK         0.0000 
     37 H37        -0.3863   53.6694   30.1571 H         1 UNK         0.0000 
     38 H38         1.3120   53.2885   30.4003 H         1 UNK         0.0000 
     39 H39        -0.0995   52.1698   24.6853 H         1 UNK         0.0000 
     40 H40        -1.1859   51.2398   27.2555 H         1 UNK         0.0000 
     41 H41        -0.7263   50.4209   23.6848 H         1 UNK         0.0000 
     42 H42        -2.0924   48.7441   22.5350 H         1 UNK         0.0000 
     43 H43        -3.0961   50.0156   27.2661 H         1 UNK         0.0000 
     44 H44        -7.1786   45.9517   26.4557 H         1 UNK         0.0000 
     45 H45        -7.4672   44.3723   25.7767 H         1 UNK         0.0000 
     46 H46         4.1088   54.8535   24.7680 H         1 UNK         0.0000 
     47 H47         6.5913   54.2565   28.2023 H         1 UNK         0.0000 
     48 H48         4.7869   52.9527   29.2883 H         1 UNK         0.0000 
@<TRIPOS>BOND
     1    1    2 2    
     2    1   34 1    
     3    1   35 1    
     4    2    3 1    
     5    2   36 1    
     6    3    4 1    
     7    3   37 1    
     8    3   38 1    
     9    4    5 1    
    10    5    6 1    
    11    5   32 1    
    12    5    7 1    
    13    7    8 2    
    14    7   24 1    
    15    8    9 1    
    16    8   39 1    
    17    9   10 1    
    18    9   40 1    
    19   10   15 ar   
    20   10   11 ar   
    21   11   12 ar   
    22   11   41 1    
    23   12   13 ar   
    24   12   42 1    
    25   13   18 1    
    26   13   14 ar   
    27   14   15 ar   
    28   14   16 1    
    29   15   43 1    
    30   16   17 1    
    31   17   18 2    
    32   17   19 1    
    33   19   20 1    
    34   20   21 1    
    35   20   44 1    
    36   20   45 1    
    37   21   22 2    
    38   21   23 1    
    39   24   25 2    
    40   24   26 1    
    41   26   31 ar   
    42   26   27 ar   
    43   27   28 ar   
    44   27   46 1    
    45   28   29 ar   
    46   28   33 1    
    47   29   30 ar   
    48   29   47 1    
    49   30   31 ar   
    50   30   48 1    
    51   31   32 1    
@<TRIPOS>SUBSTRUCTURE
     1 UNK         1 GROUP             0       ****    0 ROOT    
