@<TRIPOS>MOLECULE
ZINC09056228_6
54   58    1
SMALL
USER_CHARGES


@<TRIPOS>ATOM
      1 C1          4.2289   53.9815   28.4723 C.ar      1 UNK         0.0000 
      2 C2          3.3907   53.6039   29.5140 C.ar      1 UNK         0.0000 
      3 C3          2.1128   53.0940   29.2726 C.ar      1 UNK         0.0000 
      4 C4          1.6789   52.9507   27.9350 C.ar      1 UNK         0.0000 
      5 C5          2.5410   53.3295   26.8987 C.ar      1 UNK         0.0000 
      6 C6          3.8146   53.8583   27.1440 C.ar      1 UNK         0.0000 
      7 C7          4.7318   54.2833   26.0300 C.2       1 UNK         0.0000 
      8 C8          5.9787   54.8967   26.1952 C.2       1 UNK         0.0000 
      9 S9          6.7037   55.2115   24.6568 S.3       1 UNK         0.0000 
     10 C10         5.3066   54.4960   23.9086 C.2       1 UNK         0.0000 
     11 N11         4.3992   54.0864   24.7593 N.2       1 UNK         0.0000 
     12 N12         5.1498   54.3100   22.5365 N.am      1 UNK         0.0000 
     13 C13         5.9041   54.8190   21.5340 C.2       1 UNK         0.0000 
     14 O14         6.8049   55.6391   21.7048 O.2       1 UNK         0.0000 
     15 C15         5.6595   54.3820   20.0658 C.3       1 UNK         0.0000 
     16 N16         4.4787   53.5252   19.7667 N.am      1 UNK         0.0000 
     17 C17         4.1293   52.3599   20.3643 C.2       1 UNK         0.0000 
     18 O18         4.7038   51.7692   21.2818 O.2       1 UNK         0.0000 
     19 C19         2.7759   51.9761   19.7692 C.3       1 UNK         0.0000 
     20 C20         2.6876   50.4739   19.3854 C.3       1 UNK         0.0000 
     21 C21         1.3840   49.9465   19.9931 C.3       1 UNK         0.0000 
     22 C22         1.2041   50.7786   21.2577 C.3       1 UNK         0.0000 
     23 C23         1.6633   52.1788   20.8385 C.3       1 UNK         0.0000 
     24 N24         2.7424   52.8949   18.6705 N.am      1 UNK         0.0000 
     25 C25         3.7276   53.7936   18.6674 C.2       1 UNK         0.0000 
     26 O26         3.9881   54.5628   17.7437 O.2       1 UNK         0.0000 
     27 C27         0.2723   52.4423   27.6038 C.3       1 UNK         0.0000 
     28 C28        -0.3931   51.6988   28.7731 C.3       1 UNK         0.0000 
     29 C29        -0.2459   52.4931   30.0752 C.3       1 UNK         0.0000 
     30 C30         1.2385   52.6512   30.4487 C.3       1 UNK         0.0000 
     31 H31         5.2073   54.3649   28.7203 H         1 UNK         0.0000 
     32 H32         3.7571   53.6879   30.5242 H         1 UNK         0.0000 
     33 H33         2.1956   53.2259   25.8813 H         1 UNK         0.0000 
     34 H34         6.4863   55.1696   27.1084 H         1 UNK         0.0000 
     35 H35         4.3906   53.7035   22.2654 H         1 UNK         0.0000 
     36 H36         6.5558   53.9091   19.6672 H         1 UNK         0.0000 
     37 H37         5.5514   55.3240   19.5255 H         1 UNK         0.0000 
     38 H38         3.5089   49.8905   19.7971 H         1 UNK         0.0000 
     39 H39         2.7188   50.3140   18.3062 H         1 UNK         0.0000 
     40 H40         1.4249   48.8757   20.2009 H         1 UNK         0.0000 
     41 H41         0.5522   50.1184   19.3070 H         1 UNK         0.0000 
     42 H42         1.8450   50.3953   22.0565 H         1 UNK         0.0000 
     43 H43         0.1749   50.7664   21.6238 H         1 UNK         0.0000 
     44 H44         0.8099   52.6827   20.3773 H         1 UNK         0.0000 
     45 H45         1.9451   52.8011   21.6924 H         1 UNK         0.0000 
     46 H46         1.8831   53.0472   18.1656 H         1 UNK         0.0000 
     47 H47        -0.3502   53.2965   27.3413 H         1 UNK         0.0000 
     48 H48         0.2942   51.7996   26.7226 H         1 UNK         0.0000 
     49 H49         0.0640   50.7166   28.8870 H         1 UNK         0.0000 
     50 H50        -1.4463   51.5152   28.5549 H         1 UNK         0.0000 
     51 H51        -0.7824   51.9917   30.8817 H         1 UNK         0.0000 
     52 H52        -0.7054   53.4756   29.9615 H         1 UNK         0.0000 
     53 H53         1.6194   51.6968   30.8081 H         1 UNK         0.0000 
     54 H54         1.3320   53.3476   31.2832 H         1 UNK         0.0000 
@<TRIPOS>BOND
     1    1    6 ar   
     2    1    2 ar   
     3    1   31 1    
     4    2    3 ar   
     5    2   32 1    
     6    3   30 1    
     7    3    4 ar   
     8    4    5 ar   
     9    4   27 1    
    10    5    6 ar   
    11    5   33 1    
    12    6    7 1    
    13    7   11 1    
    14    7    8 2    
    15    8    9 1    
    16    8   34 1    
    17    9   10 1    
    18   10   11 2    
    19   10   12 am   BACKBONE|DICT|INTERRES
    20   12   13 am   BACKBONE|DICT|INTERRES
    21   12   35 1    
    22   13   14 2    
    23   13   15 1    
    24   15   16 1    
    25   15   36 1    
    26   15   37 1    
    27   16   25 am   BACKBONE|DICT|INTERRES
    28   16   17 am   BACKBONE|DICT|INTERRES
    29   17   18 2    
    30   17   19 1    
    31   19   23 1    
    32   19   20 1    
    33   19   24 1    
    34   20   21 1    
    35   20   38 1    
    36   20   39 1    
    37   21   22 1    
    38   21   40 1    
    39   21   41 1    
    40   22   23 1    
    41   22   42 1    
    42   22   43 1    
    43   23   44 1    
    44   23   45 1    
    45   24   25 am   BACKBONE|DICT|INTERRES
    46   24   46 1    
    47   25   26 2    
    48   27   28 1    
    49   27   47 1    
    50   27   48 1    
    51   28   29 1    
    52   28   49 1    
    53   28   50 1    
    54   29   30 1    
    55   29   51 1    
    56   29   52 1    
    57   30   53 1    
    58   30   54 1    
@<TRIPOS>SUBSTRUCTURE
     1 UNK         1 GROUP             0       ****    0 ROOT    
