ZINC33808853_3996
                    3D
 Schrodinger Suite 2024-2.
 57 62  0  0  1  0            999 V2000
   -1.2833   50.9149   26.9159 C   0  0  0  0  0  0
   -1.0635   51.3820   25.4647 C   0  0  2  0  0  0
   -2.2082   52.2825   24.9187 C   0  0  0  0  0  0
   -1.9806   52.2551   23.3838 C   0  0  0  0  0  0
   -0.7296   51.3278   23.2432 C   0  0  2  0  0  0
   -0.9402   50.2606   24.3793 C   0  0  0  0  0  0
   -2.2059   49.3671   24.2063 C   0  0  0  0  0  0
    0.2448   49.2637   24.6413 C   0  0  0  0  0  0
    0.4367   52.1279   23.8249 C   0  0  0  0  0  0
    0.2336   52.1542   25.1966 C   0  0  0  0  0  0
    1.1056   52.7328   26.0581 N   0  0  0  0  0  0
    2.2180   53.2969   25.4936 C   0  0  0  0  0  0
    3.2166   53.8601   26.3369 C   0  0  0  0  0  0
    4.3536   54.3785   25.7291 C   0  0  0  0  0  0
    4.5300   54.3816   24.3758 C   0  0  0  0  0  0
    3.5879   53.8658   23.4976 C   0  0  0  0  0  0
    2.4113   53.2960   24.0577 C   0  0  0  0  0  0
    1.5026   52.7096   23.2230 N   0  0  0  0  0  0
    5.7494   54.8964   24.0778 O   0  0  0  0  0  0
    6.2545   55.4037   25.2817 C   0  0  0  0  0  0
    5.4592   54.9003   26.3222 O   0  0  0  0  0  0
   -0.5053   50.7740   21.8084 C   0  0  0  0  0  0
   -1.2386   51.1260   20.8812 O   0  0  0  0  0  0
    0.5366   49.9201   21.6587 N   0  0  0  0  0  0
    0.7893   49.2500   20.4529 N   0  0  0  0  0  0
    0.0126   48.2126   20.0539 C   0  0  0  0  0  0
   -0.9738   47.8190   20.6838 O   0  0  0  0  0  0
    0.4403   47.5326   18.7669 C   0  0  0  0  0  0
    1.0650   48.2895   17.7561 C   0  0  0  0  0  0
    1.5042   47.6940   16.5782 C   0  0  0  0  0  0
    1.3403   46.3268   16.3819 C   0  0  0  0  0  0
    0.7020   45.5626   17.3546 C   0  0  0  0  0  0
    0.2540   46.1475   18.5427 C   0  0  0  0  0  0
   -0.4954   45.0758   19.6820 Cl  0  0  0  0  0  0
    1.9332   45.5819   14.9422 Cl  0  0  0  0  0  0
   -0.4481   50.3160   27.2827 H   0  0  0  0  0  0
   -1.3941   51.7655   27.5916 H   0  0  0  0  0  0
   -2.1807   50.3034   27.0104 H   0  0  0  0  0  0
   -3.1916   51.8883   25.1792 H   0  0  0  0  0  0
   -2.1587   53.2956   25.3243 H   0  0  0  0  0  0
   -2.8584   51.8615   22.8673 H   0  0  0  0  0  0
   -1.8051   53.2594   22.9882 H   0  0  0  0  0  0
   -3.1278   49.9197   24.0416 H   0  0  0  0  0  0
   -2.0943   48.6926   23.3578 H   0  0  0  0  0  0
   -2.3671   48.7443   25.0872 H   0  0  0  0  0  0
    0.1360   48.7658   25.6076 H   0  0  0  0  0  0
    0.2840   48.4691   23.8966 H   0  0  0  0  0  0
    1.2279   49.7332   24.6464 H   0  0  0  0  0  0
    3.0929   53.8497   27.4095 H   0  0  0  0  0  0
    3.7381   53.8581   22.4279 H   0  0  0  0  0  0
    7.2874   55.0721   25.3964 H   0  0  0  0  0  0
    6.1952   56.4935   25.2655 H   0  0  0  0  0  0
    1.1034   49.5862   22.4231 H   0  0  0  0  0  0
    1.3539   49.8016   19.8194 H   0  0  0  0  0  0
    1.2378   49.3519   17.8682 H   0  0  0  0  0  0
    2.0112   48.2941   15.8330 H   0  0  0  0  0  0
    0.5689   44.5040   17.1905 H   0  0  0  0  0  0
  1  2  1  0  0  0
  1 36  1  0  0  0
  1 37  1  0  0  0
  1 38  1  0  0  0
  2  6  1  0  0  0
  2 10  1  0  0  0
  2  3  1  0  0  0
  3  4  1  0  0  0
  3 39  1  0  0  0
  3 40  1  0  0  0
  4  5  1  0  0  0
  4 41  1  0  0  0
  4 42  1  0  0  0
  5  6  1  0  0  0
  5  9  1  0  0  0
  5 22  1  0  0  0
  6  7  1  0  0  0
  6  8  1  0  0  0
  7 43  1  0  0  0
  7 44  1  0  0  0
  7 45  1  0  0  0
  8 46  1  0  0  0
  8 47  1  0  0  0
  8 48  1  0  0  0
  9 18  2  0  0  0
  9 10  1  0  0  0
 10 11  2  0  0  0
 11 12  1  0  0  0
 12 17  2  0  0  0
 12 13  1  0  0  0
 13 14  2  0  0  0
 13 49  1  0  0  0
 14 21  1  0  0  0
 14 15  1  0  0  0
 15 16  2  0  0  0
 15 19  1  0  0  0
 16 17  1  0  0  0
 16 50  1  0  0  0
 17 18  1  0  0  0
 19 20  1  0  0  0
 20 21  1  0  0  0
 20 51  1  0  0  0
 20 52  1  0  0  0
 22 23  2  0  0  0
 22 24  1  0  0  0
 24 25  1  0  0  0
 24 53  1  0  0  0
 25 26  1  0  0  0
 25 54  1  0  0  0
 26 27  2  0  0  0
 26 28  1  0  0  0
 28 33  2  0  0  0
 28 29  1  0  0  0
 29 30  2  0  0  0
 29 55  1  0  0  0
 30 31  1  0  0  0
 30 56  1  0  0  0
 31 32  2  0  0  0
 31 35  1  0  0  0
 32 33  1  0  0  0
 32 57  1  0  0  0
 33 34  1  0  0  0
M  END
> <i_i_glide_confnum>
18

> <i_i_glide_lignum>
3997

> <i_i_glide_posenum>
224

> <i_i_glide_rotatable_bonds>
5

> <i_m_Source_File_Index>
2087

> <b_m_subgroup_collapsed>
0

> <r_i_docking_score>
-3.89669

> <r_i_glide_ecoul>
-1.74465

> <r_i_glide_eff_state_penalty>
0

> <r_i_glide_einternal>
1.11893

> <r_i_glide_emodel>
-49.6809

> <r_i_glide_energy>
-38.8965

> <r_i_glide_erotb>
0.311222

> <r_i_glide_esite>
-0.00542224

> <r_i_glide_evdw>
-37.1519

> <r_i_glide_gscore>
-3.89669

> <r_i_glide_hbond>
0

> <r_i_glide_ligand_efficiency>
-0.111334

> <r_i_glide_ligand_efficiency_ln>
-0.85541

> <r_i_glide_ligand_efficiency_sa>
-0.364181

> <r_i_glide_lipo>
-1.5082

> <r_i_glide_metal>
0

> <r_i_glide_rewards>
-0.575

> <s_i_glide_gridfile>
wee1_glide-grid

> <s_m_Source_File>
wee1_decoys_glide_SP.sdf

> <s_m_Source_Path>
/Users/zhangxujun/Desktop

> <s_m_entry_id>
2362

> <s_m_entry_name>
wee1_decoys_glide_SP.2087

> <s_m_subgroup_title>
wee1_decoys_glide_SP

> <s_m_subgroupid>
wee1_decoys_glide_SP


$$$$
