@<TRIPOS>MOLECULE
ZINC09781058_6098
65   69    1
SMALL
USER_CHARGES


@<TRIPOS>ATOM
      1 C1          1.2675   47.7600   17.6941 C.3       1 UNK         0.0000 
      2 C2          1.0738   49.1278   18.3822 C.3       1 UNK         0.0000 
      3 C3          2.3481   49.4291   19.2182 C.3       1 UNK         0.0000 
      4 C4          2.1311   50.5501   20.2430 C.2       1 UNK         0.0000 
      5 C5          0.9060   50.9219   20.7210 C.2       1 UNK         0.0000 
      6 C6          0.7451   52.1336   21.6871 C.3       1 UNK         0.0000 
      7 H7          0.2467   52.8963   21.0852 H         1 UNK         0.0000 
      8 C8          2.1260   52.7340   22.0519 C.ar      1 UNK         0.0000 
      9 C9          2.2160   53.8838   22.9394 C.ar      1 UNK         0.0000 
     10 O10         1.2940   54.4948   23.4634 O.2       1 UNK         0.0000 
     11 N11         3.4767   54.2841   23.1789 N.pl3     1 UNK         0.0000 
     12 H12         3.5352   55.0794   23.7851 H         1 UNK         0.0000 
     13 C13         4.6135   53.6856   22.7351 C.ar      1 UNK         0.0000 
     14 N14         4.5224   52.7504   21.8476 N.2       1 UNK         0.0000 
     15 C15         3.2823   52.2800   21.5001 C.ar      1 UNK         0.0000 
     16 N16         3.2660   51.2523   20.5967 N.pl3     1 UNK         0.0000 
     17 S17         6.2339   54.0972   23.4196 S.3       1 UNK         0.0000 
     18 C18         5.8114   55.2247   24.8062 C.3       1 UNK         0.0000 
     19 C19         5.2960   54.5450   26.0780 C.ar      1 UNK         0.0000 
     20 C20         3.9282   54.3399   26.3130 C.ar      1 UNK         0.0000 
     21 C21         3.4917   53.7236   27.4872 C.ar      1 UNK         0.0000 
     22 C22         4.4154   53.3275   28.4526 C.ar      1 UNK         0.0000 
     23 C23         5.7716   53.5711   28.2464 C.ar      1 UNK         0.0000 
     24 C24         6.2018   54.1829   27.0754 C.ar      1 UNK         0.0000 
     25 F25         7.5044   54.4749   26.9288 F         1 UNK         0.0000 
     26 C26        -0.2029   51.9199   22.8884 C.ar      1 UNK         0.0000 
     27 C27        -1.5001   52.4343   22.8617 C.ar      1 UNK         0.0000 
     28 C28        -2.3181   52.3613   23.9811 C.ar      1 UNK         0.0000 
     29 C29        -1.8728   51.7477   25.1604 C.ar      1 UNK         0.0000 
     30 C30        -0.5828   51.1869   25.1632 C.ar      1 UNK         0.0000 
     31 C31         0.2420   51.2696   24.0413 C.ar      1 UNK         0.0000 
     32 N32        -2.7005   51.7061   26.3179 N.pl3     1 UNK         0.0000 
     33 C33        -2.4433   50.6852   27.3334 C.3       1 UNK         0.0000 
     34 C34        -4.0642   52.2355   26.2724 C.3       1 UNK         0.0000 
     35 C35        -0.3211   50.2496   20.2300 C.2       1 UNK         0.0000 
     36 O36        -1.4498   50.7173   20.3743 O.2       1 UNK         0.0000 
     37 C37        -0.1150   48.9936   19.3691 C.3       1 UNK         0.0000 
     38 C38         0.8147   50.2667   17.3602 C.3       1 UNK         0.0000 
     39 H39         2.1242   47.7773   17.0180 H         1 UNK         0.0000 
     40 H40         1.4399   46.9592   18.4147 H         1 UNK         0.0000 
     41 H41         0.3944   47.4865   17.1007 H         1 UNK         0.0000 
     42 H42         3.1044   49.7167   18.4857 H         1 UNK         0.0000 
     43 H43         2.7122   48.5612   19.7694 H         1 UNK         0.0000 
     44 H44         4.1345   51.0426   20.1281 H         1 UNK         0.0000 
     45 H45         5.1046   55.9697   24.4859 H         1 UNK         0.0000 
     46 H46         6.7075   55.7995   25.0435 H         1 UNK         0.0000 
     47 H47         3.1781   54.6639   25.6124 H         1 UNK         0.0000 
     48 H48         2.4353   53.5600   27.6488 H         1 UNK         0.0000 
     49 H49         4.0802   52.8509   29.3619 H         1 UNK         0.0000 
     50 H50         6.5021   53.3004   28.9909 H         1 UNK         0.0000 
     51 H51        -1.8807   52.8972   21.9664 H         1 UNK         0.0000 
     52 H52        -3.3032   52.7923   23.9053 H         1 UNK         0.0000 
     53 H53        -0.1893   50.6957   26.0384 H         1 UNK         0.0000 
     54 H54         1.2394   50.8564   24.0790 H         1 UNK         0.0000 
     55 H55        -2.4972   49.6957   26.8784 H         1 UNK         0.0000 
     56 H56        -1.4493   50.7940   27.7688 H         1 UNK         0.0000 
     57 H57        -3.1682   50.7125   28.1476 H         1 UNK         0.0000 
     58 H58        -4.0751   53.2621   25.9022 H         1 UNK         0.0000 
     59 H59        -4.6816   51.6329   25.6034 H         1 UNK         0.0000 
     60 H60        -4.5330   52.2349   27.2574 H         1 UNK         0.0000 
     61 H61         0.0777   48.1807   20.0681 H         1 UNK         0.0000 
     62 H62        -1.0481   48.7505   18.8621 H         1 UNK         0.0000 
     63 H63         1.6135   50.3108   16.6183 H         1 UNK         0.0000 
     64 H64        -0.1189   50.1069   16.8202 H         1 UNK         0.0000 
     65 H65         0.7603   51.2517   17.8231 H         1 UNK         0.0000 
@<TRIPOS>BOND
     1    1    2 1    
     2    1   39 1    
     3    1   40 1    
     4    1   41 1    
     5    2   37 1    
     6    2    3 1    
     7    2   38 1    
     8    3    4 1    
     9    3   42 1    
    10    3   43 1    
    11    4   16 1    
    12    4    5 2    
    13    5    6 1    
    14    5   35 1    
    15    6    7 1    
    16    6    8 1    
    17    6   26 1    
    18    8   15 ar   
    19    8    9 ar   
    20    9   10 2    
    21    9   11 ar   
    22   11   12 1    
    23   11   13 ar   
    24   13   14 ar   
    25   13   17 1    
    26   14   15 ar   
    27   15   16 1    
    28   16   44 1    
    29   17   18 1    
    30   18   19 1    
    31   18   45 1    
    32   18   46 1    
    33   19   24 ar   
    34   19   20 ar   
    35   20   21 ar   
    36   20   47 1    
    37   21   22 ar   
    38   21   48 1    
    39   22   23 ar   
    40   22   49 1    
    41   23   24 ar   
    42   23   50 1    
    43   24   25 1    
    44   26   31 ar   
    45   26   27 ar   
    46   27   28 ar   
    47   27   51 1    
    48   28   29 ar   
    49   28   52 1    
    50   29   30 ar   
    51   29   32 1    
    52   30   31 ar   
    53   30   53 1    
    54   31   54 1    
    55   32   33 1    
    56   32   34 1    
    57   33   55 1    
    58   33   56 1    
    59   33   57 1    
    60   34   58 1    
    61   34   59 1    
    62   34   60 1    
    63   35   36 2    
    64   35   37 1    
    65   37   61 1    
    66   37   62 1    
    67   38   63 1    
    68   38   64 1    
    69   38   65 1    
@<TRIPOS>SUBSTRUCTURE
     1 UNK         1 GROUP             0       ****    0 ROOT    
