@<TRIPOS>MOLECULE
ZINC07298559_1420
50   52    1
SMALL
USER_CHARGES


@<TRIPOS>ATOM
      1 C1          4.9539   54.2098   28.5047 C.3       1 UNK         0.0000 
      2 C2          5.1868   54.2962   27.0067 C.ar      1 UNK         0.0000 
      3 C3          6.4872   54.3939   26.5150 C.ar      1 UNK         0.0000 
      4 C4          6.7033   54.4948   25.1430 C.ar      1 UNK         0.0000 
      5 C5          5.6276   54.4975   24.2454 C.ar      1 UNK         0.0000 
      6 C6          4.3257   54.4057   24.7528 C.ar      1 UNK         0.0000 
      7 C7          4.1053   54.3052   26.1253 C.ar      1 UNK         0.0000 
      8 C8          5.9059   54.6683   22.7755 C.ar      1 UNK         0.0000 
      9 N9          6.9673   55.2965   22.3234 N.2       1 UNK         0.0000 
     10 N10         6.9100   55.3030   20.9382 N.2       1 UNK         0.0000 
     11 C11         5.8260   54.6569   20.5891 C.ar      1 UNK         0.0000 
     12 N12         5.1282   54.2520   21.7077 N.pl3     1 UNK         0.0000 
     13 N13         3.9308   53.5528   21.7196 N.3       1 UNK         0.0000 
     14 S14         5.3642   54.2700   18.9249 S.3       1 UNK         0.0000 
     15 C15         5.8673   55.7569   17.9726 C.3       1 UNK         0.0000 
     16 H16         5.4678   55.6197   16.9686 H         1 UNK         0.0000 
     17 C17         5.1856   57.0431   18.4807 C.3       1 UNK         0.0000 
     18 C18         7.4058   55.9074   17.8150 C.2       1 UNK         0.0000 
     19 O19         7.9588   56.8329   18.4186 O.2       1 UNK         0.0000 
     20 N20         8.1160   55.0384   17.0378 N.am      1 UNK         0.0000 
     21 C21         7.5099   53.8561   16.3938 C.3       1 UNK         0.0000 
     22 C22         9.5949   55.1667   16.9665 C.3       1 UNK         0.0000 
     23 H23         9.9420   56.0937   17.4303 H         1 UNK         0.0000 
     24 C24        10.3076   54.0209   17.7235 C.3       1 UNK         0.0000 
     25 C25        11.8170   54.1013   17.4605 C.3       1 UNK         0.0000 
     26 S26        11.9639   54.6737   15.6862 S.o2      1 UNK         0.0000 
     27 O27        12.2213   53.5334   14.8016 O.2       1 UNK         0.0000 
     28 O28        12.8213   55.8628   15.6429 O.2       1 UNK         0.0000 
     29 C29        10.1644   55.1734   15.5304 C.3       1 UNK         0.0000 
     30 H30         5.6764   54.8252   29.0433 H         1 UNK         0.0000 
     31 H31         3.9658   54.5821   28.7736 H         1 UNK         0.0000 
     32 H32         5.0532   53.1808   28.8485 H         1 UNK         0.0000 
     33 H33         7.3284   54.3894   27.1936 H         1 UNK         0.0000 
     34 H34         7.7152   54.5651   24.7748 H         1 UNK         0.0000 
     35 H35         3.4732   54.4351   24.0933 H         1 UNK         0.0000 
     36 H36         3.0945   54.2410   26.5009 H         1 UNK         0.0000 
     37 H37         3.1830   54.0796   21.2870 H         1 UNK         0.0000 
     38 H38         4.0379   52.6362   21.3110 H         1 UNK         0.0000 
     39 H39         5.4186   57.9005   17.8461 H         1 UNK         0.0000 
     40 H40         4.1020   56.9254   18.4809 H         1 UNK         0.0000 
     41 H41         5.5040   57.2961   19.4930 H         1 UNK         0.0000 
     42 H42         6.4218   53.8501   16.3985 H         1 UNK         0.0000 
     43 H43         7.7945   53.7816   15.3449 H         1 UNK         0.0000 
     44 H44         7.8261   52.9398   16.8947 H         1 UNK         0.0000 
     45 H45         9.9332   53.0442   17.4156 H         1 UNK         0.0000 
     46 H46        10.0854   54.0971   18.7894 H         1 UNK         0.0000 
     47 H47        12.4070   53.2012   17.6249 H         1 UNK         0.0000 
     48 H48        12.2304   54.8965   18.0817 H         1 UNK         0.0000 
     49 H49         9.9886   56.0330   14.8855 H         1 UNK         0.0000 
     50 H50         9.7506   54.3214   14.9982 H         1 UNK         0.0000 
@<TRIPOS>BOND
     1    1    2 1    
     2    1   30 1    
     3    1   31 1    
     4    1   32 1    
     5    2    7 ar   
     6    2    3 ar   
     7    3    4 ar   
     8    3   33 1    
     9    4    5 ar   
    10    4   34 1    
    11    5    6 ar   
    12    5    8 1    
    13    6    7 ar   
    14    6   35 1    
    15    7   36 1    
    16    8   12 ar   
    17    8    9 ar   
    18    9   10 ar   
    19   10   11 ar   
    20   11   12 ar   
    21   11   14 1    
    22   12   13 1    
    23   13   37 1    
    24   13   38 1    
    25   14   15 1    
    26   15   16 1    
    27   15   17 1    
    28   15   18 1    
    29   17   39 1    
    30   17   40 1    
    31   17   41 1    
    32   18   19 2    
    33   18   20 am   BACKBONE|DICT|INTERRES
    34   20   21 1    
    35   20   22 1    
    36   21   42 1    
    37   21   43 1    
    38   21   44 1    
    39   22   23 1    
    40   22   29 1    
    41   22   24 1    
    42   24   25 1    
    43   24   45 1    
    44   24   46 1    
    45   25   26 1    
    46   25   47 1    
    47   25   48 1    
    48   26   27 2    
    49   26   28 2    
    50   26   29 1    
    51   29   49 1    
    52   29   50 1    
@<TRIPOS>SUBSTRUCTURE
     1 UNK         1 GROUP             0       ****    0 ROOT    
