ZINC40062332_3279
                    3D
 Schrodinger Suite 2024-2.
 52 55  0  0  1  0            999 V2000
    3.1285   53.8141   24.1479 C   0  0  0  0  0  0
    4.5641   54.0968   24.5524 C   0  0  0  0  0  0
    5.1715   54.1008   25.8165 C   0  0  0  0  0  0
    6.4610   54.5684   25.5455 C   0  0  0  0  0  0
    6.7044   54.7357   24.2748 N   0  0  0  0  0  0
    5.5744   54.3906   23.6467 N   0  0  0  0  0  0
    5.5801   54.3297   22.2268 C   0  0  0  0  0  0
    4.9661   53.2616   21.5580 C   0  0  0  0  0  0
    5.0023   53.1834   20.1665 C   0  0  0  0  0  0
    5.6552   54.1669   19.4270 C   0  0  0  0  0  0
    6.2991   55.2287   20.0746 C   0  0  0  0  0  0
    6.2645   55.2966   21.4732 C   0  0  0  0  0  0
    7.0484   56.2967   19.2825 C   0  0  0  0  0  0
    8.3575   56.1315   19.4690 F   0  0  0  0  0  0
    6.7045   57.5117   19.7124 F   0  0  0  0  0  0
    6.7973   56.2303   17.9743 F   0  0  0  0  0  0
    4.6170   53.6552   27.1683 C   0  0  1  0  0  0
    3.9947   52.7723   27.0210 H   0  0  0  0  0  0
    5.7423   53.2959   28.1611 C   0  0  0  0  0  0
    3.7512   54.7269   27.6970 N   0  0  0  0  0  0
    2.6251   54.4190   29.0238 S   0  0  0  0  0  0
    3.3323   53.6962   30.0842 O   0  0  0  0  0  0
    1.9602   55.6912   29.3209 O   0  0  0  0  0  0
    1.3654   53.3190   28.3970 C   0  0  0  0  0  0
    0.6223   52.5078   29.2660 C   0  0  0  0  0  0
   -0.4003   51.6969   28.7627 C   0  0  0  0  0  0
   -0.6700   51.7085   27.3942 C   0  0  0  0  0  0
    0.0878   52.4884   26.5234 C   0  0  0  0  0  0
    1.1045   53.2937   27.0284 C   0  0  0  0  0  0
   -0.2468   52.4953   25.1710 N   0  0  0  0  0  0
   -1.4143   52.0785   24.6471 C   0  0  0  0  0  0
   -1.6918   52.1995   23.4560 O   0  0  0  0  0  0
   -2.3563   51.4478   25.7170 C   0  0  0  0  0  0
   -1.6745   50.9168   26.8808 O   0  0  0  0  0  0
    2.7716   52.8728   24.5645 H   0  0  0  0  0  0
    2.4768   54.6087   24.5060 H   0  0  0  0  0  0
    2.9489   53.7789   23.0761 H   0  0  0  0  0  0
    7.2312   54.7216   26.2849 H   0  0  0  0  0  0
    4.4777   52.4695   22.1053 H   0  0  0  0  0  0
    4.5341   52.3526   19.6557 H   0  0  0  0  0  0
    5.6742   54.0806   18.3496 H   0  0  0  0  0  0
    6.7749   56.1050   21.9767 H   0  0  0  0  0  0
    6.4601   52.6114   27.7077 H   0  0  0  0  0  0
    6.2909   54.1776   28.4961 H   0  0  0  0  0  0
    5.3574   52.7890   29.0431 H   0  0  0  0  0  0
    4.2087   55.6386   27.7611 H   0  0  0  0  0  0
    0.8211   52.5174   30.3288 H   0  0  0  0  0  0
   -0.9835   51.0701   29.4232 H   0  0  0  0  0  0
    1.6545   53.9430   26.3716 H   0  0  0  0  0  0
    0.3569   52.9541   24.5069 H   0  0  0  0  0  0
   -2.9632   50.6774   25.2423 H   0  0  0  0  0  0
   -3.0160   52.2539   26.0408 H   0  0  0  0  0  0
  1  2  1  0  0  0
  1 35  1  0  0  0
  1 36  1  0  0  0
  1 37  1  0  0  0
  2  6  1  0  0  0
  2  3  2  0  0  0
  3  4  1  0  0  0
  3 17  1  0  0  0
  4  5  2  0  0  0
  4 38  1  0  0  0
  5  6  1  0  0  0
  6  7  1  0  0  0
  7 12  2  0  0  0
  7  8  1  0  0  0
  8  9  2  0  0  0
  8 39  1  0  0  0
  9 10  1  0  0  0
  9 40  1  0  0  0
 10 11  2  0  0  0
 10 41  1  0  0  0
 11 12  1  0  0  0
 11 13  1  0  0  0
 12 42  1  0  0  0
 13 14  1  0  0  0
 13 15  1  0  0  0
 13 16  1  0  0  0
 17 18  1  0  0  0
 17 19  1  0  0  0
 17 20  1  0  0  0
 19 43  1  0  0  0
 19 44  1  0  0  0
 19 45  1  0  0  0
 20 21  1  0  0  0
 20 46  1  0  0  0
 21 22  2  0  0  0
 21 23  2  0  0  0
 21 24  1  0  0  0
 24 29  2  0  0  0
 24 25  1  0  0  0
 25 26  2  0  0  0
 25 47  1  0  0  0
 26 27  1  0  0  0
 26 48  1  0  0  0
 27 34  1  0  0  0
 27 28  2  0  0  0
 28 29  1  0  0  0
 28 30  1  0  0  0
 29 49  1  0  0  0
 30 31  1  0  0  0
 30 50  1  0  0  0
 31 32  2  0  0  0
 31 33  1  0  0  0
 33 34  1  0  0  0
 33 51  1  0  0  0
 33 52  1  0  0  0
M  END
> <i_i_glide_confnum>
62

> <i_i_glide_lignum>
3280

> <i_i_glide_posenum>
127

> <i_i_glide_rotatable_bonds>
6

> <i_m_Source_File_Index>
5082

> <b_m_subgroup_collapsed>
0

> <r_i_docking_score>
-5.30706

> <r_i_glide_ecoul>
-2.24473

> <r_i_glide_eff_state_penalty>
0

> <r_i_glide_einternal>
7.18744

> <r_i_glide_emodel>
-60.3535

> <r_i_glide_energy>
-49.6282

> <r_i_glide_erotb>
0.351394

> <r_i_glide_esite>
-0.093592

> <r_i_glide_evdw>
-47.3834

> <r_i_glide_gscore>
-5.30706

> <r_i_glide_hbond>
0

> <r_i_glide_ligand_efficiency>
-0.16082

> <r_i_glide_ligand_efficiency_ln>
-1.18026

> <r_i_glide_ligand_efficiency_sa>
-0.515836

> <r_i_glide_lipo>
-2.6769

> <r_i_glide_metal>
0

> <r_i_glide_rewards>
-0.18208

> <s_i_glide_gridfile>
wee1_glide-grid

> <s_m_Source_File>
wee1_decoys_glide_SP.sdf

> <s_m_Source_Path>
/Users/zhangxujun/Desktop

> <s_m_entry_id>
5357

> <s_m_entry_name>
wee1_decoys_glide_SP.5082

> <s_m_subgroup_title>
wee1_decoys_glide_SP

> <s_m_subgroupid>
wee1_decoys_glide_SP


$$$$
