@<TRIPOS>MOLECULE
ZINC23483298_4831
57   59    1
SMALL
USER_CHARGES


@<TRIPOS>ATOM
      1 C1          6.5250   54.2096   28.3161 C.3       1 UNK         0.0000 
      2 C2          5.3880   53.5567   27.5194 C.3       1 UNK         0.0000 
      3 H3          5.6088   52.4964   27.5267 H         1 UNK         0.0000 
      4 C4          4.0268   53.7331   28.2181 C.ar      1 UNK         0.0000 
      5 C5          3.1100   54.6898   27.7624 C.ar      1 UNK         0.0000 
      6 C6          1.9002   54.8986   28.4272 C.ar      1 UNK         0.0000 
      7 C7          1.5715   54.1268   29.5386 C.ar      1 UNK         0.0000 
      8 C8          2.4461   53.1367   29.9738 C.ar      1 UNK         0.0000 
      9 C9          3.6673   52.9408   29.3271 C.ar      1 UNK         0.0000 
     10 Cl10        4.6971   51.6985   29.9370 Cl        1 UNK         0.0000 
     11 Cl11        0.0930   54.3994   30.3849 Cl        1 UNK         0.0000 
     12 N12         5.4091   53.8343   26.0757 N.am      1 UNK         0.0000 
     13 C13         6.0577   54.7818   25.3675 C.2       1 UNK         0.0000 
     14 O14         6.7044   55.6967   25.8692 O.2       1 UNK         0.0000 
     15 C15         6.0128   54.6777   23.8416 C.3       1 UNK         0.0000 
     16 S16         4.6092   53.7102   23.1895 S.3       1 UNK         0.0000 
     17 C17         4.7022   54.0442   21.4646 C.ar      1 UNK         0.0000 
     18 N18         5.5243   54.9002   20.9120 N.2       1 UNK         0.0000 
     19 N19         5.2564   54.9191   19.5535 N.2       1 UNK         0.0000 
     20 C20         4.3045   54.0449   19.3293 C.ar      1 UNK         0.0000 
     21 N21         3.9193   53.4270   20.5067 N.pl3     1 UNK         0.0000 
     22 C22         2.9676   52.3984   20.7010 C.ar      1 UNK         0.0000 
     23 C23         1.9249   52.5529   21.6208 C.ar      1 UNK         0.0000 
     24 C24         1.0319   51.5057   21.8381 C.ar      1 UNK         0.0000 
     25 C25         1.1806   50.3130   21.1333 C.ar      1 UNK         0.0000 
     26 C26         2.2116   50.1583   20.2097 C.ar      1 UNK         0.0000 
     27 C27         3.1043   51.2032   19.9943 C.ar      1 UNK         0.0000 
     28 F28         0.3153   49.2959   21.3460 F         1 UNK         0.0000 
     29 C29         3.6645   53.8012   17.9648 C.3       1 UNK         0.0000 
     30 H30         2.7482   53.2173   18.0741 H         1 UNK         0.0000 
     31 C31         3.3156   55.1127   17.2264 C.3       1 UNK         0.0000 
     32 N32         4.5916   52.8967   17.1045 N.4       1 UNK         0.0000 
     33 C33         3.8630   52.2647   15.8961 C.3       1 UNK         0.0000 
     34 C34         5.9456   53.5067   16.6727 C.3       1 UNK         0.0000 
     35 H35         6.6581   53.7415   29.2815 H         1 UNK         0.0000 
     36 H36         7.4865   54.1278   27.8085 H         1 UNK         0.0000 
     37 H37         6.3044   55.2654   28.4719 H         1 UNK         0.0000 
     38 H38         3.3491   55.2965   26.9025 H         1 UNK         0.0000 
     39 H39         1.2182   55.6619   28.0817 H         1 UNK         0.0000 
     40 H40         2.1782   52.5255   30.8235 H         1 UNK         0.0000 
     41 H41         4.8869   53.1659   25.5279 H         1 UNK         0.0000 
     42 H42         6.0084   55.6882   23.4407 H         1 UNK         0.0000 
     43 H43         6.9427   54.2166   23.5069 H         1 UNK         0.0000 
     44 H44         1.8054   53.4793   22.1653 H         1 UNK         0.0000 
     45 H45         0.2291   51.6127   22.5521 H         1 UNK         0.0000 
     46 H46         2.3246   49.2326   19.6651 H         1 UNK         0.0000 
     47 H47         3.9042   51.0781   19.2830 H         1 UNK         0.0000 
     48 H48         2.6187   55.7045   17.8214 H         1 UNK         0.0000 
     49 H49         4.1923   55.7373   17.0529 H         1 UNK         0.0000 
     50 H50         2.8343   54.9335   16.2662 H         1 UNK         0.0000 
     51 H51         3.5929   53.0531   15.1916 H         1 UNK         0.0000 
     52 H52         4.5472   51.5469   15.4400 H         1 UNK         0.0000 
     53 H53         2.9848   51.7409   16.2776 H         1 UNK         0.0000 
     54 H54         5.7503   54.3507   16.0102 H         1 UNK         0.0000 
     55 H55         6.4897   53.8113   17.5654 H         1 UNK         0.0000 
     56 H56         6.5017   52.7238   16.1551 H         1 UNK         0.0000 
     57 H57         4.8250   52.0835   17.6817 H         1 UNK         0.0000 
@<TRIPOS>BOND
     1    1    2 1    
     2    1   35 1    
     3    1   36 1    
     4    1   37 1    
     5    2    3 1    
     6    2    4 1    
     7    2   12 1    
     8    4    9 ar   
     9    4    5 ar   
    10    5    6 ar   
    11    5   38 1    
    12    6    7 ar   
    13    6   39 1    
    14    7    8 ar   
    15    7   11 1    
    16    8    9 ar   
    17    8   40 1    
    18    9   10 1    
    19   12   13 am   BACKBONE|DICT|INTERRES
    20   12   41 1    
    21   13   14 2    
    22   13   15 1    
    23   15   16 1    
    24   15   42 1    
    25   15   43 1    
    26   16   17 1    
    27   17   21 ar   
    28   17   18 ar   
    29   18   19 ar   
    30   19   20 ar   
    31   20   21 ar   
    32   20   29 1    
    33   21   22 1    
    34   22   27 ar   
    35   22   23 ar   
    36   23   24 ar   
    37   23   44 1    
    38   24   25 ar   
    39   24   45 1    
    40   25   26 ar   
    41   25   28 1    
    42   26   27 ar   
    43   26   46 1    
    44   27   47 1    
    45   29   30 1    
    46   29   31 1    
    47   29   32 1    
    48   31   48 1    
    49   31   49 1    
    50   31   50 1    
    51   32   33 1    
    52   32   34 1    
    53   32   57 1    
    54   33   51 1    
    55   33   52 1    
    56   33   53 1    
    57   34   54 1    
    58   34   55 1    
    59   34   56 1    
@<TRIPOS>SUBSTRUCTURE
     1 UNK         1 GROUP             0       ****    0 ROOT    
