ZINC62051910_1613
                    3D
 Schrodinger Suite 2024-2.
 35 36  0  0  1  0            999 V2000
    5.8580   54.3571   27.3430 C   0  0  0  0  0  0
    4.5634   53.8174   26.7010 C   0  0  2  0  0  0
    4.8582   52.8923   26.2174 H   0  0  0  0  0  0
    4.0329   54.7675   25.6027 C   0  0  0  0  0  0
    3.1150   54.0962   24.5837 C   0  0  0  0  0  0
    3.5559   53.8953   23.2717 C   0  0  0  0  0  0
    2.7145   53.2956   22.3381 C   0  0  0  0  0  0
    1.4346   52.8966   22.7158 C   0  0  0  0  0  0
    0.9884   53.0940   24.0200 C   0  0  0  0  0  0
    1.8283   53.6963   24.9523 C   0  0  0  0  0  0
    0.6140   52.3197   21.8092 F   0  0  0  0  0  0
    3.4668   53.4813   27.6631 N   0  0  0  0  0  0
    3.7675   53.3055   29.3903 S   0  0  0  0  0  0
    4.2479   51.9505   29.6763 O   0  0  0  0  0  0
    4.4616   54.4968   29.8747 O   0  0  0  0  0  0
    2.1150   53.4320   30.0840 C   0  0  0  0  0  0
    1.4629   52.4968   30.8680 C   0  0  0  0  0  0
    0.3030   53.0983   31.2627 N   0  0  0  0  0  0
   -0.3919   52.6771   31.8782 H   0  0  0  0  0  0
    0.1853   54.3424   30.7808 N   0  0  0  0  0  0
    1.2747   54.5523   30.0746 C   0  0  0  0  0  0
    1.5046   55.7583   29.4858 N   0  0  0  0  0  0
    6.6247   54.5279   26.5872 H   0  0  0  0  0  0
    5.6982   55.3028   27.8567 H   0  0  0  0  0  0
    6.2803   53.6475   28.0554 H   0  0  0  0  0  0
    4.8710   55.2117   25.0627 H   0  0  0  0  0  0
    3.5096   55.6112   26.0544 H   0  0  0  0  0  0
    4.5460   54.2052   22.9701 H   0  0  0  0  0  0
    3.0455   53.1472   21.3208 H   0  0  0  0  0  0
   -0.0063   52.7836   24.3039 H   0  0  0  0  0  0
    1.4759   53.8562   25.9604 H   0  0  0  0  0  0
    3.0263   52.6220   27.3260 H   0  0  0  0  0  0
    1.7321   51.5149   31.2165 H   0  0  0  0  0  0
    2.3718   55.9405   29.0011 H   0  0  0  0  0  0
    0.8638   56.5298   29.5898 H   0  0  0  0  0  0
  1  2  1  0  0  0
  1 23  1  0  0  0
  1 24  1  0  0  0
  1 25  1  0  0  0
  2  3  1  0  0  0
  2  4  1  0  0  0
  2 12  1  0  0  0
  4  5  1  0  0  0
  4 26  1  0  0  0
  4 27  1  0  0  0
  5 10  2  0  0  0
  5  6  1  0  0  0
  6  7  2  0  0  0
  6 28  1  0  0  0
  7  8  1  0  0  0
  7 29  1  0  0  0
  8  9  2  0  0  0
  8 11  1  0  0  0
  9 10  1  0  0  0
  9 30  1  0  0  0
 10 31  1  0  0  0
 12 13  1  0  0  0
 12 32  1  0  0  0
 13 14  2  0  0  0
 13 15  2  0  0  0
 13 16  1  0  0  0
 16 21  1  0  0  0
 16 17  2  0  0  0
 17 18  1  0  0  0
 17 33  1  0  0  0
 18 19  1  0  0  0
 18 20  1  0  0  0
 20 21  2  0  0  0
 21 22  1  0  0  0
 22 34  1  0  0  0
 22 35  1  0  0  0
M  END
> <i_i_glide_confnum>
17

> <i_i_glide_lignum>
1614

> <i_i_glide_posenum>
100

> <i_i_glide_rotatable_bonds>
5

> <i_m_Source_File_Index>
4513

> <b_m_subgroup_collapsed>
0

> <r_i_docking_score>
-2.40412

> <r_i_glide_ecoul>
-4.17739

> <r_i_glide_eff_state_penalty>
0

> <r_i_glide_einternal>
6.7732

> <r_i_glide_emodel>
-32.9059

> <r_i_glide_energy>
-39.0126

> <r_i_glide_erotb>
0.824645

> <r_i_glide_esite>
-0.0705943

> <r_i_glide_evdw>
-34.8352

> <r_i_glide_gscore>
-2.40412

> <r_i_glide_hbond>
-0.16

> <r_i_glide_ligand_efficiency>
-0.120206

> <r_i_glide_ligand_efficiency_ln>
-0.601673

> <r_i_glide_ligand_efficiency_sa>
-0.32629

> <r_i_glide_lipo>
-2.15088

> <r_i_glide_metal>
0

> <r_i_glide_rewards>
1.52108

> <s_i_glide_gridfile>
wee1_glide-grid

> <s_m_Source_File>
wee1_decoys_glide_SP.sdf

> <s_m_Source_Path>
/Users/zhangxujun/Desktop

> <s_m_entry_id>
4788

> <s_m_entry_name>
wee1_decoys_glide_SP.4513

> <s_m_subgroup_title>
wee1_decoys_glide_SP

> <s_m_subgroupid>
wee1_decoys_glide_SP


$$$$
