ZINC29778095_2483
                    3D
 Schrodinger Suite 2024-2.
 59 63  0  0  1  0            999 V2000
   -1.7456   51.4531   26.6058 C   0  0  0  0  0  0
   -0.4299   52.0919   26.1980 C   0  0  0  0  0  0
   -0.1811   52.3949   24.8597 C   0  0  0  0  0  0
    1.0423   52.9459   24.4868 C   0  0  0  0  0  0
    2.0364   53.1943   25.4495 C   0  0  0  0  0  0
    1.7657   52.8969   26.7934 C   0  0  0  0  0  0
    0.5421   52.3463   27.1647 C   0  0  0  0  0  0
    3.3138   53.6969   25.0616 N   0  0  0  0  0  0
    4.3696   54.1237   25.8394 C   0  0  0  0  0  0
    5.3721   54.4869   24.9858 C   0  0  0  0  0  0
    4.8988   54.2351   23.6894 C   0  0  0  0  0  0
    3.6588   53.7736   23.7548 N   0  0  0  0  0  0
    5.6493   54.4967   22.4806 C   0  0  0  0  0  0
    6.8273   54.8545   22.5380 O   0  0  0  0  0  0
    4.9407   54.3856   21.3329 N   0  0  0  0  0  0
    5.3557   54.8281   20.0843 C   0  0  0  0  0  0
    6.4187   55.5547   19.8198 N   0  0  0  0  0  0
    6.4428   55.9963   18.5756 C   0  0  0  0  0  0
    5.3682   55.5657   17.7932 C   0  0  0  0  0  0
    4.3054   54.5618   18.7361 S   0  0  0  0  0  0
    7.5425   56.9038   18.1434 C   0  0  0  0  0  0
    8.8655   56.6457   18.5120 C   0  0  0  0  0  0
    9.8811   57.5157   18.1279 C   0  0  0  0  0  0
    9.5818   58.6596   17.3788 C   0  0  0  0  0  0
    8.2566   58.9202   17.0184 C   0  0  0  0  0  0
    7.2426   58.0418   17.3913 C   0  0  0  0  0  0
   10.6681   59.6558   16.9656 C   0  0  0  0  0  0
   11.9122   59.6369   17.7446 N   0  0  0  0  0  0
   12.0339   60.0400   19.0184 C   0  0  0  0  0  0
   11.1043   60.4966   19.6815 O   0  0  0  0  0  0
   13.4192   59.9117   19.6371 C   0  0  0  0  0  0
    6.5659   55.0240   25.7313 C   0  0  0  0  0  0
    6.1909   54.7829   27.2084 C   0  0  0  0  0  0
    4.7326   54.2911   27.2894 C   0  0  0  0  0  0
   -2.2374   50.9702   25.7599 H   0  0  0  0  0  0
   -1.5761   50.6740   27.3511 H   0  0  0  0  0  0
   -2.4180   52.1934   27.0378 H   0  0  0  0  0  0
   -0.9293   52.1930   24.1064 H   0  0  0  0  0  0
    1.2075   53.1585   23.4403 H   0  0  0  0  0  0
    2.4939   53.0570   27.5691 H   0  0  0  0  0  0
    0.3538   52.1043   28.2016 H   0  0  0  0  0  0
    4.0228   53.9700   21.3846 H   0  0  0  0  0  0
    5.1598   55.7838   16.7567 H   0  0  0  0  0  0
    9.1124   55.7720   19.0984 H   0  0  0  0  0  0
   10.8955   57.2956   18.4291 H   0  0  0  0  0  0
    7.9988   59.8085   16.4583 H   0  0  0  0  0  0
    6.2215   58.2659   17.1179 H   0  0  0  0  0  0
   10.2562   60.6674   16.9797 H   0  0  0  0  0  0
   10.9193   59.4488   15.9243 H   0  0  0  0  0  0
   12.7164   59.2296   17.2924 H   0  0  0  0  0  0
   13.8218   58.9097   19.4755 H   0  0  0  0  0  0
   13.3743   60.0973   20.7110 H   0  0  0  0  0  0
   14.1009   60.6387   19.1928 H   0  0  0  0  0  0
    7.4957   54.5162   25.4649 H   0  0  0  0  0  0
    6.7069   56.0890   25.5418 H   0  0  0  0  0  0
    6.3083   55.6960   27.7909 H   0  0  0  0  0  0
    6.8623   54.0433   27.6490 H   0  0  0  0  0  0
    4.0925   55.0111   27.7989 H   0  0  0  0  0  0
    4.6808   53.3566   27.8485 H   0  0  0  0  0  0
  1  2  1  0  0  0
  1 35  1  0  0  0
  1 36  1  0  0  0
  1 37  1  0  0  0
  2  7  2  0  0  0
  2  3  1  0  0  0
  3  4  2  0  0  0
  3 38  1  0  0  0
  4  5  1  0  0  0
  4 39  1  0  0  0
  5  6  2  0  0  0
  5  8  1  0  0  0
  6  7  1  0  0  0
  6 40  1  0  0  0
  7 41  1  0  0  0
  8 12  1  0  0  0
  8  9  1  0  0  0
  9 34  1  0  0  0
  9 10  2  0  0  0
 10 11  1  0  0  0
 10 32  1  0  0  0
 11 12  2  0  0  0
 11 13  1  0  0  0
 13 14  2  0  0  0
 13 15  1  0  0  0
 15 16  1  0  0  0
 15 42  1  0  0  0
 16 20  1  0  0  0
 16 17  2  0  0  0
 17 18  1  0  0  0
 18 19  2  0  0  0
 18 21  1  0  0  0
 19 20  1  0  0  0
 19 43  1  0  0  0
 21 26  2  0  0  0
 21 22  1  0  0  0
 22 23  2  0  0  0
 22 44  1  0  0  0
 23 24  1  0  0  0
 23 45  1  0  0  0
 24 25  2  0  0  0
 24 27  1  0  0  0
 25 26  1  0  0  0
 25 46  1  0  0  0
 26 47  1  0  0  0
 27 28  1  0  0  0
 27 48  1  0  0  0
 27 49  1  0  0  0
 28 29  1  0  0  0
 28 50  1  0  0  0
 29 30  2  0  0  0
 29 31  1  0  0  0
 31 51  1  0  0  0
 31 52  1  0  0  0
 31 53  1  0  0  0
 32 33  1  0  0  0
 32 54  1  0  0  0
 32 55  1  0  0  0
 33 34  1  0  0  0
 33 56  1  0  0  0
 33 57  1  0  0  0
 34 58  1  0  0  0
 34 59  1  0  0  0
M  END
> <i_i_glide_confnum>
93

> <i_i_glide_lignum>
2484

> <i_i_glide_posenum>
396

> <i_i_glide_rotatable_bonds>
8

> <i_m_Source_File_Index>
5545

> <b_m_subgroup_collapsed>
0

> <r_i_docking_score>
-5.51464

> <r_i_glide_ecoul>
-4.10713

> <r_i_glide_eff_state_penalty>
0

> <r_i_glide_einternal>
7.83387

> <r_i_glide_emodel>
-60.8364

> <r_i_glide_energy>
-47.5003

> <r_i_glide_erotb>
0.636268

> <r_i_glide_esite>
-0.030129

> <r_i_glide_evdw>
-43.3931

> <r_i_glide_gscore>
-5.51464

> <r_i_glide_hbond>
-0.0817358

> <r_i_glide_ligand_efficiency>
-0.162195

> <r_i_glide_ligand_efficiency_ln>
-1.21834

> <r_i_glide_ligand_efficiency_sa>
-0.52545

> <r_i_glide_lipo>
-2.43886

> <r_i_glide_metal>
0

> <r_i_glide_rewards>
-0.814461

> <s_i_glide_gridfile>
wee1_glide-grid

> <s_m_Source_File>
wee1_decoys_glide_SP.sdf

> <s_m_Source_Path>
/Users/zhangxujun/Desktop

> <s_m_entry_id>
5820

> <s_m_entry_name>
wee1_decoys_glide_SP.5545

> <s_m_subgroup_title>
wee1_decoys_glide_SP

> <s_m_subgroupid>
wee1_decoys_glide_SP


$$$$
