@<TRIPOS>MOLECULE
ZINC20218672_6170
37   40    1
SMALL
USER_CHARGES


@<TRIPOS>ATOM
      1 C1          1.1045   56.0291   30.8206 C.ar      1 UNK         0.0000 
      2 C2          1.6433   56.5168   29.6482 C.ar      1 UNK         0.0000 
      3 C3          1.8290   55.6711   28.5679 C.ar      1 UNK         0.0000 
      4 C4          1.4384   54.3277   28.6087 C.ar      1 UNK         0.0000 
      5 C5          0.8483   53.8374   29.7973 C.ar      1 UNK         0.0000 
      6 C6          0.6885   54.7027   30.8815 C.ar      1 UNK         0.0000 
      7 C7          0.4310   52.3782   29.9339 C.3       1 UNK         0.0000 
      8 C8          0.2371   51.6961   28.5747 C.3       1 UNK         0.0000 
      9 N9          1.4949   51.9607   27.7316 N.4       1 UNK         0.0000 
     10 C10         1.6101   53.4443   27.3576 C.3       1 UNK         0.0000 
     11 H11         0.7071   53.5832   26.7646 H         1 UNK         0.0000 
     12 C12         2.8777   53.6400   26.5063 C.2       1 UNK         0.0000 
     13 C13         2.8758   53.7819   25.1598 C.2       1 UNK         0.0000 
     14 C14         4.1011   54.0460   24.3804 C.ar      1 UNK         0.0000 
     15 C15         4.1699   54.0967   22.9786 C.ar      1 UNK         0.0000 
     16 C16         5.3922   54.3226   22.3442 C.ar      1 UNK         0.0000 
     17 C17         6.5496   54.5060   23.1008 C.ar      1 UNK         0.0000 
     18 C18         6.4937   54.4486   24.4931 C.ar      1 UNK         0.0000 
     19 C19         5.2766   54.2005   25.1279 C.ar      1 UNK         0.0000 
     20 O20         5.2902   54.0985   26.5120 O.3       1 UNK         0.0000 
     21 C21         4.1740   53.7006   27.2346 C.2       1 UNK         0.0000 
     22 O22         4.3735   53.4523   28.4229 O.2       1 UNK         0.0000 
     23 O23         1.7813   53.7075   24.4833 O.co2     1 UNK         0.0000 
     24 H24         1.0505   56.6804   31.6817 H         1 UNK         0.0000 
     25 H25         1.9048   57.5597   29.5838 H         1 UNK         0.0000 
     26 H26         2.2932   56.0720   27.6835 H         1 UNK         0.0000 
     27 H27         0.2666   54.3316   31.8052 H         1 UNK         0.0000 
     28 H28        -0.4798   52.2857   30.5301 H         1 UNK         0.0000 
     29 H29         1.2034   51.8514   30.4947 H         1 UNK         0.0000 
     30 H30        -0.6243   52.0771   28.0207 H         1 UNK         0.0000 
     31 H31         0.1310   50.6151   28.6596 H         1 UNK         0.0000 
     32 H32         1.4576   51.4247   26.8768 H         1 UNK         0.0000 
     33 H33         3.2798   53.9614   22.3788 H         1 UNK         0.0000 
     34 H34         5.4376   54.3618   21.2650 H         1 UNK         0.0000 
     35 H35         7.4913   54.6909   22.6068 H         1 UNK         0.0000 
     36 H36         7.3960   54.5787   25.0714 H         1 UNK         0.0000 
     37 H37         2.3331   51.6907   28.2268 H         1 UNK         0.0000 
@<TRIPOS>BOND
     1    1    6 ar   
     2    1    2 ar   
     3    1   24 1    
     4    2    3 ar   
     5    2   25 1    
     6    3    4 ar   
     7    3   26 1    
     8    4   10 1    
     9    4    5 ar   
    10    5    6 ar   
    11    5    7 1    
    12    6   27 1    
    13    7    8 1    
    14    7   28 1    
    15    7   29 1    
    16    8    9 1    
    17    8   30 1    
    18    8   31 1    
    19    9   10 1    
    20    9   32 1    
    21    9   37 1    
    22   10   11 1    
    23   10   12 1    
    24   12   21 1    
    25   12   13 2    
    26   13   14 1    
    27   13   23 1    
    28   14   19 ar   
    29   14   15 ar   
    30   15   16 ar   
    31   15   33 1    
    32   16   17 ar   
    33   16   34 1    
    34   17   18 ar   
    35   17   35 1    
    36   18   19 ar   
    37   18   36 1    
    38   19   20 1    
    39   20   21 1    
    40   21   22 2    
@<TRIPOS>SUBSTRUCTURE
     1 UNK         1 GROUP             0       ****    0 ROOT    
