@<TRIPOS>MOLECULE
ZINC12548088_3212
58   62    1
SMALL
USER_CHARGES


@<TRIPOS>ATOM
      1 C1          6.1383   54.2593   27.6089 C.ar      1 UNK         0.0000 
      2 C2          4.8549   54.0813   28.1094 C.ar      1 UNK         0.0000 
      3 C3          3.7755   53.9941   27.2357 C.ar      1 UNK         0.0000 
      4 C4          3.9640   54.0963   25.8454 C.ar      1 UNK         0.0000 
      5 C5          5.2643   54.3177   25.3326 C.ar      1 UNK         0.0000 
      6 C6          6.3379   54.3764   26.2361 C.ar      1 UNK         0.0000 
      7 C7          5.5873   54.4966   23.8667 C.ar      1 UNK         0.0000 
      8 N8          6.7048   55.1665   23.4179 N.pl3     1 UNK         0.0000 
      9 H9          7.4122   55.5496   24.0277 H         1 UNK         0.0000 
     10 C10         6.6788   55.1832   22.0463 C.ar      1 UNK         0.0000 
     11 C11         7.5331   55.6969   21.0689 C.ar      1 UNK         0.0000 
     12 C12         7.1339   55.5198   19.7412 C.ar      1 UNK         0.0000 
     13 C13         5.9518   54.8607   19.4063 C.ar      1 UNK         0.0000 
     14 C14         5.1087   54.3361   20.3869 C.ar      1 UNK         0.0000 
     15 C15         5.4828   54.4967   21.7268 C.ar      1 UNK         0.0000 
     16 N16         4.8460   54.0768   22.8641 N.2       1 UNK         0.0000 
     17 N17         2.8980   53.9548   24.9304 N.am      1 UNK         0.0000 
     18 C18         1.7258   53.2968   25.0638 C.2       1 UNK         0.0000 
     19 O19         1.3537   52.7717   26.1133 O.2       1 UNK         0.0000 
     20 C20         0.7687   53.3251   23.8355 C.3       1 UNK         0.0000 
     21 C21         1.5214   53.1836   22.4817 C.3       1 UNK         0.0000 
     22 C22         2.2037   51.8138   22.2845 C.3       1 UNK         0.0000 
     23 N23         1.2803   50.6731   22.5542 N.pl3     1 UNK         0.0000 
     24 C24         0.3712   50.7711   23.7357 C.3       1 UNK         0.0000 
     25 C25        -0.2668   52.1695   23.8902 C.3       1 UNK         0.0000 
     26 S26         0.7913   49.6684   21.1769 S.o2      1 UNK         0.0000 
     27 O27        -0.1504   48.6440   21.6446 O.2       1 UNK         0.0000 
     28 O28         2.0013   49.2930   20.4387 O.2       1 UNK         0.0000 
     29 C29        -0.1339   50.7688   20.1077 C.ar      1 UNK         0.0000 
     30 C30         0.5413   51.5392   19.1598 C.ar      1 UNK         0.0000 
     31 C31        -0.1732   52.4009   18.3308 C.ar      1 UNK         0.0000 
     32 C32        -1.5631   52.4769   18.4434 C.ar      1 UNK         0.0000 
     33 C33        -2.2400   51.6973   19.3868 C.ar      1 UNK         0.0000 
     34 C34        -1.5219   50.8496   20.2257 C.ar      1 UNK         0.0000 
     35 C35        -2.3052   53.3769   17.5727 C.1       1 UNK         0.0000 
     36 N36        -2.8958   54.0963   16.8857 N.1       1 UNK         0.0000 
     37 H37         6.9780   54.3098   28.2884 H         1 UNK         0.0000 
     38 H38         4.6986   53.9963   29.1752 H         1 UNK         0.0000 
     39 H39         2.7953   53.8557   27.6636 H         1 UNK         0.0000 
     40 H40         7.3482   54.4968   25.8791 H         1 UNK         0.0000 
     41 H41         8.4650   56.1803   21.3248 H         1 UNK         0.0000 
     42 H42         7.7649   55.8952   18.9495 H         1 UNK         0.0000 
     43 H43         5.6878   54.7447   18.3661 H         1 UNK         0.0000 
     44 H44         4.1954   53.8189   20.1192 H         1 UNK         0.0000 
     45 H45         3.1459   54.2284   23.9894 H         1 UNK         0.0000 
     46 H46         0.2781   54.2996   23.8920 H         1 UNK         0.0000 
     47 H47         2.1691   54.0360   22.2800 H         1 UNK         0.0000 
     48 H48         0.7897   53.2970   21.6832 H         1 UNK         0.0000 
     49 H49         3.1020   51.6974   22.8816 H         1 UNK         0.0000 
     50 H50         2.5561   51.7352   21.2554 H         1 UNK         0.0000 
     51 H51        -0.4206   50.0283   23.6382 H         1 UNK         0.0000 
     52 H52         0.9324   50.4696   24.6196 H         1 UNK         0.0000 
     53 H53        -0.9962   52.3262   23.0931 H         1 UNK         0.0000 
     54 H54        -0.9013   52.2544   24.7729 H         1 UNK         0.0000 
     55 H55         1.6157   51.4737   19.0582 H         1 UNK         0.0000 
     56 H56         0.3654   52.9972   17.6041 H         1 UNK         0.0000 
     57 H57        -3.3175   51.7343   19.4755 H         1 UNK         0.0000 
     58 H58        -2.0453   50.2465   20.9535 H         1 UNK         0.0000 
@<TRIPOS>BOND
     1    1    6 ar   
     2    1    2 ar   
     3    1   37 1    
     4    2    3 ar   
     5    2   38 1    
     6    3    4 ar   
     7    3   39 1    
     8    4    5 ar   
     9    4   17 1    
    10    5    6 ar   
    11    5    7 1    
    12    6   40 1    
    13    7   16 ar   
    14    7    8 ar   
    15    8    9 1    
    16    8   10 ar   
    17   10   15 ar   
    18   10   11 ar   
    19   11   12 ar   
    20   11   41 1    
    21   12   13 ar   
    22   12   42 1    
    23   13   14 ar   
    24   13   43 1    
    25   14   15 ar   
    26   14   44 1    
    27   15   16 ar   
    28   17   18 am   BACKBONE|DICT|INTERRES
    29   17   45 1    
    30   18   19 2    
    31   18   20 1    
    32   20   25 1    
    33   20   21 1    
    34   20   46 1    
    35   21   22 1    
    36   21   47 1    
    37   21   48 1    
    38   22   23 1    
    39   22   49 1    
    40   22   50 1    
    41   23   24 1    
    42   23   26 1    
    43   24   25 1    
    44   24   51 1    
    45   24   52 1    
    46   25   53 1    
    47   25   54 1    
    48   26   27 2    
    49   26   28 2    
    50   26   29 1    
    51   29   34 ar   
    52   29   30 ar   
    53   30   31 ar   
    54   30   55 1    
    55   31   32 ar   
    56   31   56 1    
    57   32   33 ar   
    58   32   35 1    
    59   33   34 ar   
    60   33   57 1    
    61   34   58 1    
    62   35   36 3    
@<TRIPOS>SUBSTRUCTURE
     1 UNK         1 GROUP             0       ****    0 ROOT    
