@<TRIPOS>MOLECULE
ZINC09396240_866
65   68    1
SMALL
USER_CHARGES


@<TRIPOS>ATOM
      1 C1          1.3796   53.2330   27.9679 C.3       1 UNK         0.0000 
      2 C2          2.5784   53.6797   27.1503 C.ar      1 UNK         0.0000 
      3 C3          3.7612   54.0540   27.7871 C.ar      1 UNK         0.0000 
      4 C4          4.8618   54.4542   27.0337 C.ar      1 UNK         0.0000 
      5 C5          4.7944   54.4762   25.6329 C.ar      1 UNK         0.0000 
      6 C6          3.5988   54.0969   25.0021 C.ar      1 UNK         0.0000 
      7 C7          2.5011   53.6965   25.7583 C.ar      1 UNK         0.0000 
      8 C8          5.9954   54.9268   24.8344 C.2       1 UNK         0.0000 
      9 O9          6.8186   55.6967   25.3407 O.2       1 UNK         0.0000 
     10 N10         6.1106   54.4098   23.5920 N.am      1 UNK         0.0000 
     11 N11         7.1044   54.9389   22.7715 N.am      1 UNK         0.0000 
     12 C12         6.7865   55.2971   21.5119 C.2       1 UNK         0.0000 
     13 O13         5.6363   55.2856   21.0696 O.2       1 UNK         0.0000 
     14 C14         7.9715   55.7281   20.6292 C.3       1 UNK         0.0000 
     15 S15         7.5015   56.4389   19.0117 S.3       1 UNK         0.0000 
     16 C16         7.9068   55.0519   17.9915 C.ar      1 UNK         0.0000 
     17 N17         7.1687   53.9753   17.9186 N.2       1 UNK         0.0000 
     18 N18         7.8062   53.0965   17.0552 N.2       1 UNK         0.0000 
     19 C19         8.9006   53.6766   16.6119 C.ar      1 UNK         0.0000 
     20 N20         9.0269   54.9343   17.1851 N.pl3     1 UNK         0.0000 
     21 C21        10.0364   55.8944   16.9845 C.ar      1 UNK         0.0000 
     22 C22         9.7013   57.1563   16.4821 C.ar      1 UNK         0.0000 
     23 C23        10.6995   58.1050   16.2812 C.ar      1 UNK         0.0000 
     24 C24        12.0234   57.7900   16.5765 C.ar      1 UNK         0.0000 
     25 C25        12.3607   56.5317   17.0727 C.ar      1 UNK         0.0000 
     26 C26        11.3657   55.5806   17.2816 C.ar      1 UNK         0.0000 
     27 F27        12.9885   58.7178   16.3845 F         1 UNK         0.0000 
     28 C28         9.8860   53.0236   15.6200 C.3       1 UNK         0.0000 
     29 H29        10.7445   52.6588   16.1881 H         1 UNK         0.0000 
     30 C30        10.3811   53.9364   14.4688 C.3       1 UNK         0.0000 
     31 C31        10.2883   50.6494   14.6502 C.3       1 UNK         0.0000 
     32 C32         9.5333   49.3372   14.3748 C.3       1 UNK         0.0000 
     33 C33         8.4343   49.5174   13.3099 C.3       1 UNK         0.0000 
     34 C34         7.4890   50.7053   13.5770 C.3       1 UNK         0.0000 
     35 C35         8.2457   51.9990   13.8971 C.3       1 UNK         0.0000 
     36 H36         1.6894   52.7762   28.9094 H         1 UNK         0.0000 
     37 H37         0.7248   54.0804   28.1806 H         1 UNK         0.0000 
     38 H38         0.8044   52.4757   27.4310 H         1 UNK         0.0000 
     39 H39         3.8281   54.0393   28.8659 H         1 UNK         0.0000 
     40 H40         5.7683   54.7444   27.5481 H         1 UNK         0.0000 
     41 H41         3.4948   54.1161   23.9266 H         1 UNK         0.0000 
     42 H42         1.5888   53.4033   25.2576 H         1 UNK         0.0000 
     43 H43         5.2936   54.1540   23.0545 H         1 UNK         0.0000 
     44 H44         8.0443   54.6993   23.0648 H         1 UNK         0.0000 
     45 H45         8.5399   56.4851   21.1668 H         1 UNK         0.0000 
     46 H46         8.6575   54.8946   20.4866 H         1 UNK         0.0000 
     47 H47         8.6744   57.4038   16.2482 H         1 UNK         0.0000 
     48 H48        10.4514   59.0830   15.8939 H         1 UNK         0.0000 
     49 H49        13.3891   56.3038   17.3062 H         1 UNK         0.0000 
     50 H50        11.6305   54.6145   17.6873 H         1 UNK         0.0000 
     51 H51        11.0593   54.7122   14.8141 H         1 UNK         0.0000 
     52 H52        10.9381   53.3724   13.7196 H         1 UNK         0.0000 
     53 H53         9.5567   54.4432   13.9640 H         1 UNK         0.0000 
     54 H54        10.8463   51.0114   13.7836 H         1 UNK         0.0000 
     55 H55        10.9629   50.5094   15.4981 H         1 UNK         0.0000 
     56 H56        10.2210   48.5467   14.0558 H         1 UNK         0.0000 
     57 H57         9.1045   48.9765   15.3095 H         1 UNK         0.0000 
     58 H58         7.8522   48.5971   13.2505 H         1 UNK         0.0000 
     59 H59         8.9088   49.6666   12.3366 H         1 UNK         0.0000 
     60 H60         6.7925   50.4967   14.3856 H         1 UNK         0.0000 
     61 H61         6.8599   50.8675   12.6998 H         1 UNK         0.0000 
     62 H62         7.5488   52.7638   14.2443 H         1 UNK         0.0000 
     63 H63         8.8089   52.3623   13.0362 H         1 UNK         0.0000 
     64 N64         9.2419   51.7184   15.0542 N.4       1 UNK         0.0000 
     65 H65         8.7139   51.3451   15.8340 H         1 UNK         0.0000 
@<TRIPOS>BOND
     1    1    2 1    
     2    1   36 1    
     3    1   37 1    
     4    1   38 1    
     5    2    7 ar   
     6    2    3 ar   
     7    3    4 ar   
     8    3   39 1    
     9    4    5 ar   
    10    4   40 1    
    11    5    6 ar   
    12    5    8 1    
    13    6    7 ar   
    14    6   41 1    
    15    7   42 1    
    16    8    9 2    
    17    8   10 am   BACKBONE|DICT|INTERRES
    18   10   11 1    
    19   10   43 1    
    20   11   12 am   BACKBONE|DICT|INTERRES
    21   11   44 1    
    22   12   13 2    
    23   12   14 1    
    24   14   15 1    
    25   14   45 1    
    26   14   46 1    
    27   15   16 1    
    28   16   20 ar   
    29   16   17 ar   
    30   17   18 ar   
    31   18   19 ar   
    32   19   20 ar   
    33   19   28 1    
    34   20   21 1    
    35   21   26 ar   
    36   21   22 ar   
    37   22   23 ar   
    38   22   47 1    
    39   23   24 ar   
    40   23   48 1    
    41   24   25 ar   
    42   24   27 1    
    43   25   26 ar   
    44   25   49 1    
    45   26   50 1    
    46   28   29 1    
    47   28   30 1    
    48   28   64 1    
    49   30   51 1    
    50   30   52 1    
    51   30   53 1    
    52   31   32 1    
    53   31   54 1    
    54   31   55 1    
    55   31   64 1    
    56   32   33 1    
    57   32   56 1    
    58   32   57 1    
    59   33   34 1    
    60   33   58 1    
    61   33   59 1    
    62   34   35 1    
    63   34   60 1    
    64   34   61 1    
    65   35   62 1    
    66   35   63 1    
    67   35   64 1    
    68   64   65 1    
@<TRIPOS>SUBSTRUCTURE
     1 UNK         1 GROUP             0       ****    0 ROOT    
