@<TRIPOS>MOLECULE
ZINC13184045_516
56   58    1
SMALL
USER_CHARGES


@<TRIPOS>ATOM
      1 C1          5.4027   53.6570   19.8444 C.3       1 UNK         0.0000 
      2 N2          5.7440   54.8778   20.5966 N.am      1 UNK         0.0000 
      3 C3          6.1364   54.7300   22.0238 C.3       1 UNK         0.0000 
      4 C4          5.0657   54.1005   22.9387 C.2       1 UNK         0.0000 
      5 O5          4.1420   53.4232   22.4881 O.2       1 UNK         0.0000 
      6 N6          5.2596   54.3701   24.2449 N.am      1 UNK         0.0000 
      7 C7          4.4595   54.0981   25.3747 C.ar      1 UNK         0.0000 
      8 C8          3.0853   53.8244   25.2581 C.ar      1 UNK         0.0000 
      9 C9          2.3184   53.5362   26.3845 C.ar      1 UNK         0.0000 
     10 C10         2.9090   53.5165   27.6431 C.ar      1 UNK         0.0000 
     11 C11         4.2672   53.7910   27.7766 C.ar      1 UNK         0.0000 
     12 C12         5.0645   54.0972   26.6601 C.ar      1 UNK         0.0000 
     13 C13         6.5260   54.3909   26.8799 C.2       1 UNK         0.0000 
     14 O14         7.1044   55.1698   26.0819 O.co2     1 UNK         0.0000 
     15 C15         6.0341   56.0494   19.9561 C.2       1 UNK         0.0000 
     16 O16         6.6999   56.9386   20.4992 O.2       1 UNK         0.0000 
     17 C17         5.5038   56.3292   18.5575 C.ar      1 UNK         0.0000 
     18 C18         6.2297   57.1781   17.7078 C.ar      1 UNK         0.0000 
     19 C19         5.7491   57.5113   16.4429 C.ar      1 UNK         0.0000 
     20 C20         4.5294   57.0042   16.0033 C.ar      1 UNK         0.0000 
     21 C21         3.7798   56.1698   16.8331 C.ar      1 UNK         0.0000 
     22 C22         4.2581   55.8484   18.1087 C.ar      1 UNK         0.0000 
     23 S23         2.1893   55.5622   16.2657 S.o2      1 UNK         0.0000 
     24 O24         2.2849   55.4094   14.8095 O.2       1 UNK         0.0000 
     25 O25         1.8429   54.4169   17.1155 O.2       1 UNK         0.0000 
     26 N26         1.0593   56.8902   16.6357 N.pl3     1 UNK         0.0000 
     27 C27        -0.2413   56.4989   17.2330 C.3       1 UNK         0.0000 
     28 C28        -1.1930   55.9488   16.1507 C.3       1 UNK         0.0000 
     29 C29        -1.3663   56.9573   14.9882 C.3       1 UNK         0.0000 
     30 C30        -0.0213   57.5175   14.4585 C.3       1 UNK         0.0000 
     31 C31         0.9143   57.9572   15.6098 C.3       1 UNK         0.0000 
     32 H32         4.3304   53.4664   19.8972 H         1 UNK         0.0000 
     33 H33         5.6904   53.7057   18.7932 H         1 UNK         0.0000 
     34 H34         5.8994   52.7838   20.2659 H         1 UNK         0.0000 
     35 H35         6.4453   55.6698   22.4850 H         1 UNK         0.0000 
     36 H36         7.0164   54.0966   22.0816 H         1 UNK         0.0000 
     37 H37         6.1291   54.8300   24.5015 H         1 UNK         0.0000 
     38 H38         2.5886   53.8378   24.3002 H         1 UNK         0.0000 
     39 H39         1.2645   53.3227   26.2789 H         1 UNK         0.0000 
     40 H40         2.3142   53.2854   28.5145 H         1 UNK         0.0000 
     41 H41         4.7031   53.7687   28.7668 H         1 UNK         0.0000 
     42 H42         7.1754   57.5951   18.0263 H         1 UNK         0.0000 
     43 H43         6.3192   58.1721   15.8062 H         1 UNK         0.0000 
     44 H44         4.1647   57.2700   15.0216 H         1 UNK         0.0000 
     45 H45         3.6337   55.2459   18.7539 H         1 UNK         0.0000 
     46 H46        -0.0778   55.8361   18.0821 H         1 UNK         0.0000 
     47 H47        -0.6942   57.4024   17.6441 H         1 UNK         0.0000 
     48 H48        -0.8046   55.0014   15.7686 H         1 UNK         0.0000 
     49 H49        -2.1642   55.7201   16.5911 H         1 UNK         0.0000 
     50 H50        -1.9798   57.7907   15.3367 H         1 UNK         0.0000 
     51 H51        -1.9264   56.4964   14.1734 H         1 UNK         0.0000 
     52 H52        -0.2105   58.3643   13.7988 H         1 UNK         0.0000 
     53 H53         0.4692   56.7725   13.8326 H         1 UNK         0.0000 
     54 H54         0.4192   58.8031   16.0879 H         1 UNK         0.0000 
     55 H55         1.8960   58.3309   15.3146 H         1 UNK         0.0000 
     56 O56         7.0922   53.8330   27.8456 O.co2     1 UNK         0.0000 
@<TRIPOS>BOND
     1    1    2 1    
     2    1   32 1    
     3    1   33 1    
     4    1   34 1    
     5    2    3 1    
     6    2   15 am   BACKBONE|DICT|INTERRES
     7    3    4 1    
     8    3   35 1    
     9    3   36 1    
    10    4    5 2    
    11    4    6 am   BACKBONE|DICT|INTERRES
    12    6    7 1    
    13    6   37 1    
    14    7   12 ar   
    15    7    8 ar   
    16    8    9 ar   
    17    8   38 1    
    18    9   10 ar   
    19    9   39 1    
    20   10   11 ar   
    21   10   40 1    
    22   11   12 ar   
    23   11   41 1    
    24   12   13 1    
    25   13   14 2    
    26   13   56 1    
    27   15   16 2    
    28   15   17 1    
    29   17   22 ar   
    30   17   18 ar   
    31   18   19 ar   
    32   18   42 1    
    33   19   20 ar   
    34   19   43 1    
    35   20   21 ar   
    36   20   44 1    
    37   21   22 ar   
    38   21   23 1    
    39   22   45 1    
    40   23   24 2    
    41   23   25 2    
    42   23   26 1    
    43   26   31 1    
    44   26   27 1    
    45   27   28 1    
    46   27   46 1    
    47   27   47 1    
    48   28   29 1    
    49   28   48 1    
    50   28   49 1    
    51   29   30 1    
    52   29   50 1    
    53   29   51 1    
    54   30   31 1    
    55   30   52 1    
    56   30   53 1    
    57   31   54 1    
    58   31   55 1    
@<TRIPOS>SUBSTRUCTURE
     1 UNK         1 GROUP             0       ****    0 ROOT    
