ZINC43548614_794
                    3D
 Schrodinger Suite 2024-2.
 75 78  0  0  1  0            999 V2000
    6.1769   52.9140   15.2660 C   0  0  0  0  0  0
    7.2923   53.8384   15.7799 C   0  0  0  0  0  0
    7.2472   54.1314   17.2943 C   0  0  0  0  0  0
    6.1779   55.1455   17.7620 C   0  0  0  0  0  0
    4.7899   54.7022   17.5807 N   0  0  0  0  0  0
    4.1587   53.8118   18.3907 C   0  0  0  0  0  0
    2.8525   53.3914   18.2140 N   0  3  0  0  0  0
    2.3825   52.4643   19.1319 C   0  0  0  0  0  0
    3.3797   52.0939   20.0278 C   0  0  0  0  0  0
    4.8424   53.0225   19.7839 S   0  0  0  0  0  0
    3.2065   51.0601   21.1174 C   0  0  0  0  0  0
    2.0430   50.1006   20.7222 C   0  0  1  0  0  0
    1.6681   49.1468   21.8770 C   0  0  0  0  0  0
    1.2535   49.8730   23.1610 C   0  0  0  0  0  0
    0.0159   50.7761   22.9124 C   0  0  2  0  0  0
   -0.7727   50.0525   22.6946 H   0  0  0  0  0  0
    0.1113   51.6207   21.5845 C   0  0  1  0  0  0
    0.7211   52.5029   21.7605 H   0  0  0  0  0  0
    0.7502   50.9066   20.3399 C   0  0  1  0  0  0
    0.0120   50.1589   20.0351 H   0  0  0  0  0  0
    0.9582   51.8977   19.1219 C   0  0  2  0  0  0
    0.2926   52.7536   19.2543 H   0  0  0  0  0  0
    0.5770   51.2954   17.7542 C   0  0  0  0  0  0
   -1.1743   52.0966   21.2235 O   0  0  0  0  0  0
   -0.3981   51.5146   24.2427 C   0  0  2  0  0  0
   -0.4671   50.6944   24.9516 H   0  0  0  0  0  0
   -1.8222   52.1212   24.1966 C   0  0  0  0  0  0
    0.6128   52.5731   24.7827 C   0  0  0  0  0  0
    1.0808   53.3729   23.9657 O   0  0  0  0  0  0
    1.0610   52.5406   26.0749 N   0  0  0  0  0  0
    2.0109   53.6070   26.4795 C   0  0  0  0  0  0
    2.8788   53.1494   27.6673 C   0  0  0  0  0  0
    2.0716   52.6107   28.7630 N   0  0  0  0  0  0
    1.2431   51.4921   28.3131 C   0  0  0  0  0  0
    0.2930   51.8714   27.1515 C   0  0  0  0  0  0
    2.9319   52.2050   29.8704 C   0  0  0  0  0  0
    2.4796   49.1977   19.5269 C   0  0  0  0  0  0
    6.3729   52.6071   14.2377 H   0  0  0  0  0  0
    6.0981   52.0060   15.8687 H   0  0  0  0  0  0
    5.2026   53.4036   15.2707 H   0  0  0  0  0  0
    7.2944   54.7711   15.2155 H   0  0  0  0  0  0
    8.2461   53.3596   15.5579 H   0  0  0  0  0  0
    8.2189   54.5326   17.5857 H   0  0  0  0  0  0
    7.1457   53.1948   17.8471 H   0  0  0  0  0  0
    6.2715   56.1049   17.2509 H   0  0  0  0  0  0
    6.3016   55.3607   18.8255 H   0  0  0  0  0  0
    4.3000   55.0644   16.7758 H   0  0  0  0  0  0
    2.9855   51.6212   22.0231 H   0  0  0  0  0  0
    4.1286   50.5109   21.2944 H   0  0  0  0  0  0
    2.5124   48.4971   22.1168 H   0  0  0  0  0  0
    0.8589   48.4955   21.5537 H   0  0  0  0  0  0
    2.0893   50.4452   23.5669 H   0  0  0  0  0  0
    1.0308   49.1397   23.9422 H   0  0  0  0  0  0
    0.5407   52.0633   16.9808 H   0  0  0  0  0  0
    1.2877   50.5396   17.4214 H   0  0  0  0  0  0
   -0.4081   50.8315   17.7896 H   0  0  0  0  0  0
   -1.7447   51.3367   21.0817 H   0  0  0  0  0  0
   -2.1651   52.4021   25.1966 H   0  0  0  0  0  0
   -1.8612   53.0242   23.5808 H   0  0  0  0  0  0
   -2.5468   51.4097   23.7940 H   0  0  0  0  0  0
    1.4533   54.4658   26.8455 H   0  0  0  0  0  0
    2.6900   53.9047   25.6810 H   0  0  0  0  0  0
    3.5566   52.3769   27.3086 H   0  0  0  0  0  0
    3.4658   53.9982   28.0210 H   0  0  0  0  0  0
    1.9070   50.6980   27.9627 H   0  0  0  0  0  0
    0.6467   51.1143   29.1464 H   0  0  0  0  0  0
   -0.1717   50.9286   26.8780 H   0  0  0  0  0  0
   -0.4380   52.5672   27.5696 H   0  0  0  0  0  0
    3.6229   51.4141   29.5748 H   0  0  0  0  0  0
    3.5186   53.0486   30.2305 H   0  0  0  0  0  0
    2.3313   51.8439   30.7057 H   0  0  0  0  0  0
    3.0589   49.7373   18.7748 H   0  0  0  0  0  0
    3.1032   48.3643   19.8398 H   0  0  0  0  0  0
    1.6221   48.7498   19.0234 H   0  0  0  0  0  0
    2.2664   53.7496   17.4742 H   0  0  0  0  0  0
  1  2  1  0  0  0
  1 38  1  0  0  0
  1 39  1  0  0  0
  1 40  1  0  0  0
  2  3  1  0  0  0
  2 41  1  0  0  0
  2 42  1  0  0  0
  3  4  1  0  0  0
  3 43  1  0  0  0
  3 44  1  0  0  0
  4  5  1  0  0  0
  4 45  1  0  0  0
  4 46  1  0  0  0
  5  6  1  0  0  0
  5 47  1  0  0  0
  6 10  1  0  0  0
  6  7  2  0  0  0
  7  8  1  0  0  0
  7 75  1  0  0  0
  8 21  1  0  0  0
  8  9  2  0  0  0
  9 10  1  0  0  0
  9 11  1  0  0  0
 11 12  1  0  0  0
 11 48  1  0  0  0
 11 49  1  0  0  0
 12 19  1  0  0  0
 12 13  1  0  0  0
 12 37  1  0  0  0
 13 14  1  0  0  0
 13 50  1  0  0  0
 13 51  1  0  0  0
 14 15  1  0  0  0
 14 52  1  0  0  0
 14 53  1  0  0  0
 15 16  1  0  0  0
 15 17  1  0  0  0
 15 25  1  0  0  0
 17 18  1  0  0  0
 17 19  1  0  0  0
 17 24  1  0  0  0
 19 20  1  0  0  0
 19 21  1  0  0  0
 21 22  1  0  0  0
 21 23  1  0  0  0
 23 54  1  0  0  0
 23 55  1  0  0  0
 23 56  1  0  0  0
 24 57  1  0  0  0
 25 26  1  0  0  0
 25 27  1  0  0  0
 25 28  1  0  0  0
 27 58  1  0  0  0
 27 59  1  0  0  0
 27 60  1  0  0  0
 28 29  2  0  0  0
 28 30  1  0  0  0
 30 35  1  0  0  0
 30 31  1  0  0  0
 31 32  1  0  0  0
 31 61  1  0  0  0
 31 62  1  0  0  0
 32 33  1  0  0  0
 32 63  1  0  0  0
 32 64  1  0  0  0
 33 34  1  0  0  0
 33 36  1  0  0  0
 34 35  1  0  0  0
 34 65  1  0  0  0
 34 66  1  0  0  0
 35 67  1  0  0  0
 35 68  1  0  0  0
 36 69  1  0  0  0
 36 70  1  0  0  0
 36 71  1  0  0  0
 37 72  1  0  0  0
 37 73  1  0  0  0
 37 74  1  0  0  0
M  CHG  1   7   1
M  END
> <i_i_glide_confnum>
10

> <i_i_glide_lignum>
795

> <i_i_glide_posenum>
28

> <i_i_glide_rotatable_bonds>
8

> <i_m_Source_File_Index>
262

> <b_m_subgroup_collapsed>
0

> <r_i_docking_score>
-2.54401

> <r_i_glide_ecoul>
-1.015

> <r_i_glide_eff_state_penalty>
0

> <r_i_glide_einternal>
10.044

> <r_i_glide_emodel>
-30.7246

> <r_i_glide_energy>
-31.7193

> <r_i_glide_erotb>
0.562382

> <r_i_glide_esite>
-0.0205062

> <r_i_glide_evdw>
-30.7043

> <r_i_glide_gscore>
-2.54401

> <r_i_glide_hbond>
0

> <r_i_glide_ligand_efficiency>
-0.0795004

> <r_i_glide_ligand_efficiency_ln>
-0.569674

> <r_i_glide_ligand_efficiency_sa>
-0.252398

> <r_i_glide_lipo>
-0.890522

> <r_i_glide_metal>
0

> <r_i_glide_rewards>
-0.5079

> <s_i_glide_gridfile>
wee1_glide-grid

> <s_m_Source_File>
wee1_decoys_glide_SP.sdf

> <s_m_Source_Path>
/Users/zhangxujun/Desktop

> <s_m_entry_id>
537

> <s_m_entry_name>
wee1_decoys_glide_SP.262

> <s_m_subgroup_title>
wee1_decoys_glide_SP

> <s_m_subgroupid>
wee1_decoys_glide_SP


$$$$
