ZINC25611773_4435
                    3D
 Schrodinger Suite 2024-2.
 51 54  0  0  1  0            999 V2000
    7.1090   55.4195   21.6538 C   0  0  0  0  0  0
    7.7447   55.6947   20.4460 C   0  0  0  0  0  0
    7.1336   55.3326   19.2512 C   0  0  0  0  0  0
    5.8932   54.7005   19.2535 C   0  0  0  0  0  0
    5.2561   54.4298   20.4617 C   0  0  0  0  0  0
    5.8600   54.7812   21.6766 C   0  0  0  0  0  0
    5.1590   54.4967   22.9758 C   0  0  0  0  0  0
    3.9094   54.0925   23.0695 N   0  0  0  0  0  0
    3.4893   53.9893   24.3220 C   0  0  0  0  0  0
    4.4294   54.3905   25.2831 C   0  0  0  0  0  0
    5.9268   54.7920   24.5136 S   0  0  0  0  0  0
    2.1277   53.5515   24.5753 C   0  0  0  0  0  0
    1.2259   53.6438   23.7407 O   0  0  0  0  0  0
    1.9971   53.0238   25.8072 N   0  0  0  0  0  0
    0.8846   52.4945   26.4886 C   0  0  0  0  0  0
   -0.2058   51.9090   25.8316 C   0  0  0  0  0  0
   -1.2396   51.3143   26.5680 C   0  0  0  0  0  0
   -1.1990   51.3667   27.9684 C   0  0  0  0  0  0
   -0.1444   51.9873   28.6269 C   0  0  0  0  0  0
    0.9006   52.5530   27.8956 C   0  0  0  0  0  0
    1.9615   53.1552   28.5488 N   0  0  0  0  0  0
    2.9773   52.3436   29.2270 C   0  0  0  0  0  0
    4.3415   53.0481   29.0978 C   0  0  0  0  0  0
    4.3041   54.4966   29.6181 C   0  0  0  0  0  0
    3.0531   55.2541   29.1256 C   0  0  0  0  0  0
    1.7649   54.4206   29.2578 C   0  0  0  0  0  0
   -2.3658   50.6164   25.8553 C   0  0  0  0  0  0
   -2.7621   50.9823   24.7506 O   0  0  0  0  0  0
   -2.9031   49.5697   26.4794 N   0  0  0  0  0  0
    7.7510   55.5912   18.0768 F   0  0  0  0  0  0
    7.6065   55.7043   22.5673 H   0  0  0  0  0  0
    8.7154   56.1670   20.4360 H   0  0  0  0  0  0
    5.4252   54.4243   18.3204 H   0  0  0  0  0  0
    4.2905   53.9430   20.4414 H   0  0  0  0  0  0
    4.3401   54.4463   26.3577 H   0  0  0  0  0  0
    2.8027   53.1290   26.4042 H   0  0  0  0  0  0
   -0.2198   51.8591   24.7514 H   0  0  0  0  0  0
   -1.9802   50.9160   28.5688 H   0  0  0  0  0  0
   -0.1334   52.0113   29.7084 H   0  0  0  0  0  0
    3.0429   51.3666   28.7443 H   0  0  0  0  0  0
    2.7014   52.1752   30.2703 H   0  0  0  0  0  0
    4.6836   53.0014   28.0630 H   0  0  0  0  0  0
    5.0959   52.4893   29.6565 H   0  0  0  0  0  0
    4.3034   54.4732   30.7051 H   0  0  0  0  0  0
    5.2105   55.0295   29.3323 H   0  0  0  0  0  0
    2.9383   56.1854   29.6782 H   0  0  0  0  0  0
    3.1630   55.5656   28.0890 H   0  0  0  0  0  0
    0.9463   54.9762   28.7996 H   0  0  0  0  0  0
    1.4994   54.2420   30.3008 H   0  0  0  0  0  0
   -3.6684   49.0788   26.0476 H   0  0  0  0  0  0
   -2.3997   49.1302   27.2576 H   0  0  0  0  0  0
  1  6  2  0  0  0
  1  2  1  0  0  0
  1 31  1  0  0  0
  2  3  2  0  0  0
  2 32  1  0  0  0
  3  4  1  0  0  0
  3 30  1  0  0  0
  4  5  2  0  0  0
  4 33  1  0  0  0
  5  6  1  0  0  0
  5 34  1  0  0  0
  6  7  1  0  0  0
  7 11  1  0  0  0
  7  8  2  0  0  0
  8  9  1  0  0  0
  9 10  2  0  0  0
  9 12  1  0  0  0
 10 11  1  0  0  0
 10 35  1  0  0  0
 12 13  2  0  0  0
 12 14  1  0  0  0
 14 15  1  0  0  0
 14 36  1  0  0  0
 15 20  2  0  0  0
 15 16  1  0  0  0
 16 17  2  0  0  0
 16 37  1  0  0  0
 17 18  1  0  0  0
 17 27  1  0  0  0
 18 19  2  0  0  0
 18 38  1  0  0  0
 19 20  1  0  0  0
 19 39  1  0  0  0
 20 21  1  0  0  0
 21 26  1  0  0  0
 21 22  1  0  0  0
 22 23  1  0  0  0
 22 40  1  0  0  0
 22 41  1  0  0  0
 23 24  1  0  0  0
 23 42  1  0  0  0
 23 43  1  0  0  0
 24 25  1  0  0  0
 24 44  1  0  0  0
 24 45  1  0  0  0
 25 26  1  0  0  0
 25 46  1  0  0  0
 25 47  1  0  0  0
 26 48  1  0  0  0
 26 49  1  0  0  0
 27 28  2  0  0  0
 27 29  1  0  0  0
 29 50  1  0  0  0
 29 51  1  0  0  0
M  END
> <i_i_glide_confnum>
51

> <i_i_glide_lignum>
4436

> <i_i_glide_posenum>
291

> <i_i_glide_rotatable_bonds>
6

> <i_m_Source_File_Index>
3114

> <b_m_subgroup_collapsed>
0

> <r_i_docking_score>
-6.99394

> <r_i_glide_ecoul>
-6.01677

> <r_i_glide_eff_state_penalty>
0

> <r_i_glide_einternal>
8.51706

> <r_i_glide_emodel>
-69.0145

> <r_i_glide_energy>
-50.2741

> <r_i_glide_erotb>
0.550209

> <r_i_glide_esite>
-0.145576

> <r_i_glide_evdw>
-44.2573

> <r_i_glide_gscore>
-6.99394

> <r_i_glide_hbond>
-0.16

> <r_i_glide_ligand_efficiency>
-0.233131

> <r_i_glide_ligand_efficiency_ln>
-1.5891

> <r_i_glide_ligand_efficiency_sa>
-0.724394

> <r_i_glide_lipo>
-2.92928

> <r_i_glide_metal>
0

> <r_i_glide_rewards>
-1.19391

> <s_i_glide_gridfile>
wee1_glide-grid

> <s_m_Source_File>
wee1_decoys_glide_SP.sdf

> <s_m_Source_Path>
/Users/zhangxujun/Desktop

> <s_m_entry_id>
3389

> <s_m_entry_name>
wee1_decoys_glide_SP.3114

> <s_m_subgroup_title>
wee1_decoys_glide_SP

> <s_m_subgroupid>
wee1_decoys_glide_SP


$$$$
