@<TRIPOS>MOLECULE
ZINC44737114_5567
65   69    1
SMALL
USER_CHARGES


@<TRIPOS>ATOM
      1 C1         -7.0671   51.8089   28.2167 C.3       1 UNK         0.0000 
      2 C2         -5.7789   51.9354   27.4275 C.ar      1 UNK         0.0000 
      3 C3         -5.6578   52.9597   26.4814 C.ar      1 UNK         0.0000 
      4 C4         -4.4974   53.1237   25.7237 C.ar      1 UNK         0.0000 
      5 C5         -3.4481   52.2191   25.9271 C.ar      1 UNK         0.0000 
      6 C6         -3.5858   51.1821   26.8835 C.ar      1 UNK         0.0000 
      7 C7         -4.7420   51.0223   27.6517 C.ar      1 UNK         0.0000 
      8 N8         -2.3957   50.4967   26.7998 N.pl3     1 UNK         0.0000 
      9 C9         -1.6362   51.1045   25.8203 C.ar      1 UNK         0.0000 
     10 N10        -2.2289   52.1609   25.3091 N.2       1 UNK         0.0000 
     11 C11        -0.2498   50.5815   25.4355 C.3       1 UNK         0.0000 
     12 H12         0.3540   50.6584   26.3411 H         1 UNK         0.0000 
     13 C13        -0.2593   49.0927   25.0407 C.3       1 UNK         0.0000 
     14 N14         0.4802   51.4287   24.4784 N.am      1 UNK         0.0000 
     15 C15         0.2709   51.6131   23.1528 C.2       1 UNK         0.0000 
     16 O16        -0.6831   51.1111   22.5629 O.2       1 UNK         0.0000 
     17 C17         1.2382   52.5467   22.3512 C.3       1 UNK         0.0000 
     18 H18         0.7044   53.4682   22.1475 H         1 UNK         0.0000 
     19 C19         2.4304   52.9570   23.2499 C.3       1 UNK         0.0000 
     20 N20         3.5489   53.1719   22.3413 N.am      1 UNK         0.0000 
     21 C21         3.1896   52.7815   20.9767 C.3       1 UNK         0.0000 
     22 C22         1.8818   51.9551   21.0579 C.3       1 UNK         0.0000 
     23 C23         2.1736   50.4252   21.1428 C.3       1 UNK         0.0000 
     24 C24         2.9953   49.9261   19.9363 C.3       1 UNK         0.0000 
     25 N25         2.2999   50.2950   18.6053 N.4       1 UNK         0.0000 
     26 C26         1.7885   51.7545   18.5107 C.3       1 UNK         0.0000 
     27 C27         0.9962   52.0931   19.7945 C.3       1 UNK         0.0000 
     28 C28         4.7263   53.8164   22.5869 C.2       1 UNK         0.0000 
     29 O29         5.4961   54.0618   21.6537 O.2       1 UNK         0.0000 
     30 C30         5.1622   54.2565   23.9864 C.ar      1 UNK         0.0000 
     31 C31         6.2437   55.1461   24.0928 C.ar      1 UNK         0.0000 
     32 C32         6.7046   55.5835   25.3304 C.ar      1 UNK         0.0000 
     33 C33         6.1548   55.0782   26.5062 C.ar      1 UNK         0.0000 
     34 C34         5.0931   54.1859   26.4336 C.ar      1 UNK         0.0000 
     35 C35         4.5892   53.8013   25.1918 C.ar      1 UNK         0.0000 
     36 Br36        4.3424   53.4722   28.0309 Br        1 UNK         0.0000 
     37 H37        -7.9244   51.8679   27.5454 H         1 UNK         0.0000 
     38 H38        -7.1362   50.8561   28.7435 H         1 UNK         0.0000 
     39 H39        -7.1550   52.6237   28.9371 H         1 UNK         0.0000 
     40 H40        -6.4836   53.6411   26.3303 H         1 UNK         0.0000 
     41 H41        -4.4127   53.9162   24.9950 H         1 UNK         0.0000 
     42 H42        -4.8250   50.2239   28.3764 H         1 UNK         0.0000 
     43 H43        -0.5901   48.4643   25.8694 H         1 UNK         0.0000 
     44 H44        -0.9302   48.9065   24.1999 H         1 UNK         0.0000 
     45 H45         0.7369   48.7470   24.7546 H         1 UNK         0.0000 
     46 H46         1.2367   51.9501   24.8896 H         1 UNK         0.0000 
     47 H47         2.1774   53.8432   23.8350 H         1 UNK         0.0000 
     48 H48         2.7055   52.0932   23.8489 H         1 UNK         0.0000 
     49 H49         3.9917   52.3555   20.3793 H         1 UNK         0.0000 
     50 H50         2.9512   53.7109   20.4607 H         1 UNK         0.0000 
     51 H51         2.7629   50.2221   22.0384 H         1 UNK         0.0000 
     52 H52         1.2631   49.8355   21.2588 H         1 UNK         0.0000 
     53 H53         3.9828   50.3745   19.8892 H         1 UNK         0.0000 
     54 H54         3.1037   48.8421   19.9152 H         1 UNK         0.0000 
     55 H55         2.9596   50.1029   17.8481 H         1 UNK         0.0000 
     56 H56         2.6684   52.3832   18.3638 H         1 UNK         0.0000 
     57 H57         1.1721   51.8041   17.6110 H         1 UNK         0.0000 
     58 H58         0.0697   51.5252   19.8837 H         1 UNK         0.0000 
     59 H59         0.6898   53.1354   19.6962 H         1 UNK         0.0000 
     60 H60         6.7393   55.5353   23.2126 H         1 UNK         0.0000 
     61 H61         7.5029   56.3085   25.3612 H         1 UNK         0.0000 
     62 H62         6.5380   55.3875   27.4706 H         1 UNK         0.0000 
     63 H63         3.7926   53.0851   25.2365 H         1 UNK         0.0000 
     64 H64         1.5227   49.6661   18.4580 H         1 UNK         0.0000 
     65 H65        -2.0965   49.6673   27.3206 H         1 UNK         0.0000 
@<TRIPOS>BOND
     1    1    2 1    
     2    1   37 1    
     3    1   38 1    
     4    1   39 1    
     5    2    7 ar   
     6    2    3 ar   
     7    3    4 ar   
     8    3   40 1    
     9    4    5 ar   
    10    4   41 1    
    11    5   10 ar   
    12    5    6 ar   
    13    6    7 ar   
    14    6    8 ar   
    15    7   42 1    
    16    8    9 ar   
    17    8   65 1    
    18    9   10 ar   
    19    9   11 1    
    20   11   12 1    
    21   11   13 1    
    22   11   14 1    
    23   13   43 1    
    24   13   44 1    
    25   13   45 1    
    26   14   15 am   BACKBONE|DICT|INTERRES
    27   14   46 1    
    28   15   16 2    
    29   15   17 1    
    30   17   18 1    
    31   17   22 1    
    32   17   19 1    
    33   19   20 1    
    34   19   47 1    
    35   19   48 1    
    36   20   21 1    
    37   20   28 am   BACKBONE|DICT|INTERRES
    38   21   22 1    
    39   21   49 1    
    40   21   50 1    
    41   22   27 1    
    42   22   23 1    
    43   23   24 1    
    44   23   51 1    
    45   23   52 1    
    46   24   25 1    
    47   24   53 1    
    48   24   54 1    
    49   25   26 1    
    50   25   55 1    
    51   25   64 1    
    52   26   27 1    
    53   26   56 1    
    54   26   57 1    
    55   27   58 1    
    56   27   59 1    
    57   28   29 2    
    58   28   30 1    
    59   30   35 ar   
    60   30   31 ar   
    61   31   32 ar   
    62   31   60 1    
    63   32   33 ar   
    64   32   61 1    
    65   33   34 ar   
    66   33   62 1    
    67   34   35 ar   
    68   34   36 1    
    69   35   63 1    
@<TRIPOS>SUBSTRUCTURE
     1 UNK         1 GROUP             0       ****    0 ROOT    
