ZINC24986445_5530
                    3D
 Schrodinger Suite 2024-2.
 63 67  0  0  1  0            999 V2000
   -0.0951   52.7340   30.6220 C   0  0  0  0  0  0
   -0.8848   51.6965   30.1460 C   0  0  0  0  0  0
   -1.1563   51.5714   28.7949 C   0  0  0  0  0  0
   -0.6580   52.5211   27.8878 C   0  0  0  0  0  0
    0.1204   53.5907   28.3952 C   0  0  0  0  0  0
    0.4078   53.6837   29.7473 C   0  0  0  0  0  0
   -1.0397   52.4281   26.4071 C   0  0  0  0  0  0
    0.0846   52.2501   25.3268 C   0  0  2  0  0  0
   -0.1325   52.9834   24.5501 H   0  0  0  0  0  0
    0.0659   50.8320   24.6946 C   0  0  0  0  0  0
   -0.2177   49.8833   25.4309 O   0  0  0  0  0  0
    0.3005   50.6768   23.3650 N   0  0  0  0  0  0
   -0.0556   49.4082   22.6980 C   0  0  0  0  0  0
   -1.0230   49.7529   21.5302 C   0  0  0  0  0  0
   -0.5411   50.8623   20.5544 C   0  0  0  0  0  0
   -0.0906   52.0712   21.4162 C   0  0  0  0  0  0
    0.9173   51.7112   22.5212 C   0  0  0  0  0  0
    0.6008   50.3531   19.6593 C   0  0  0  0  0  0
    0.6827   50.5595   18.2842 C   0  0  0  0  0  0
    1.9044   50.0616   17.8562 N   0  3  0  0  0  0
    2.5290   49.4605   18.9229 C   0  0  0  0  0  0
    1.7414   49.6548   20.0311 N   0  0  0  0  0  0
    1.9790   49.3715   20.9712 H   0  0  0  0  0  0
   -0.3549   51.3293   17.4935 C   0  0  0  0  0  0
   -1.2633   52.0912   18.5011 C   0  0  0  0  0  0
   -1.6472   51.2591   19.6554 N   0  0  0  0  0  0
    1.3862   52.4971   25.9352 N   0  0  0  0  0  0
    2.3142   53.4103   25.6170 C   0  0  0  0  0  0
    2.2597   54.1016   24.6021 O   0  0  0  0  0  0
    3.4400   53.5607   26.6234 C   0  0  0  0  0  0
    4.5576   54.3550   26.3274 C   0  0  0  0  0  0
    5.5947   54.4956   27.2514 C   0  0  0  0  0  0
    5.5353   53.8400   28.4817 C   0  0  0  0  0  0
    4.4312   53.0451   28.7914 C   0  0  0  0  0  0
    3.3945   52.9167   27.8747 C   0  0  0  0  0  0
    4.3043   52.0974   30.4393 Br  0  0  0  0  0  0
    0.1084   52.8044   31.6804 H   0  0  0  0  0  0
   -1.2922   50.9711   30.8394 H   0  0  0  0  0  0
   -1.7666   50.7442   28.4552 H   0  0  0  0  0  0
    0.5056   54.3507   27.7329 H   0  0  0  0  0  0
    1.0123   54.4982   30.1179 H   0  0  0  0  0  0
   -1.6454   53.2965   26.1699 H   0  0  0  0  0  0
   -1.7863   51.6369   26.3150 H   0  0  0  0  0  0
   -0.5464   48.6963   23.3685 H   0  0  0  0  0  0
    0.8555   48.9394   22.3319 H   0  0  0  0  0  0
   -1.9766   50.0504   21.9728 H   0  0  0  0  0  0
   -1.2361   48.8388   20.9721 H   0  0  0  0  0  0
    0.3613   52.8448   20.7925 H   0  0  0  0  0  0
   -0.9630   52.5322   21.8832 H   0  0  0  0  0  0
    1.2725   52.5874   23.0565 H   0  0  0  0  0  0
    1.8127   51.2731   22.0835 H   0  0  0  0  0  0
    3.5034   48.9884   18.8831 H   0  0  0  0  0  0
    0.0767   52.0173   16.7646 H   0  0  0  0  0  0
   -0.9690   50.6509   16.9015 H   0  0  0  0  0  0
   -0.7253   52.9762   18.8421 H   0  0  0  0  0  0
   -2.1543   52.4436   17.9773 H   0  0  0  0  0  0
   -2.2054   50.4641   19.3770 H   0  0  0  0  0  0
    1.5453   51.9370   26.7588 H   0  0  0  0  0  0
    4.6353   54.8651   25.3779 H   0  0  0  0  0  0
    6.4494   55.1106   27.0183 H   0  0  0  0  0  0
    6.3470   53.9581   29.1854 H   0  0  0  0  0  0
    2.5672   52.2838   28.1615 H   0  0  0  0  0  0
    2.3154   50.1083   16.9268 H   0  0  0  0  0  0
  1  6  2  0  0  0
  1  2  1  0  0  0
  1 37  1  0  0  0
  2  3  2  0  0  0
  2 38  1  0  0  0
  3  4  1  0  0  0
  3 39  1  0  0  0
  4  5  2  0  0  0
  4  7  1  0  0  0
  5  6  1  0  0  0
  5 40  1  0  0  0
  6 41  1  0  0  0
  7  8  1  0  0  0
  7 42  1  0  0  0
  7 43  1  0  0  0
  8  9  1  0  0  0
  8 10  1  0  0  0
  8 27  1  0  0  0
 10 11  2  0  0  0
 10 12  1  0  0  0
 12 17  1  0  0  0
 12 13  1  0  0  0
 13 14  1  0  0  0
 13 44  1  0  0  0
 13 45  1  0  0  0
 14 15  1  0  0  0
 14 46  1  0  0  0
 14 47  1  0  0  0
 15 26  1  0  0  0
 15 16  1  0  0  0
 15 18  1  0  0  0
 16 17  1  0  0  0
 16 48  1  0  0  0
 16 49  1  0  0  0
 17 50  1  0  0  0
 17 51  1  0  0  0
 18 22  1  0  0  0
 18 19  2  0  0  0
 19 20  1  0  0  0
 19 24  1  0  0  0
 20 21  2  0  0  0
 20 63  1  0  0  0
 21 22  1  0  0  0
 21 52  1  0  0  0
 22 23  1  0  0  0
 24 25  1  0  0  0
 24 53  1  0  0  0
 24 54  1  0  0  0
 25 26  1  0  0  0
 25 55  1  0  0  0
 25 56  1  0  0  0
 26 57  1  0  0  0
 27 28  1  0  0  0
 27 58  1  0  0  0
 28 29  2  0  0  0
 28 30  1  0  0  0
 30 35  2  0  0  0
 30 31  1  0  0  0
 31 32  2  0  0  0
 31 59  1  0  0  0
 32 33  1  0  0  0
 32 60  1  0  0  0
 33 34  2  0  0  0
 33 61  1  0  0  0
 34 35  1  0  0  0
 34 36  1  0  0  0
 35 62  1  0  0  0
M  CHG  1  20   1
M  END
> <i_i_glide_confnum>
59

> <i_i_glide_lignum>
5531

> <i_i_glide_posenum>
327

> <i_i_glide_rotatable_bonds>
7

> <i_m_Source_File_Index>
1836

> <b_m_subgroup_collapsed>
0

> <r_i_docking_score>
-4.81896

> <r_i_glide_ecoul>
-4.59256

> <r_i_glide_eff_state_penalty>
0

> <r_i_glide_einternal>
15.6006

> <r_i_glide_emodel>
-45.3591

> <r_i_glide_energy>
-37.9523

> <r_i_glide_erotb>
0.300301

> <r_i_glide_esite>
-0.225224

> <r_i_glide_evdw>
-33.3597

> <r_i_glide_gscore>
-4.81896

> <r_i_glide_hbond>
-0.0600133

> <r_i_glide_ligand_efficiency>
-0.141734

> <r_i_glide_ligand_efficiency_ln>
-1.06464

> <r_i_glide_ligand_efficiency_sa>
-0.459164

> <r_i_glide_lipo>
-2.1611

> <r_i_glide_metal>
0

> <r_i_glide_rewards>
-0.316052

> <s_i_glide_gridfile>
wee1_glide-grid

> <s_m_Source_File>
wee1_decoys_glide_SP.sdf

> <s_m_Source_Path>
/Users/zhangxujun/Desktop

> <s_m_entry_id>
2111

> <s_m_entry_name>
wee1_decoys_glide_SP.1836

> <s_m_subgroup_title>
wee1_decoys_glide_SP

> <s_m_subgroupid>
wee1_decoys_glide_SP


$$$$
