@<TRIPOS>MOLECULE
ZINC00995817_4374
48   52    1
SMALL
USER_CHARGES


@<TRIPOS>ATOM
      1 C1         -2.7574   47.5311   20.1537 C.ar      1 UNK         0.0000 
      2 C2         -2.7384   46.3211   19.4461 C.ar      1 UNK         0.0000 
      3 C3         -1.5036   45.8434   19.0237 C.ar      1 UNK         0.0000 
      4 C4         -0.3448   46.5184   19.2821 C.ar      1 UNK         0.0000 
      5 C5         -0.3326   47.7147   19.9901 C.ar      1 UNK         0.0000 
      6 C6         -1.5634   48.2295   20.4369 C.ar      1 UNK         0.0000 
      7 C7         -1.5964   49.5327   21.2476 C.3       1 UNK         0.0000 
      8 H8         -2.6421   49.6444   21.5438 H         1 UNK         0.0000 
      9 C9         -1.2077   50.7507   20.4090 C.2       1 UNK         0.0000 
     10 C10        -0.0824   51.4585   20.6431 C.2       1 UNK         0.0000 
     11 N11         0.7235   51.2058   21.7652 N.pl3     1 UNK         0.0000 
     12 C12         0.3377   50.2649   22.7421 C.2       1 UNK         0.0000 
     13 C13        -0.7744   49.4842   22.5612 C.2       1 UNK         0.0000 
     14 C14        -1.2204   48.4953   23.5839 C.2       1 UNK         0.0000 
     15 O15        -2.0734   47.6400   23.3474 O.2       1 UNK         0.0000 
     16 C16        -0.4586   48.4504   24.9126 C.3       1 UNK         0.0000 
     17 C17         0.2014   49.7914   25.2397 C.3       1 UNK         0.0000 
     18 C18         1.1044   50.2443   24.0806 C.3       1 UNK         0.0000 
     19 C19         1.9462   51.9113   21.9096 C.ar      1 UNK         0.0000 
     20 C20         3.0911   51.4677   21.2346 C.ar      1 UNK         0.0000 
     21 C21         4.2708   52.2127   21.2819 C.ar      1 UNK         0.0000 
     22 C22         4.3176   53.3989   22.0169 C.ar      1 UNK         0.0000 
     23 C23         3.1876   53.8396   22.7018 C.ar      1 UNK         0.0000 
     24 C24         2.0038   53.1078   22.6433 C.ar      1 UNK         0.0000 
     25 F25         0.9133   53.5704   23.2982 F         1 UNK         0.0000 
     26 Br26        5.9108   54.4359   22.0820 Br        1 UNK         0.0000 
     27 N27         0.3042   52.4967   19.8169 N.pl3     1 UNK         0.0000 
     28 C28        -2.0829   51.1174   19.3401 C.1       1 UNK         0.0000 
     29 N29        -2.8063   51.4723   18.5101 N.1       1 UNK         0.0000 
     30 O30         0.7044   45.8076   18.7949 O.3       1 UNK         0.0000 
     31 C31         0.1361   44.8031   17.9998 C.3       1 UNK         0.0000 
     32 O32        -1.2147   44.6916   18.3613 O.3       1 UNK         0.0000 
     33 H33        -3.7059   47.9178   20.4974 H         1 UNK         0.0000 
     34 H34        -3.6540   45.7852   19.2457 H         1 UNK         0.0000 
     35 H35         0.5925   48.2307   20.2016 H         1 UNK         0.0000 
     36 H36         0.3260   47.7025   24.7947 H         1 UNK         0.0000 
     37 H37        -1.1146   48.1001   25.7115 H         1 UNK         0.0000 
     38 H38         0.7777   49.7035   26.1618 H         1 UNK         0.0000 
     39 H39        -0.5691   50.5404   25.4367 H         1 UNK         0.0000 
     40 H40         2.0437   49.6970   24.0026 H         1 UNK         0.0000 
     41 H41         1.3725   51.2537   24.3857 H         1 UNK         0.0000 
     42 H42         3.0569   50.5630   20.6432 H         1 UNK         0.0000 
     43 H43         5.1389   51.8763   20.7337 H         1 UNK         0.0000 
     44 H44         3.2219   54.7610   23.2640 H         1 UNK         0.0000 
     45 H45        -0.1927   52.6874   18.9590 H         1 UNK         0.0000 
     46 H46         1.0065   53.1696   20.0985 H         1 UNK         0.0000 
     47 H47         0.2069   45.0958   16.9496 H         1 UNK         0.0000 
     48 H48         0.6596   43.8568   18.1377 H         1 UNK         0.0000 
@<TRIPOS>BOND
     1    1    6 ar   
     2    1    2 ar   
     3    1   33 1    
     4    2    3 ar   
     5    2   34 1    
     6    3   32 1    
     7    3    4 ar   
     8    4    5 ar   
     9    4   30 1    
    10    5    6 ar   
    11    5   35 1    
    12    6    7 1    
    13    7    8 1    
    14    7   13 1    
    15    7    9 1    
    16    9   10 2    
    17    9   28 1    
    18   10   11 1    
    19   10   27 1    
    20   11   12 1    
    21   11   19 1    
    22   12   18 1    
    23   12   13 2    
    24   13   14 1    
    25   14   15 2    
    26   14   16 1    
    27   16   17 1    
    28   16   36 1    
    29   16   37 1    
    30   17   18 1    
    31   17   38 1    
    32   17   39 1    
    33   18   40 1    
    34   18   41 1    
    35   19   24 ar   
    36   19   20 ar   
    37   20   21 ar   
    38   20   42 1    
    39   21   22 ar   
    40   21   43 1    
    41   22   23 ar   
    42   22   26 1    
    43   23   24 ar   
    44   23   44 1    
    45   24   25 1    
    46   27   45 1    
    47   27   46 1    
    48   28   29 3    
    49   30   31 1    
    50   31   32 1    
    51   31   47 1    
    52   31   48 1    
@<TRIPOS>SUBSTRUCTURE
     1 UNK         1 GROUP             0       ****    0 ROOT    
