@<TRIPOS>MOLECULE
ZINC01110968_46
46   49    1
SMALL
USER_CHARGES


@<TRIPOS>ATOM
      1 C1          5.0833   54.4650   22.5032 C.3       1 UNK         0.0000 
      2 O2          3.7923   54.4316   21.9052 O.3       1 UNK         0.0000 
      3 C3          3.0571   53.3054   22.1893 C.ar      1 UNK         0.0000 
      4 C4          1.9211   53.4332   22.9855 C.ar      1 UNK         0.0000 
      5 C5          1.1941   52.3114   23.4112 C.ar      1 UNK         0.0000 
      6 C6          1.6032   51.0409   22.9579 C.ar      1 UNK         0.0000 
      7 C7          2.6849   50.9225   22.0810 C.ar      1 UNK         0.0000 
      8 C8          3.4082   52.0464   21.6818 C.ar      1 UNK         0.0000 
      9 O9          4.4830   51.8884   20.8421 O.3       1 UNK         0.0000 
     10 C10         4.3109   52.4684   19.5503 C.3       1 UNK         0.0000 
     11 Br11        0.7058   49.4381   23.4749 Br        1 UNK         0.0000 
     12 C12        -0.0694   52.5230   24.2713 C.3       1 UNK         0.0000 
     13 H13        -0.2365   53.6011   24.2912 H         1 UNK         0.0000 
     14 C14        -0.0221   52.0504   25.7512 C.ar      1 UNK         0.0000 
     15 C15         0.8328   52.1554   26.9043 C.ar      1 UNK         0.0000 
     16 N16         0.3630   51.4298   27.9123 N.2       1 UNK         0.0000 
     17 N17        -0.7798   50.8970   27.5013 N.pl3     1 UNK         0.0000 
     18 H18        -1.2951   50.2067   28.0421 H         1 UNK         0.0000 
     19 C19        -1.0542   51.2584   26.2287 C.ar      1 UNK         0.0000 
     20 O20        -2.1899   50.8340   25.5953 O.3       1 UNK         0.0000 
     21 C21        -2.2574   51.1990   24.2915 C.2       1 UNK         0.0000 
     22 C22        -1.3457   51.9366   23.6087 C.2       1 UNK         0.0000 
     23 C23        -1.5221   52.0739   22.1986 C.1       1 UNK         0.0000 
     24 N24        -1.6945   52.0964   21.0545 N.1       1 UNK         0.0000 
     25 N25        -3.3844   50.6172   23.7783 N.pl3     1 UNK         0.0000 
     26 C26         2.1307   52.8950   27.1359 C.ar      1 UNK         0.0000 
     27 C27         2.9179   52.6419   28.2748 C.ar      1 UNK         0.0000 
     28 C28         4.1317   53.2969   28.4681 C.ar      1 UNK         0.0000 
     29 C29         4.5716   54.2169   27.5228 C.ar      1 UNK         0.0000 
     30 C30         3.7977   54.4965   26.4011 C.ar      1 UNK         0.0000 
     31 C31         2.5801   53.8458   26.2236 C.ar      1 UNK         0.0000 
     32 H32         5.6534   55.2966   22.0913 H         1 UNK         0.0000 
     33 H33         5.6634   53.5619   22.3207 H         1 UNK         0.0000 
     34 H34         5.0061   54.6100   23.5810 H         1 UNK         0.0000 
     35 H35         1.6252   54.4272   23.2858 H         1 UNK         0.0000 
     36 H36         2.9757   49.9471   21.7183 H         1 UNK         0.0000 
     37 H37         5.2689   52.4971   19.0325 H         1 UNK         0.0000 
     38 H38         3.6190   51.8744   18.9513 H         1 UNK         0.0000 
     39 H39         3.9408   53.4937   19.5782 H         1 UNK         0.0000 
     40 H40        -3.6359   50.7441   22.8096 H         1 UNK         0.0000 
     41 H41        -3.8148   49.8520   24.2747 H         1 UNK         0.0000 
     42 H42         2.6064   51.9152   29.0105 H         1 UNK         0.0000 
     43 H43         4.7342   53.0819   29.3380 H         1 UNK         0.0000 
     44 H44         5.5144   54.7242   27.6672 H         1 UNK         0.0000 
     45 H45         4.1329   55.2253   25.6781 H         1 UNK         0.0000 
     46 H46         1.9648   54.1064   25.3864 H         1 UNK         0.0000 
@<TRIPOS>BOND
     1    1    2 1    
     2    1   32 1    
     3    1   33 1    
     4    1   34 1    
     5    2    3 1    
     6    3    8 ar   
     7    3    4 ar   
     8    4    5 ar   
     9    4   35 1    
    10    5    6 ar   
    11    5   12 1    
    12    6    7 ar   
    13    6   11 1    
    14    7    8 ar   
    15    7   36 1    
    16    8    9 1    
    17    9   10 1    
    18   10   37 1    
    19   10   38 1    
    20   10   39 1    
    21   12   13 1    
    22   12   22 1    
    23   12   14 1    
    24   14   19 ar   
    25   14   15 ar   
    26   15   16 ar   
    27   15   26 1    
    28   16   17 ar   
    29   17   18 1    
    30   17   19 ar   
    31   19   20 1    
    32   20   21 1    
    33   21   22 2    
    34   21   25 1    
    35   22   23 1    
    36   23   24 3    
    37   25   40 1    
    38   25   41 1    
    39   26   31 ar   
    40   26   27 ar   
    41   27   28 ar   
    42   27   42 1    
    43   28   29 ar   
    44   28   43 1    
    45   29   30 ar   
    46   29   44 1    
    47   30   31 ar   
    48   30   45 1    
    49   31   46 1    
@<TRIPOS>SUBSTRUCTURE
     1 UNK         1 GROUP             0       ****    0 ROOT    
