@<TRIPOS>MOLECULE
ZINC65349076_1717
40   42    1
SMALL
USER_CHARGES


@<TRIPOS>ATOM
      1 C1          6.5366   54.5171   24.8546 C.ar      1 UNK         0.0000 
      2 C2          5.4267   54.2964   25.6606 C.ar      1 UNK         0.0000 
      3 C3          4.1585   54.0790   25.1022 C.ar      1 UNK         0.0000 
      4 C4          4.0459   54.0971   23.7021 C.ar      1 UNK         0.0000 
      5 C5          5.1680   54.2553   22.8683 C.ar      1 UNK         0.0000 
      6 C6          6.4099   54.4963   23.4714 C.ar      1 UNK         0.0000 
      7 C7          5.0792   54.2516   21.3536 C.2       1 UNK         0.0000 
      8 O8          5.8393   54.9971   20.7283 O.2       1 UNK         0.0000 
      9 N9          4.1990   53.4330   20.7140 N.am      1 UNK         0.0000 
     10 C10         4.1405   53.3962   19.2448 C.3       1 UNK         0.0000 
     11 C11         3.0252   52.3953   18.9552 C.3       1 UNK         0.0000 
     12 C12         3.0895   51.4467   20.1338 C.3       1 UNK         0.0000 
     13 C13         3.3892   52.3626   21.3177 C.3       1 UNK         0.0000 
     14 C14         2.9917   53.7360   25.9738 C.ar      1 UNK         0.0000 
     15 C15         2.9287   54.1755   27.3049 C.ar      1 UNK         0.0000 
     16 C16         1.9154   53.7462   28.1764 C.ar      1 UNK         0.0000 
     17 C17         0.9356   52.8672   27.6718 C.ar      1 UNK         0.0000 
     18 N18         0.9960   52.4968   26.3804 N.pl3     1 UNK         0.0000 
     19 C19         1.9587   52.8979   25.5282 C.ar      1 UNK         0.0000 
     20 N20        -0.0987   52.3162   28.4616 N.pl3     1 UNK         0.0000 
     21 C21         1.9463   54.1969   29.6034 C.2       1 UNK         0.0000 
     22 O22         3.0682   54.4854   30.0817 O.co2     1 UNK         0.0000 
     23 O23         0.8671   54.2421   30.2353 O.co2     1 UNK         0.0000 
     24 H24         7.5047   54.6779   25.2987 H         1 UNK         0.0000 
     25 H25         5.5767   54.2669   26.7285 H         1 UNK         0.0000 
     26 H26         3.0654   53.9906   23.2662 H         1 UNK         0.0000 
     27 H27         7.2967   54.6557   22.8716 H         1 UNK         0.0000 
     28 H28         5.0842   53.0127   18.8479 H         1 UNK         0.0000 
     29 H29         3.9253   54.3763   18.8159 H         1 UNK         0.0000 
     30 H30         3.1565   51.8976   17.9942 H         1 UNK         0.0000 
     31 H31         2.0615   52.9070   18.9356 H         1 UNK         0.0000 
     32 H32         2.1803   50.8614   20.2724 H         1 UNK         0.0000 
     33 H33         3.9053   50.7381   19.9959 H         1 UNK         0.0000 
     34 H34         2.4333   52.7603   21.6614 H         1 UNK         0.0000 
     35 H35         3.9248   51.7958   22.0816 H         1 UNK         0.0000 
     36 H36         3.6950   54.8400   27.6821 H         1 UNK         0.0000 
     37 H37         1.9046   52.4720   24.5363 H         1 UNK         0.0000 
     38 H38        -0.1704   52.6339   29.4259 H         1 UNK         0.0000 
     39 H39        -0.6968   51.5732   28.1261 H         1 UNK         0.0000 
     40 H40         0.2863   51.8593   26.0434 H         1 UNK         0.0000 
@<TRIPOS>BOND
     1    1    6 ar   
     2    1    2 ar   
     3    1   24 1    
     4    2    3 ar   
     5    2   25 1    
     6    3    4 ar   
     7    3   14 1    
     8    4    5 ar   
     9    4   26 1    
    10    5    6 ar   
    11    5    7 1    
    12    6   27 1    
    13    7    8 2    
    14    7    9 am   BACKBONE|DICT|INTERRES
    15    9   13 1    
    16    9   10 1    
    17   10   11 1    
    18   10   28 1    
    19   10   29 1    
    20   11   12 1    
    21   11   30 1    
    22   11   31 1    
    23   12   13 1    
    24   12   32 1    
    25   12   33 1    
    26   13   34 1    
    27   13   35 1    
    28   14   19 ar   
    29   14   15 ar   
    30   15   16 ar   
    31   15   36 1    
    32   16   17 ar   
    33   16   21 1    
    34   17   18 ar   
    35   17   20 1    
    36   18   19 ar   
    37   18   40 1    
    38   19   37 1    
    39   20   38 1    
    40   20   39 1    
    41   21   22 2    
    42   21   23 1    
@<TRIPOS>SUBSTRUCTURE
     1 UNK         1 GROUP             0       ****    0 ROOT    
