@<TRIPOS>MOLECULE
ZINC37464350_1632
33   34    1
SMALL
USER_CHARGES


@<TRIPOS>ATOM
      1 C1          0.8871   51.7534   22.0098 C.3       1 UNK         0.0000 
      2 C2          0.9283   52.1646   23.5003 C.3       1 UNK         0.0000 
      3 H3          1.0366   51.2459   24.0828 H         1 UNK         0.0000 
      4 C4          2.1396   53.0260   23.9080 C.ar      1 UNK         0.0000 
      5 C5          3.1227   53.4138   22.9833 C.ar      1 UNK         0.0000 
      6 C6          4.2613   54.0970   23.4067 C.ar      1 UNK         0.0000 
      7 C7          4.4169   54.4247   24.7509 C.ar      1 UNK         0.0000 
      8 C8          3.4321   54.0845   25.6743 C.ar      1 UNK         0.0000 
      9 C9          2.3044   53.3785   25.2551 C.ar      1 UNK         0.0000 
     10 Cl10        5.8454   55.2409   25.2813 Cl        1 UNK         0.0000 
     11 N11        -0.3281   52.8225   23.9552 N.pl3     1 UNK         0.0000 
     12 S12        -1.9358   52.2078   23.5646 S.o2      1 UNK         0.0000 
     13 O13        -2.0955   52.0971   22.1095 O.2       1 UNK         0.0000 
     14 O14        -2.8955   52.9556   24.3835 O.2       1 UNK         0.0000 
     15 C15        -1.8658   50.5263   24.2451 C.ar      1 UNK         0.0000 
     16 C16        -2.0334   49.3267   23.5354 C.ar      1 UNK         0.0000 
     17 C17        -1.9859   48.2646   24.4335 C.ar      1 UNK         0.0000 
     18 N18        -1.7556   48.7975   25.6813 N.pl3     1 UNK         0.0000 
     19 H19        -1.6820   48.2753   26.5573 H         1 UNK         0.0000 
     20 C20        -1.6716   50.1644   25.5750 C.ar      1 UNK         0.0000 
     21 C21        -2.1424   46.8145   24.2706 C.2       1 UNK         0.0000 
     22 O22        -2.2409   46.3816   23.1012 O.co2     1 UNK         0.0000 
     23 O23        -2.1832   46.0990   25.2960 O.co2     1 UNK         0.0000 
     24 H24         1.8232   51.2903   21.6966 H         1 UNK         0.0000 
     25 H25         0.1225   51.0026   21.8200 H         1 UNK         0.0000 
     26 H26         0.6959   52.6131   21.3631 H         1 UNK         0.0000 
     27 H27         3.0355   53.1785   21.9346 H         1 UNK         0.0000 
     28 H28         5.0223   54.3696   22.6895 H         1 UNK         0.0000 
     29 H29         3.5543   54.3350   26.7194 H         1 UNK         0.0000 
     30 H30         1.5708   53.0822   25.9902 H         1 UNK         0.0000 
     31 H31        -0.2669   53.2290   24.8897 H         1 UNK         0.0000 
     32 H32        -2.2082   49.2419   22.4718 H         1 UNK         0.0000 
     33 H33        -1.5159   50.7575   26.4626 H         1 UNK         0.0000 
@<TRIPOS>BOND
     1    1    2 1    
     2    1   24 1    
     3    1   25 1    
     4    1   26 1    
     5    2    3 1    
     6    2    4 1    
     7    2   11 1    
     8    4    9 ar   
     9    4    5 ar   
    10    5    6 ar   
    11    5   27 1    
    12    6    7 ar   
    13    6   28 1    
    14    7    8 ar   
    15    7   10 1    
    16    8    9 ar   
    17    8   29 1    
    18    9   30 1    
    19   11   12 1    
    20   11   31 1    
    21   12   13 2    
    22   12   14 2    
    23   12   15 1    
    24   15   20 ar   
    25   15   16 ar   
    26   16   17 ar   
    27   16   32 1    
    28   17   18 ar   
    29   17   21 1    
    30   18   19 1    
    31   18   20 ar   
    32   20   33 1    
    33   21   22 2    
    34   21   23 1    
@<TRIPOS>SUBSTRUCTURE
     1 UNK         1 GROUP             0       ****    0 ROOT    
