ZINC35744269_3983
                    3D
 Schrodinger Suite 2024-2.
 71 74  0  0  1  0            999 V2000
    4.1651   53.9223   24.9729 C   0  0  0  0  0  0
    4.2986   54.8929   26.1559 C   0  0  0  0  0  0
    4.2621   54.2641   27.5666 C   0  0  2  0  0  0
    4.3178   55.1022   28.2670 H   0  0  0  0  0  0
    5.4939   53.3786   27.8348 C   0  0  0  0  0  0
    2.9974   53.5635   27.8259 N   0  0  0  0  0  0
    2.5114   53.2666   29.0472 C   0  0  0  0  0  0
    3.1049   53.5772   30.0806 O   0  0  0  0  0  0
    1.1666   52.5225   29.1941 C   0  0  0  0  0  0
    0.4067   52.3629   27.9364 N   0  0  0  0  0  0
   -0.8957   52.9194   27.7914 C   0  0  0  0  0  0
   -1.4737   52.4957   26.5211 N   0  0  0  0  0  0
   -0.6245   51.3966   26.0639 C   0  0  0  0  0  0
    0.5255   51.3156   27.1173 C   0  0  0  0  0  0
    1.3115   50.4037   27.2817 O   0  0  0  0  0  0
   -1.3782   50.0287   25.9029 C   0  0  0  0  0  0
   -0.5731   48.8729   25.2711 C   0  0  0  0  0  0
   -0.0835   49.3583   23.9643 N   0  0  0  0  0  0
    0.7777   50.5539   24.0489 C   0  0  0  0  0  0
   -0.0428   51.7113   24.6527 C   0  0  0  0  0  0
   -0.5401   48.8190   22.8004 C   0  0  0  0  0  0
   -1.4201   47.9548   22.7785 O   0  0  0  0  0  0
    0.1272   49.2224   21.6927 N   0  0  0  0  0  0
    0.2915   48.5284   20.4801 C   0  0  0  0  0  0
   -0.6450   47.6232   19.9591 C   0  0  0  0  0  0
   -0.3602   46.9269   18.7875 C   0  0  0  0  0  0
    0.8452   47.1402   18.1221 C   0  0  0  0  0  0
    1.7638   48.0693   18.6158 C   0  0  0  0  0  0
    1.4843   48.7622   19.7903 C   0  0  0  0  0  0
    1.1786   46.1963   16.6601 S   0  0  0  0  0  0
    2.6369   46.8969   15.8385 C   0  0  0  0  0  0
   -2.8447   52.5821   26.2193 C   0  0  0  0  0  0
   -3.7908   52.0064   27.0778 C   0  0  0  0  0  0
   -5.1421   51.9894   26.7425 C   0  0  0  0  0  0
   -5.5519   52.5212   25.5237 C   0  0  0  0  0  0
   -4.6182   53.0424   24.6338 C   0  0  0  0  0  0
   -3.2679   53.0428   24.9687 C   0  0  0  0  0  0
    4.0717   54.4674   24.0335 H   0  0  0  0  0  0
    5.0510   53.2966   24.8915 H   0  0  0  0  0  0
    3.2929   53.2755   25.0676 H   0  0  0  0  0  0
    3.5064   55.6334   26.0821 H   0  0  0  0  0  0
    5.2197   55.4657   26.0406 H   0  0  0  0  0  0
    6.4152   53.9203   27.6194 H   0  0  0  0  0  0
    5.5503   53.0623   28.8759 H   0  0  0  0  0  0
    5.4973   52.4969   27.1986 H   0  0  0  0  0  0
    2.4573   53.2888   27.0198 H   0  0  0  0  0  0
    0.5597   53.1041   29.8892 H   0  0  0  0  0  0
    1.3352   51.5545   29.6689 H   0  0  0  0  0  0
   -0.8948   54.0007   27.9280 H   0  0  0  0  0  0
   -1.4677   52.4890   28.6164 H   0  0  0  0  0  0
   -1.7148   49.6989   26.8817 H   0  0  0  0  0  0
   -2.3469   50.1535   25.4201 H   0  0  0  0  0  0
    0.2964   48.6311   25.8828 H   0  0  0  0  0  0
   -1.1465   47.9469   25.2061 H   0  0  0  0  0  0
    1.5092   50.2523   24.7793 H   0  0  0  0  0  0
    1.3689   50.7922   23.1648 H   0  0  0  0  0  0
   -0.7909   52.1147   23.9721 H   0  0  0  0  0  0
    0.6149   52.5786   24.7394 H   0  0  0  0  0  0
    0.8050   49.9529   21.8400 H   0  0  0  0  0  0
   -1.5894   47.4393   20.4487 H   0  0  0  0  0  0
   -1.0775   46.2186   18.3997 H   0  0  0  0  0  0
    2.7000   48.2581   18.1124 H   0  0  0  0  0  0
    2.2172   49.4612   20.1680 H   0  0  0  0  0  0
    2.8760   46.3248   14.9430 H   0  0  0  0  0  0
    2.4451   47.9286   15.5432 H   0  0  0  0  0  0
    3.5035   46.8763   16.4980 H   0  0  0  0  0  0
   -3.4783   51.5593   28.0101 H   0  0  0  0  0  0
   -5.8639   51.5543   27.4186 H   0  0  0  0  0  0
   -6.5987   52.5107   25.2550 H   0  0  0  0  0  0
   -4.9399   53.4338   23.6821 H   0  0  0  0  0  0
   -2.5537   53.4387   24.2633 H   0  0  0  0  0  0
  1  2  1  0  0  0
  1 38  1  0  0  0
  1 39  1  0  0  0
  1 40  1  0  0  0
  2  3  1  0  0  0
  2 41  1  0  0  0
  2 42  1  0  0  0
  3  4  1  0  0  0
  3  5  1  0  0  0
  3  6  1  0  0  0
  5 43  1  0  0  0
  5 44  1  0  0  0
  5 45  1  0  0  0
  6  7  1  0  0  0
  6 46  1  0  0  0
  7  8  2  0  0  0
  7  9  1  0  0  0
  9 10  1  0  0  0
  9 47  1  0  0  0
  9 48  1  0  0  0
 10 14  1  0  0  0
 10 11  1  0  0  0
 11 12  1  0  0  0
 11 49  1  0  0  0
 11 50  1  0  0  0
 12 13  1  0  0  0
 12 32  1  0  0  0
 13 20  1  0  0  0
 13 14  1  0  0  0
 13 16  1  0  0  0
 14 15  2  0  0  0
 16 17  1  0  0  0
 16 51  1  0  0  0
 16 52  1  0  0  0
 17 18  1  0  0  0
 17 53  1  0  0  0
 17 54  1  0  0  0
 18 19  1  0  0  0
 18 21  1  0  0  0
 19 20  1  0  0  0
 19 55  1  0  0  0
 19 56  1  0  0  0
 20 57  1  0  0  0
 20 58  1  0  0  0
 21 22  2  0  0  0
 21 23  1  0  0  0
 23 24  1  0  0  0
 23 59  1  0  0  0
 24 29  2  0  0  0
 24 25  1  0  0  0
 25 26  2  0  0  0
 25 60  1  0  0  0
 26 27  1  0  0  0
 26 61  1  0  0  0
 27 28  2  0  0  0
 27 30  1  0  0  0
 28 29  1  0  0  0
 28 62  1  0  0  0
 29 63  1  0  0  0
 30 31  1  0  0  0
 31 64  1  0  0  0
 31 65  1  0  0  0
 31 66  1  0  0  0
 32 37  2  0  0  0
 32 33  1  0  0  0
 33 34  2  0  0  0
 33 67  1  0  0  0
 34 35  1  0  0  0
 34 68  1  0  0  0
 35 36  2  0  0  0
 35 69  1  0  0  0
 36 37  1  0  0  0
 36 70  1  0  0  0
 37 71  1  0  0  0
M  END
> <i_i_glide_confnum>
458

> <i_i_glide_lignum>
3984

> <i_i_glide_posenum>
16

> <i_i_glide_rotatable_bonds>
10

> <i_m_Source_File_Index>
2699

> <b_m_subgroup_collapsed>
0

> <r_i_docking_score>
-3.80923

> <r_i_glide_ecoul>
-5.43323

> <r_i_glide_eff_state_penalty>
0

> <r_i_glide_einternal>
13.0126

> <r_i_glide_emodel>
-35.8645

> <r_i_glide_energy>
-34.504

> <r_i_glide_erotb>
0.630784

> <r_i_glide_esite>
-0.0420964

> <r_i_glide_evdw>
-29.0707

> <r_i_glide_gscore>
-3.80923

> <r_i_glide_hbond>
-0.32

> <r_i_glide_ligand_efficiency>
-0.105812

> <r_i_glide_ligand_efficiency_ln>
-0.83107

> <r_i_glide_ligand_efficiency_sa>
-0.349383

> <r_i_glide_lipo>
-1.5044

> <r_i_glide_metal>
0

> <r_i_glide_rewards>
-0.304991

> <s_i_glide_gridfile>
wee1_glide-grid

> <s_m_Source_File>
wee1_decoys_glide_SP.sdf

> <s_m_Source_Path>
/Users/zhangxujun/Desktop

> <s_m_entry_id>
2974

> <s_m_entry_name>
wee1_decoys_glide_SP.2699

> <s_m_subgroup_title>
wee1_decoys_glide_SP

> <s_m_subgroupid>
wee1_decoys_glide_SP


$$$$
