@<TRIPOS>MOLECULE
ZINC39695722_5566
65   69    1
SMALL
USER_CHARGES


@<TRIPOS>ATOM
      1 C1          8.8957   55.8559   18.8471 C.3       1 UNK         0.0000 
      2 C2          7.6723   55.2972   19.5494 C.ar      1 UNK         0.0000 
      3 C3          7.4060   55.6766   20.8693 C.ar      1 UNK         0.0000 
      4 C4          6.3044   55.1748   21.5616 C.ar      1 UNK         0.0000 
      5 C5          5.4676   54.2633   20.9017 C.ar      1 UNK         0.0000 
      6 C6          5.7630   53.8662   19.5732 C.ar      1 UNK         0.0000 
      7 C7          6.8483   54.3918   18.8658 C.ar      1 UNK         0.0000 
      8 N8          4.8073   52.9103   19.2959 N.pl3     1 UNK         0.0000 
      9 C9          3.9611   52.8483   20.3789 C.ar      1 UNK         0.0000 
     10 N10         4.3467   53.6315   21.3646 N.2       1 UNK         0.0000 
     11 C11         2.6832   52.0057   20.3671 C.3       1 UNK         0.0000 
     12 H12         2.0888   52.3571   19.5191 H         1 UNK         0.0000 
     13 C13         2.9589   50.4971   20.2015 C.3       1 UNK         0.0000 
     14 N14         1.8999   52.2900   21.5676 N.am      1 UNK         0.0000 
     15 C15         0.6180   51.9744   21.7928 C.2       1 UNK         0.0000 
     16 O16        -0.0731   51.3331   21.0015 O.2       1 UNK         0.0000 
     17 C17        -0.0030   52.4634   23.1191 C.3       1 UNK         0.0000 
     18 H18        -1.0379   52.6876   22.8540 H         1 UNK         0.0000 
     19 C19         0.6264   53.7618   23.6817 C.3       1 UNK         0.0000 
     20 N20         1.4876   53.2978   24.7734 N.am      1 UNK         0.0000 
     21 C21         1.3286   51.8596   25.0093 C.3       1 UNK         0.0000 
     22 C22         0.0485   51.4185   24.2726 C.3       1 UNK         0.0000 
     23 C23         0.0500   49.9057   23.8931 C.3       1 UNK         0.0000 
     24 C24         0.1914   48.9976   25.1371 C.3       1 UNK         0.0000 
     25 N25        -0.9928   49.2968   26.0815 N.4       1 UNK         0.0000 
     26 C26        -1.1541   50.7826   26.4601 C.3       1 UNK         0.0000 
     27 C27        -1.2200   51.6021   25.1580 C.3       1 UNK         0.0000 
     28 C28         2.6520   53.9177   25.0878 C.2       1 UNK         0.0000 
     29 O29         3.2050   54.7007   24.3167 O.2       1 UNK         0.0000 
     30 C30         3.2249   53.6968   26.4766 C.ar      1 UNK         0.0000 
     31 C31         4.5887   53.9224   26.7236 C.ar      1 UNK         0.0000 
     32 C32         5.1258   53.7201   27.9966 C.ar      1 UNK         0.0000 
     33 C33         4.3026   53.2973   29.0401 C.ar      1 UNK         0.0000 
     34 C34         2.9448   53.0957   28.8215 C.ar      1 UNK         0.0000 
     35 C35         2.4068   53.3124   27.5553 C.ar      1 UNK         0.0000 
     36 Br36        1.8266   52.5196   30.2516 Br        1 UNK         0.0000 
     37 H37         8.6593   56.1063   17.8113 H         1 UNK         0.0000 
     38 H38         9.2570   56.7705   19.3226 H         1 UNK         0.0000 
     39 H39         9.6995   55.1190   18.8455 H         1 UNK         0.0000 
     40 H40         8.0821   56.3453   21.3825 H         1 UNK         0.0000 
     41 H41         6.1186   55.4500   22.5883 H         1 UNK         0.0000 
     42 H42         7.0699   54.0787   17.8565 H         1 UNK         0.0000 
     43 H43         3.5044   50.2893   19.2822 H         1 UNK         0.0000 
     44 H44         3.5332   50.0999   21.0377 H         1 UNK         0.0000 
     45 H45         2.0332   49.9243   20.1466 H         1 UNK         0.0000 
     46 H46         2.3593   52.9081   22.2230 H         1 UNK         0.0000 
     47 H47         1.1062   54.3323   22.8817 H         1 UNK         0.0000 
     48 H48        -0.2319   54.2993   24.0813 H         1 UNK         0.0000 
     49 H49         1.4928   51.5016   26.0237 H         1 UNK         0.0000 
     50 H50         2.1523   51.3931   24.4672 H         1 UNK         0.0000 
     51 H51        -0.8325   49.6443   23.3065 H         1 UNK         0.0000 
     52 H52         0.9008   49.6828   23.2453 H         1 UNK         0.0000 
     53 H53         0.1302   47.9365   24.8940 H         1 UNK         0.0000 
     54 H54         1.1032   49.1660   25.7118 H         1 UNK         0.0000 
     55 H55        -1.8467   48.9816   25.6437 H         1 UNK         0.0000 
     56 H56        -2.0758   50.8406   27.0438 H         1 UNK         0.0000 
     57 H57        -0.3184   51.0342   27.1136 H         1 UNK         0.0000 
     58 H58        -1.3136   52.6494   25.4541 H         1 UNK         0.0000 
     59 H59        -2.1306   51.3827   24.5966 H         1 UNK         0.0000 
     60 H60         5.2467   54.2390   25.9250 H         1 UNK         0.0000 
     61 H61         6.1792   53.8835   28.1723 H         1 UNK         0.0000 
     62 H62         4.7044   53.1236   30.0244 H         1 UNK         0.0000 
     63 H63         1.3419   53.1800   27.4273 H         1 UNK         0.0000 
     64 H64        -0.9423   48.7693   26.9663 H         1 UNK         0.0000 
     65 H65         4.7091   52.3164   18.4788 H         1 UNK         0.0000 
@<TRIPOS>BOND
     1    1    2 1    
     2    1   37 1    
     3    1   38 1    
     4    1   39 1    
     5    2    7 ar   
     6    2    3 ar   
     7    3    4 ar   
     8    3   40 1    
     9    4    5 ar   
    10    4   41 1    
    11    5   10 ar   
    12    5    6 ar   
    13    6    7 ar   
    14    6    8 ar   
    15    7   42 1    
    16    8    9 ar   
    17    8   65 1    
    18    9   10 ar   
    19    9   11 1    
    20   11   12 1    
    21   11   13 1    
    22   11   14 1    
    23   13   43 1    
    24   13   44 1    
    25   13   45 1    
    26   14   15 am   BACKBONE|DICT|INTERRES
    27   14   46 1    
    28   15   16 2    
    29   15   17 1    
    30   17   18 1    
    31   17   22 1    
    32   17   19 1    
    33   19   20 1    
    34   19   47 1    
    35   19   48 1    
    36   20   21 1    
    37   20   28 am   BACKBONE|DICT|INTERRES
    38   21   22 1    
    39   21   49 1    
    40   21   50 1    
    41   22   27 1    
    42   22   23 1    
    43   23   24 1    
    44   23   51 1    
    45   23   52 1    
    46   24   25 1    
    47   24   53 1    
    48   24   54 1    
    49   25   26 1    
    50   25   55 1    
    51   25   64 1    
    52   26   27 1    
    53   26   56 1    
    54   26   57 1    
    55   27   58 1    
    56   27   59 1    
    57   28   29 2    
    58   28   30 1    
    59   30   35 ar   
    60   30   31 ar   
    61   31   32 ar   
    62   31   60 1    
    63   32   33 ar   
    64   32   61 1    
    65   33   34 ar   
    66   33   62 1    
    67   34   35 ar   
    68   34   36 1    
    69   35   63 1    
@<TRIPOS>SUBSTRUCTURE
     1 UNK         1 GROUP             0       ****    0 ROOT    
