@<TRIPOS>MOLECULE
ZINC00729089_313
73   76    1
SMALL
USER_CHARGES


@<TRIPOS>ATOM
      1 C1         -3.4568   46.6697   23.1290 C.3       1 UNK         0.0000 
      2 C2         -2.3807   47.7306   23.2611 C.ar      1 UNK         0.0000 
      3 C3         -2.2092   48.4191   24.4630 C.ar      1 UNK         0.0000 
      4 C4         -1.2287   49.4024   24.5699 C.ar      1 UNK         0.0000 
      5 C5         -0.4124   49.7156   23.4794 C.ar      1 UNK         0.0000 
      6 C6         -0.5511   48.9942   22.2731 C.ar      1 UNK         0.0000 
      7 C7         -1.5489   48.0174   22.1766 C.ar      1 UNK         0.0000 
      8 C8          0.3924   49.1663   21.0886 C.3       1 UNK         0.0000 
      9 N9          0.5565   50.7015   23.7118 N.am      1 UNK         0.0000 
     10 C10         0.8131   51.7988   22.9686 C.2       1 UNK         0.0000 
     11 O11         0.2444   52.0926   21.9147 O.2       1 UNK         0.0000 
     12 C12         1.9047   52.6005   23.4895 C.2       1 UNK         0.0000 
     13 C13         2.1143   52.9009   24.8664 C.2       1 UNK         0.0000 
     14 C14         3.2483   53.7046   25.0644 C.2       1 UNK         0.0000 
     15 S15         4.0557   54.0967   23.5920 S.3       1 UNK         0.0000 
     16 C16         2.8650   53.2296   22.6755 C.2       1 UNK         0.0000 
     17 N17         2.9116   53.2637   21.2899 N.am      1 UNK         0.0000 
     18 C18         4.0006   53.0764   20.5191 C.2       1 UNK         0.0000 
     19 O19         5.1025   52.7296   20.9475 O.2       1 UNK         0.0000 
     20 C20         3.7549   53.3368   19.0211 C.3       1 UNK         0.0000 
     21 C21         6.2129   53.7030   18.2240 C.3       1 UNK         0.0000 
     22 C22         6.0810   55.2079   18.0393 C.ar      1 UNK         0.0000 
     23 C23         5.7442   55.7599   16.7973 C.ar      1 UNK         0.0000 
     24 C24         5.6754   57.1480   16.6543 C.ar      1 UNK         0.0000 
     25 C25         5.9656   57.9486   17.7600 C.ar      1 UNK         0.0000 
     26 N26         6.3047   57.4340   18.9709 N.ar      1 UNK         0.0000 
     27 C27         6.3505   56.0827   19.0981 C.ar      1 UNK         0.0000 
     28 C28         3.7313   54.2484   26.3984 C.3       1 UNK         0.0000 
     29 C29         3.0672   53.4639   27.5627 C.3       1 UNK         0.0000 
     30 H30         3.4603   52.4468   27.5613 H         1 UNK         0.0000 
     31 C31         1.5454   53.3544   27.2838 C.3       1 UNK         0.0000 
     32 C32         1.2161   52.4971   26.0463 C.3       1 UNK         0.0000 
     33 C33         3.3852   54.0585   28.9900 C.3       1 UNK         0.0000 
     34 C34         2.4938   55.2871   29.3275 C.3       1 UNK         0.0000 
     35 C35         4.8694   54.4967   29.0961 C.3       1 UNK         0.0000 
     36 C36         3.1545   52.9619   30.0617 C.3       1 UNK         0.0000 
     37 H37        -4.0777   46.5983   24.0243 H         1 UNK         0.0000 
     38 H38        -3.0030   45.6976   22.9323 H         1 UNK         0.0000 
     39 H39        -4.1079   46.9033   22.2849 H         1 UNK         0.0000 
     40 H40        -2.8280   48.1980   25.3213 H         1 UNK         0.0000 
     41 H41        -1.1127   49.9185   25.5130 H         1 UNK         0.0000 
     42 H42        -1.6681   47.4634   21.2565 H         1 UNK         0.0000 
     43 H43         1.3957   49.4391   21.4169 H         1 UNK         0.0000 
     44 H44         0.5026   48.2342   20.5353 H         1 UNK         0.0000 
     45 H45         0.0206   49.9282   20.4035 H         1 UNK         0.0000 
     46 H46         1.0439   50.6211   24.5900 H         1 UNK         0.0000 
     47 H47         2.0293   53.4385   20.8247 H         1 UNK         0.0000 
     48 H48         2.9038   52.7563   18.6616 H         1 UNK         0.0000 
     49 H49         3.5876   54.3947   18.8127 H         1 UNK         0.0000 
     50 H50         6.6750   53.4449   19.1761 H         1 UNK         0.0000 
     51 H51         6.8289   53.2655   17.4362 H         1 UNK         0.0000 
     52 H52         5.5392   55.1268   15.9463 H         1 UNK         0.0000 
     53 H53         5.4111   57.5957   15.7065 H         1 UNK         0.0000 
     54 H54         5.9216   59.0285   17.6870 H         1 UNK         0.0000 
     55 H55         6.6228   55.7073   20.0749 H         1 UNK         0.0000 
     56 H56         4.8169   54.1597   26.4464 H         1 UNK         0.0000 
     57 H57         3.4876   55.3053   26.4699 H         1 UNK         0.0000 
     58 H58         1.0459   52.8898   28.1353 H         1 UNK         0.0000 
     59 H59         1.1045   54.3482   27.2195 H         1 UNK         0.0000 
     60 H60         0.1606   52.6146   25.7976 H         1 UNK         0.0000 
     61 H61         1.3472   51.4464   26.2984 H         1 UNK         0.0000 
     62 H62         1.4333   55.0369   29.3481 H         1 UNK         0.0000 
     63 H63         2.7042   55.6962   30.3126 H         1 UNK         0.0000 
     64 H64         2.6230   56.0957   28.6074 H         1 UNK         0.0000 
     65 H65         5.5490   53.6691   28.8872 H         1 UNK         0.0000 
     66 H66         5.1181   55.2967   28.4006 H         1 UNK         0.0000 
     67 H67         5.1084   54.8873   30.0841 H         1 UNK         0.0000 
     68 H68         3.6685   52.0340   29.8058 H         1 UNK         0.0000 
     69 H69         3.5415   53.2609   31.0342 H         1 UNK         0.0000 
     70 H70         2.0977   52.7248   30.1891 H         1 UNK         0.0000 
     71 N71         4.8970   52.8967   18.1518 N.4       1 UNK         0.0000 
     72 H72         5.1043   51.8968   18.2916 H         1 UNK         0.0000 
     73 H73         4.5944   52.9491   17.1899 H         1 UNK         0.0000 
@<TRIPOS>BOND
     1    1    2 1    
     2    1   37 1    
     3    1   38 1    
     4    1   39 1    
     5    2    7 ar   
     6    2    3 ar   
     7    3    4 ar   
     8    3   40 1    
     9    4    5 ar   
    10    4   41 1    
    11    5    6 ar   
    12    5    9 1    
    13    6    7 ar   
    14    6    8 1    
    15    7   42 1    
    16    8   43 1    
    17    8   44 1    
    18    8   45 1    
    19    9   10 am   BACKBONE|DICT|INTERRES
    20    9   46 1    
    21   10   11 2    
    22   10   12 1    
    23   12   16 2    
    24   12   13 1    
    25   13   32 1    
    26   13   14 2    
    27   14   15 1    
    28   14   28 1    
    29   15   16 1    
    30   16   17 am   BACKBONE|DICT|INTERRES
    31   17   18 am   BACKBONE|DICT|INTERRES
    32   17   47 1    
    33   18   19 2    
    34   18   20 1    
    35   20   48 1    
    36   20   49 1    
    37   20   71 1    
    38   21   22 1    
    39   21   50 1    
    40   21   51 1    
    41   21   71 1    
    42   22   27 ar   
    43   22   23 ar   
    44   23   24 ar   
    45   23   52 1    
    46   24   25 ar   
    47   24   53 1    
    48   25   26 ar   
    49   25   54 1    
    50   26   27 ar   
    51   27   55 1    
    52   28   29 1    
    53   28   56 1    
    54   28   57 1    
    55   29   30 1    
    56   29   31 1    
    57   29   33 1    
    58   31   32 1    
    59   31   58 1    
    60   31   59 1    
    61   32   60 1    
    62   32   61 1    
    63   33   34 1    
    64   33   35 1    
    65   33   36 1    
    66   34   62 1    
    67   34   63 1    
    68   34   64 1    
    69   35   65 1    
    70   35   66 1    
    71   35   67 1    
    72   36   68 1    
    73   36   69 1    
    74   36   70 1    
    75   71   72 1    
    76   71   73 1    
@<TRIPOS>SUBSTRUCTURE
     1 UNK         1 GROUP             0       ****    0 ROOT    
