@<TRIPOS>MOLECULE
ZINC10316680_2699
55   58    1
SMALL
USER_CHARGES


@<TRIPOS>ATOM
      1 C1          0.6994   54.0882   30.7887 C.ar      1 UNK         0.0000 
      2 C2         -0.0953   52.9493   30.7022 C.ar      1 UNK         0.0000 
      3 C3         -0.1816   52.2301   29.5100 C.ar      1 UNK         0.0000 
      4 C4          0.5683   52.6417   28.4141 C.ar      1 UNK         0.0000 
      5 C5          1.4067   53.7447   28.5203 C.ar      1 UNK         0.0000 
      6 C6          1.4698   54.4885   29.7013 C.ar      1 UNK         0.0000 
      7 C7          2.2761   54.0965   27.3450 C.ar      1 UNK         0.0000 
      8 O8          3.1039   54.9998   27.4407 O.2       1 UNK         0.0000 
      9 N9          2.0522   53.3291   26.2078 N.pl3     1 UNK         0.0000 
     10 C10         1.1271   52.2651   26.1774 C.ar      1 UNK         0.0000 
     11 N11         0.4557   51.9350   27.2228 N.2       1 UNK         0.0000 
     12 S12         0.8568   51.2128   24.6989 S.3       1 UNK         0.0000 
     13 C13        -0.3881   49.9864   25.2424 C.3       1 UNK         0.0000 
     14 C14        -1.8000   50.5588   25.4040 C.2       1 UNK         0.0000 
     15 O15        -2.2381   51.3669   24.5791 O.2       1 UNK         0.0000 
     16 N16        -2.4675   50.0974   26.4822 N.am      1 UNK         0.0000 
     17 C17        -3.6266   50.5457   27.0047 C.2       1 UNK         0.0000 
     18 O18        -4.3574   51.4240   26.5412 O.2       1 UNK         0.0000 
     19 N19        -3.9030   49.8624   28.1268 N.am      1 UNK         0.0000 
     20 C20        -5.1403   49.9128   28.9064 C.3       1 UNK         0.0000 
     21 C21        -5.3535   48.6315   29.7464 C.3       1 UNK         0.0000 
     22 C22        -6.6298   48.6561   30.6057 C.3       1 UNK         0.0000 
     23 C23        -6.7270   49.9297   31.4644 C.3       1 UNK         0.0000 
     24 C24        -6.6207   51.1944   30.5951 C.3       1 UNK         0.0000 
     25 C25        -5.3365   51.2067   29.7435 C.3       1 UNK         0.0000 
     26 C26         2.8007   53.6993   25.0292 C.ar      1 UNK         0.0000 
     27 C27         2.1272   53.9013   23.8088 C.ar      1 UNK         0.0000 
     28 C28         2.8297   54.0942   22.6213 C.ar      1 UNK         0.0000 
     29 C29         4.2161   54.1822   22.6307 C.ar      1 UNK         0.0000 
     30 C30         4.9014   54.0964   23.8372 C.ar      1 UNK         0.0000 
     31 C31         4.2118   53.8411   25.0227 C.ar      1 UNK         0.0000 
     32 F32         4.9539   53.6943   26.1449 F         1 UNK         0.0000 
     33 H33         0.7052   54.6597   31.7061 H         1 UNK         0.0000 
     34 H34        -0.6541   52.6399   31.5646 H         1 UNK         0.0000 
     35 H35        -0.8208   51.3613   29.4367 H         1 UNK         0.0000 
     36 H36         2.0961   55.3642   29.7815 H         1 UNK         0.0000 
     37 H37        -0.0482   49.5271   26.1706 H         1 UNK         0.0000 
     38 H38        -0.4245   49.1904   24.5037 H         1 UNK         0.0000 
     39 H39        -1.9924   49.3957   27.0460 H         1 UNK         0.0000 
     40 H40        -3.1542   49.2989   28.5233 H         1 UNK         0.0000 
     41 H41        -5.9575   49.9110   28.1799 H         1 UNK         0.0000 
     42 H42        -4.5007   48.5096   30.4200 H         1 UNK         0.0000 
     43 H43        -5.3697   47.7540   29.0981 H         1 UNK         0.0000 
     44 H44        -6.6625   47.7728   31.2441 H         1 UNK         0.0000 
     45 H45        -7.5074   48.5911   29.9568 H         1 UNK         0.0000 
     46 H46        -5.9332   49.9267   32.2134 H         1 UNK         0.0000 
     47 H47        -7.6699   49.9341   32.0152 H         1 UNK         0.0000 
     48 H48        -6.6566   52.0816   31.2284 H         1 UNK         0.0000 
     49 H49        -7.4906   51.2562   29.9399 H         1 UNK         0.0000 
     50 H50        -5.3335   52.0952   29.1080 H         1 UNK         0.0000 
     51 H51        -4.4911   51.2980   30.4268 H         1 UNK         0.0000 
     52 H52         1.0505   53.8461   23.7601 H         1 UNK         0.0000 
     53 H53         2.3015   54.1431   21.6824 H         1 UNK         0.0000 
     54 H54         4.7537   54.3324   21.7031 H         1 UNK         0.0000 
     55 H55         5.9799   54.1673   23.8485 H         1 UNK         0.0000 
@<TRIPOS>BOND
     1    1    6 ar   
     2    1    2 ar   
     3    1   33 1    
     4    2    3 ar   
     5    2   34 1    
     6    3    4 ar   
     7    3   35 1    
     8    4   11 ar   
     9    4    5 ar   
    10    5    6 ar   
    11    5    7 ar   
    12    6   36 1    
    13    7    8 2    
    14    7    9 ar   
    15    9   10 ar   
    16    9   26 1    
    17   10   11 ar   
    18   10   12 1    
    19   12   13 1    
    20   13   14 1    
    21   13   37 1    
    22   13   38 1    
    23   14   15 2    
    24   14   16 am   BACKBONE|DICT|INTERRES
    25   16   17 am   BACKBONE|DICT|INTERRES
    26   16   39 1    
    27   17   18 2    
    28   17   19 am   BACKBONE|DICT|INTERRES
    29   19   20 1    
    30   19   40 1    
    31   20   25 1    
    32   20   21 1    
    33   20   41 1    
    34   21   22 1    
    35   21   42 1    
    36   21   43 1    
    37   22   23 1    
    38   22   44 1    
    39   22   45 1    
    40   23   24 1    
    41   23   46 1    
    42   23   47 1    
    43   24   25 1    
    44   24   48 1    
    45   24   49 1    
    46   25   50 1    
    47   25   51 1    
    48   26   31 ar   
    49   26   27 ar   
    50   27   28 ar   
    51   27   52 1    
    52   28   29 ar   
    53   28   53 1    
    54   29   30 ar   
    55   29   54 1    
    56   30   31 ar   
    57   30   55 1    
    58   31   32 1    
@<TRIPOS>SUBSTRUCTURE
     1 UNK         1 GROUP             0       ****    0 ROOT    
