@<TRIPOS>MOLECULE
ZINC58867744_3641
53   56    1
SMALL
USER_CHARGES


@<TRIPOS>ATOM
      1 C1          2.9972   53.8687   28.8780 C.ar      1 UNK         0.0000 
      2 C2          2.5917   53.8069   27.5488 C.ar      1 UNK         0.0000 
      3 C3          3.5014   54.0967   26.5353 C.ar      1 UNK         0.0000 
      4 C4          4.8278   54.4498   26.8425 C.ar      1 UNK         0.0000 
      5 C5          5.2191   54.4968   28.1891 C.ar      1 UNK         0.0000 
      6 C6          4.3060   54.2151   29.2013 C.ar      1 UNK         0.0000 
      7 C7          5.8360   54.7796   25.7587 C.2       1 UNK         0.0000 
      8 O8          7.0179   55.0287   26.0298 O.2       1 UNK         0.0000 
      9 N9          5.3200   54.8967   24.4737 N.am      1 UNK         0.0000 
     10 C10         5.9226   54.4050   23.4593 C.2       1 UNK         0.0000 
     11 C11         5.2354   54.5918   22.0917 C.3       1 UNK         0.0000 
     12 H12         4.3608   55.2366   22.1864 H         1 UNK         0.0000 
     13 C13         4.7622   53.3005   21.4295 C.3       1 UNK         0.0000 
     14 H14         5.4689   52.4869   21.6154 H         1 UNK         0.0000 
     15 N15         4.8272   53.6578   20.0363 N.3       1 UNK         0.0000 
     16 N16         5.9498   54.4931   19.9088 N.am      1 UNK         0.0000 
     17 C17         6.0645   55.2960   21.0010 C.2       1 UNK         0.0000 
     18 O18         6.7037   56.3402   21.1483 O.2       1 UNK         0.0000 
     19 C19         6.7907   54.4238   18.7597 C.ar      1 UNK         0.0000 
     20 C20         6.4355   53.5980   17.6775 C.ar      1 UNK         0.0000 
     21 C21         7.2742   53.4658   16.5763 C.ar      1 UNK         0.0000 
     22 C22         8.4784   54.1600   16.5371 C.ar      1 UNK         0.0000 
     23 C23         8.8505   54.9861   17.5926 C.ar      1 UNK         0.0000 
     24 C24         8.0136   55.1188   18.6959 C.ar      1 UNK         0.0000 
     25 C25         3.3572   52.8510   21.8616 C.3       1 UNK         0.0000 
     26 S26         2.8855   51.1981   21.2814 S.3       1 UNK         0.0000 
     27 C27         1.2046   50.8920   21.7506 C.ar      1 UNK         0.0000 
     28 C28         0.6082   49.7011   21.3349 C.ar      1 UNK         0.0000 
     29 C29        -0.7167   49.4330   21.6732 C.ar      1 UNK         0.0000 
     30 C30        -1.4392   50.3579   22.4260 C.ar      1 UNK         0.0000 
     31 C31        -0.8447   51.5457   22.8493 C.ar      1 UNK         0.0000 
     32 C32         0.4804   51.8145   22.5126 C.ar      1 UNK         0.0000 
     33 Cl33       -3.0847   50.0314   22.8351 Cl        1 UNK         0.0000 
     34 N34         7.1044   53.6986   23.3984 N.pl3     1 UNK         0.0000 
     35 H35         2.2886   53.6456   29.6625 H         1 UNK         0.0000 
     36 H36         1.5752   53.5334   27.3047 H         1 UNK         0.0000 
     37 H37         3.1602   54.0394   25.5111 H         1 UNK         0.0000 
     38 H38         6.2305   54.7652   28.4657 H         1 UNK         0.0000 
     39 H39         4.6156   54.2680   30.2326 H         1 UNK         0.0000 
     40 H40         5.0222   52.8311   19.4836 H         1 UNK         0.0000 
     41 H41         5.5136   53.0324   17.6714 H         1 UNK         0.0000 
     42 H42         6.9916   52.8200   15.7578 H         1 UNK         0.0000 
     43 H43         9.1295   54.0534   15.6828 H         1 UNK         0.0000 
     44 H44         9.7910   55.5166   17.5594 H         1 UNK         0.0000 
     45 H45         8.3562   55.7506   19.5009 H         1 UNK         0.0000 
     46 H46         3.2969   52.8481   22.9504 H         1 UNK         0.0000 
     47 H47         2.6160   53.5716   21.5105 H         1 UNK         0.0000 
     48 H48         1.1692   48.9891   20.7455 H         1 UNK         0.0000 
     49 H49        -1.1811   48.5138   21.3488 H         1 UNK         0.0000 
     50 H50        -1.4066   52.2562   23.4378 H         1 UNK         0.0000 
     51 H51         0.9227   52.7386   22.8490 H         1 UNK         0.0000 
     52 H52         7.6294   53.6251   24.2578 H         1 UNK         0.0000 
     53 H53         7.6283   53.7208   22.5394 H         1 UNK         0.0000 
@<TRIPOS>BOND
     1    1    6 ar   
     2    1    2 ar   
     3    1   35 1    
     4    2    3 ar   
     5    2   36 1    
     6    3    4 ar   
     7    3   37 1    
     8    4    5 ar   
     9    4    7 1    
    10    5    6 ar   
    11    5   38 1    
    12    6   39 1    
    13    7    8 2    
    14    7    9 am   BACKBONE|DICT|INTERRES
    15    9   10 2    
    16   10   11 1    
    17   10   34 1    
    18   11   12 1    
    19   11   17 1    
    20   11   13 1    
    21   13   14 1    
    22   13   15 1    
    23   13   25 1    
    24   15   16 1    
    25   15   40 1    
    26   16   17 am   BACKBONE|DICT|INTERRES
    27   16   19 1    
    28   17   18 2    
    29   19   24 ar   
    30   19   20 ar   
    31   20   21 ar   
    32   20   41 1    
    33   21   22 ar   
    34   21   42 1    
    35   22   23 ar   
    36   22   43 1    
    37   23   24 ar   
    38   23   44 1    
    39   24   45 1    
    40   25   26 1    
    41   25   46 1    
    42   25   47 1    
    43   26   27 1    
    44   27   32 ar   
    45   27   28 ar   
    46   28   29 ar   
    47   28   48 1    
    48   29   30 ar   
    49   29   49 1    
    50   30   31 ar   
    51   30   33 1    
    52   31   32 ar   
    53   31   50 1    
    54   32   51 1    
    55   34   52 1    
    56   34   53 1    
@<TRIPOS>SUBSTRUCTURE
     1 UNK         1 GROUP             0       ****    0 ROOT    
