ZINC03840838_1016
                    3D
 Schrodinger Suite 2024-2.
 73 76  0  0  1  0            999 V2000
   -8.7269   50.9276   24.8662 C   0  0  0  0  0  0
   -7.7372   49.8571   24.4437 C   0  0  0  0  0  0
   -7.6778   48.6537   25.1494 C   0  0  0  0  0  0
   -6.7722   47.6661   24.7677 C   0  0  0  0  0  0
   -5.9308   47.8857   23.6743 C   0  0  0  0  0  0
   -5.9904   49.0896   22.9652 C   0  0  0  0  0  0
   -6.8954   50.0745   23.3493 C   0  0  0  0  0  0
   -4.7256   46.6426   23.2137 S   0  0  0  0  0  0
   -4.3274   46.8859   21.8214 O   0  0  0  0  0  0
   -5.2187   45.3324   23.6563 O   0  0  0  0  0  0
   -3.3271   46.9882   24.2276 N   0  0  0  0  0  0
   -2.4123   47.9708   23.9752 C   0  0  0  0  0  0
   -2.6554   49.1224   23.4010 N   0  0  0  0  0  0
   -1.5895   49.9035   23.3752 C   0  0  0  0  0  0
   -0.4340   49.3423   23.9343 C   0  0  0  0  0  0
   -0.7853   47.7395   24.4966 S   0  0  0  0  0  0
    0.9245   50.0076   24.0059 C   0  0  0  0  0  0
    0.7089   51.5536   23.9725 C   0  0  1  0  0  0
    2.0426   52.3292   23.8231 C   0  0  0  0  0  0
    2.7819   52.0031   22.5196 C   0  0  0  0  0  0
    1.9346   52.3622   21.2775 C   0  0  2  0  0  0
    1.7698   53.4329   21.3822 H   0  0  0  0  0  0
    0.5103   51.7209   21.3916 C   0  0  1  0  0  0
    0.6294   50.6410   21.3137 H   0  0  0  0  0  0
   -0.2147   51.9673   22.7637 C   0  0  1  0  0  0
   -0.3252   53.0464   22.8502 H   0  0  0  0  0  0
   -1.6562   51.3244   22.8015 C   0  0  2  0  0  0
   -2.0259   51.2242   21.7815 H   0  0  0  0  0  0
   -2.7129   52.2125   23.4989 C   0  0  0  0  0  0
   -0.2896   52.0951   20.2810 O   0  0  0  0  0  0
    2.6637   52.1249   19.8974 C   0  0  2  0  0  0
    2.0622   52.5993   19.1311 H   0  0  0  0  0  0
    2.6806   50.6302   19.4845 C   0  0  0  0  0  0
    4.1164   52.6964   19.8430 C   0  0  0  0  0  0
    4.9895   52.0954   20.4816 O   0  0  0  0  0  0
    4.4360   53.7985   19.1078 N   0  0  0  0  0  0
    3.5046   54.6569   18.3702 C   0  0  0  0  0  0
    5.8394   54.2231   18.9396 C   0  0  0  0  0  0
    6.4527   55.0539   20.0625 C   0  0  0  0  0  0
    5.9148   55.2967   21.2693 C   0  0  0  0  0  0
    0.0953   52.0085   25.3251 C   0  0  0  0  0  0
   -9.7076   50.4835   25.0415 H   0  0  0  0  0  0
   -8.4040   51.3971   25.7952 H   0  0  0  0  0  0
   -8.8509   51.6961   24.1024 H   0  0  0  0  0  0
   -8.3267   48.4864   25.9980 H   0  0  0  0  0  0
   -6.7204   46.7415   25.3241 H   0  0  0  0  0  0
   -5.3338   49.2686   22.1264 H   0  0  0  0  0  0
   -6.9358   51.0055   22.8010 H   0  0  0  0  0  0
   -3.3202   46.4953   25.1066 H   0  0  0  0  0  0
    1.4862   49.6522   23.1443 H   0  0  0  0  0  0
    1.4938   49.6851   24.8806 H   0  0  0  0  0  0
    2.7022   52.0967   24.6594 H   0  0  0  0  0  0
    1.8695   53.4052   23.8897 H   0  0  0  0  0  0
    3.0955   50.9604   22.4817 H   0  0  0  0  0  0
    3.7064   52.5764   22.5247 H   0  0  0  0  0  0
   -3.7172   51.8094   23.3592 H   0  0  0  0  0  0
   -2.5497   52.2963   24.5721 H   0  0  0  0  0  0
   -2.7134   53.2235   23.0919 H   0  0  0  0  0  0
    0.1687   51.8271   19.4801 H   0  0  0  0  0  0
    3.1044   50.5013   18.4874 H   0  0  0  0  0  0
    3.2637   50.0202   20.1741 H   0  0  0  0  0  0
    1.6827   50.1980   19.4244 H   0  0  0  0  0  0
    2.4552   54.4063   18.4812 H   0  0  0  0  0  0
    3.6186   55.6893   18.7027 H   0  0  0  0  0  0
    3.7324   54.6265   17.3016 H   0  0  0  0  0  0
    5.9755   54.7307   17.9836 H   0  0  0  0  0  0
    6.4699   53.3353   18.8466 H   0  0  0  0  0  0
    7.4259   55.4746   19.8429 H   0  0  0  0  0  0
    4.9468   54.9034   21.5505 H   0  0  0  0  0  0
    6.4429   55.8948   21.9989 H   0  0  0  0  0  0
   -0.7735   51.4200   25.6173 H   0  0  0  0  0  0
    0.8112   51.9150   26.1422 H   0  0  0  0  0  0
   -0.2158   53.0518   25.2805 H   0  0  0  0  0  0
  1  2  1  0  0  0
  1 42  1  0  0  0
  1 43  1  0  0  0
  1 44  1  0  0  0
  2  7  2  0  0  0
  2  3  1  0  0  0
  3  4  2  0  0  0
  3 45  1  0  0  0
  4  5  1  0  0  0
  4 46  1  0  0  0
  5  6  2  0  0  0
  5  8  1  0  0  0
  6  7  1  0  0  0
  6 47  1  0  0  0
  7 48  1  0  0  0
  8  9  2  0  0  0
  8 10  2  0  0  0
  8 11  1  0  0  0
 11 12  1  0  0  0
 11 49  1  0  0  0
 12 16  1  0  0  0
 12 13  2  0  0  0
 13 14  1  0  0  0
 14 27  1  0  0  0
 14 15  2  0  0  0
 15 16  1  0  0  0
 15 17  1  0  0  0
 17 18  1  0  0  0
 17 50  1  0  0  0
 17 51  1  0  0  0
 18 25  1  0  0  0
 18 19  1  0  0  0
 18 41  1  0  0  0
 19 20  1  0  0  0
 19 52  1  0  0  0
 19 53  1  0  0  0
 20 21  1  0  0  0
 20 54  1  0  0  0
 20 55  1  0  0  0
 21 22  1  0  0  0
 21 23  1  0  0  0
 21 31  1  0  0  0
 23 24  1  0  0  0
 23 25  1  0  0  0
 23 30  1  0  0  0
 25 26  1  0  0  0
 25 27  1  0  0  0
 27 28  1  0  0  0
 27 29  1  0  0  0
 29 56  1  0  0  0
 29 57  1  0  0  0
 29 58  1  0  0  0
 30 59  1  0  0  0
 31 32  1  0  0  0
 31 33  1  0  0  0
 31 34  1  0  0  0
 33 60  1  0  0  0
 33 61  1  0  0  0
 33 62  1  0  0  0
 34 35  2  0  0  0
 34 36  1  0  0  0
 36 37  1  0  0  0
 36 38  1  0  0  0
 37 63  1  0  0  0
 37 64  1  0  0  0
 37 65  1  0  0  0
 38 39  1  0  0  0
 38 66  1  0  0  0
 38 67  1  0  0  0
 39 40  2  0  0  0
 39 68  1  0  0  0
 40 69  1  0  0  0
 40 70  1  0  0  0
 41 71  1  0  0  0
 41 72  1  0  0  0
 41 73  1  0  0  0
M  END
> <i_i_glide_confnum>
242

> <i_i_glide_lignum>
1017

> <i_i_glide_posenum>
25

> <i_i_glide_rotatable_bonds>
9

> <i_m_Source_File_Index>
3130

> <b_m_subgroup_collapsed>
0

> <r_i_docking_score>
-2.18451

> <r_i_glide_ecoul>
-4.1576

> <r_i_glide_eff_state_penalty>
0

> <r_i_glide_einternal>
6.91356

> <r_i_glide_emodel>
-32.7881

> <r_i_glide_energy>
-31.5941

> <r_i_glide_erotb>
0.583485

> <r_i_glide_esite>
-0.11459

> <r_i_glide_evdw>
-27.4365

> <r_i_glide_gscore>
-2.18451

> <r_i_glide_hbond>
0

> <r_i_glide_ligand_efficiency>
-0.0606807

> <r_i_glide_ligand_efficiency_ln>
-0.4766

> <r_i_glide_ligand_efficiency_sa>
-0.200363

> <r_i_glide_lipo>
-0.662205

> <r_i_glide_metal>
0

> <r_i_glide_rewards>
0.00426752

> <s_i_glide_gridfile>
wee1_glide-grid

> <s_m_Source_File>
wee1_decoys_glide_SP.sdf

> <s_m_Source_Path>
/Users/zhangxujun/Desktop

> <s_m_entry_id>
3405

> <s_m_entry_name>
wee1_decoys_glide_SP.3130

> <s_m_subgroup_title>
wee1_decoys_glide_SP

> <s_m_subgroupid>
wee1_decoys_glide_SP


$$$$
