@<TRIPOS>MOLECULE
ZINC14169247_2040
53   56    1
SMALL
USER_CHARGES


@<TRIPOS>ATOM
      1 C1          1.6462   55.5719   29.8641 C.3       1 UNK         0.0000 
      2 C2          1.4383   54.4841   28.8266 C.ar      1 UNK         0.0000 
      3 C3          2.3948   54.2659   27.8350 C.ar      1 UNK         0.0000 
      4 C4          2.1746   53.2967   26.8585 C.ar      1 UNK         0.0000 
      5 C5          0.9908   52.5471   26.8500 C.ar      1 UNK         0.0000 
      6 C6          0.0636   52.7402   27.8825 C.ar      1 UNK         0.0000 
      7 C7          0.2892   53.6969   28.8682 C.ar      1 UNK         0.0000 
      8 C8          0.7043   51.5230   25.7817 C.2       1 UNK         0.0000 
      9 C9          0.0731   50.3043   26.1056 C.2       1 UNK         0.0000 
     10 C10        -0.0912   49.4378   25.0422 C.2       1 UNK         0.0000 
     11 S11         0.5096   50.1050   23.5728 S.3       1 UNK         0.0000 
     12 C12         1.0179   51.5663   24.3967 C.2       1 UNK         0.0000 
     13 C13         1.6336   52.6367   23.6336 C.2       1 UNK         0.0000 
     14 O14         1.5238   53.8131   23.9837 O.2       1 UNK         0.0000 
     15 N15         2.3677   52.2314   22.5697 N.am      1 UNK         0.0000 
     16 C16         3.3461   52.9785   21.8898 C.ar      1 UNK         0.0000 
     17 C17         3.5359   52.7428   20.5258 C.ar      1 UNK         0.0000 
     18 C18         4.4764   53.4885   19.8127 C.ar      1 UNK         0.0000 
     19 C19         5.2456   54.4600   20.4658 C.ar      1 UNK         0.0000 
     20 C20         5.1354   54.6013   21.8483 C.ar      1 UNK         0.0000 
     21 C21         4.1746   53.8891   22.5562 C.ar      1 UNK         0.0000 
     22 S22         6.3887   55.5215   19.5510 S.o2      1 UNK         0.0000 
     23 O23         6.6738   56.6271   20.4792 O.2       1 UNK         0.0000 
     24 O24         7.5030   54.6090   19.2812 O.2       1 UNK         0.0000 
     25 N25         5.3181   55.8484   18.1908 N.2       1 UNK         0.0000 
     26 C26         5.4526   56.9294   17.5345 C.2       1 UNK         0.0000 
     27 C27         4.8025   57.3375   16.3153 C.2       1 UNK         0.0000 
     28 C28         5.3798   58.4868   15.9109 C.2       1 UNK         0.0000 
     29 N29         6.3109   58.8967   16.8390 N.pl3     1 UNK         0.0000 
     30 H30         6.3044   59.8311   17.2742 H         1 UNK         0.0000 
     31 O31         6.3044   57.9438   17.8710 O.3       1 UNK         0.0000 
     32 C32         5.1950   59.3209   14.6566 C.3       1 UNK         0.0000 
     33 C33         3.7358   56.5054   15.6206 C.3       1 UNK         0.0000 
     34 H34         1.1546   55.3232   30.8060 H         1 UNK         0.0000 
     35 H35         1.2528   56.5236   29.5046 H         1 UNK         0.0000 
     36 H36         2.7048   55.6979   30.0815 H         1 UNK         0.0000 
     37 H37         3.3001   54.8550   27.8067 H         1 UNK         0.0000 
     38 H38         2.9266   53.1409   26.0997 H         1 UNK         0.0000 
     39 H39        -0.8505   52.1649   27.9156 H         1 UNK         0.0000 
     40 H40        -0.4476   53.8436   29.6446 H         1 UNK         0.0000 
     41 H41        -0.2433   50.0439   27.1066 H         1 UNK         0.0000 
     42 H42        -0.5292   48.4506   25.0672 H         1 UNK         0.0000 
     43 H43         2.2464   51.2805   22.2572 H         1 UNK         0.0000 
     44 H44         2.9356   52.0135   20.0010 H         1 UNK         0.0000 
     45 H45         4.5868   53.3244   18.7500 H         1 UNK         0.0000 
     46 H46         5.7685   55.2965   22.3781 H         1 UNK         0.0000 
     47 H47         4.0840   54.0468   23.6209 H         1 UNK         0.0000 
     48 H48         4.4472   58.8829   13.9968 H         1 UNK         0.0000 
     49 H49         4.8808   60.3388   14.8817 H         1 UNK         0.0000 
     50 H50         6.1347   59.3768   14.1075 H         1 UNK         0.0000 
     51 H51         3.4650   56.9194   14.6499 H         1 UNK         0.0000 
     52 H52         4.0874   55.4848   15.4636 H         1 UNK         0.0000 
     53 H53         2.8342   56.4639   16.2328 H         1 UNK         0.0000 
@<TRIPOS>BOND
     1    1    2 1    
     2    1   34 1    
     3    1   35 1    
     4    1   36 1    
     5    2    7 ar   
     6    2    3 ar   
     7    3    4 ar   
     8    3   37 1    
     9    4    5 ar   
    10    4   38 1    
    11    5    6 ar   
    12    5    8 1    
    13    6    7 ar   
    14    6   39 1    
    15    7   40 1    
    16    8   12 2    
    17    8    9 1    
    18    9   10 2    
    19    9   41 1    
    20   10   11 1    
    21   10   42 1    
    22   11   12 1    
    23   12   13 1    
    24   13   14 2    
    25   13   15 am   BACKBONE|DICT|INTERRES
    26   15   16 1    
    27   15   43 1    
    28   16   21 ar   
    29   16   17 ar   
    30   17   18 ar   
    31   17   44 1    
    32   18   19 ar   
    33   18   45 1    
    34   19   20 ar   
    35   19   22 1    
    36   20   21 ar   
    37   20   46 1    
    38   21   47 1    
    39   22   23 2    
    40   22   24 2    
    41   22   25 1    
    42   25   26 2    
    43   26   31 1    
    44   26   27 1    
    45   27   28 2    
    46   27   33 1    
    47   28   29 1    
    48   28   32 1    
    49   29   30 1    
    50   29   31 1    
    51   32   48 1    
    52   32   49 1    
    53   32   50 1    
    54   33   51 1    
    55   33   52 1    
    56   33   53 1    
@<TRIPOS>SUBSTRUCTURE
     1 UNK         1 GROUP             0       ****    0 ROOT    
