@<TRIPOS>MOLECULE
ZINC08962757_3360
52   55    1
SMALL
USER_CHARGES


@<TRIPOS>ATOM
      1 C1          6.4970   58.4613   18.3828 C.3       1 UNK         0.0000 
      2 C2          7.6447   57.5483   18.8353 C.3       1 UNK         0.0000 
      3 O3          7.3228   56.8966   20.0682 O.3       1 UNK         0.0000 
      4 C4          6.5651   55.7454   20.0453 C.ar      1 UNK         0.0000 
      5 C5          6.0507   55.1117   18.9020 C.ar      1 UNK         0.0000 
      6 C6          5.2955   53.9438   18.9949 C.ar      1 UNK         0.0000 
      7 C7          5.0120   53.3611   20.2293 C.ar      1 UNK         0.0000 
      8 C8          5.5043   53.9748   21.3892 C.ar      1 UNK         0.0000 
      9 C9          6.2764   55.1530   21.2854 C.ar      1 UNK         0.0000 
     10 O10         6.6530   55.5955   22.5331 O.3       1 UNK         0.0000 
     11 C11         6.0223   54.7782   23.4416 C.2       1 UNK         0.0000 
     12 C12         5.4599   53.6967   22.7778 C.2       1 UNK         0.0000 
     13 C13         6.0305   55.1391   24.8623 C.2       1 UNK         0.0000 
     14 O14         6.7045   56.0777   25.2817 O.2       1 UNK         0.0000 
     15 N15         5.2387   54.4149   25.7590 N.am      1 UNK         0.0000 
     16 C16         3.9976   54.0969   25.6135 C.2       1 UNK         0.0000 
     17 N17         3.2342   53.3501   26.5157 N.pl3     1 UNK         0.0000 
     18 C18         1.9176   53.0186   26.1420 C.ar      1 UNK         0.0000 
     19 C19         0.9681   52.2711   26.8537 C.ar      1 UNK         0.0000 
     20 C20        -0.2748   51.9928   26.2816 C.ar      1 UNK         0.0000 
     21 C21        -0.5711   52.4500   24.9930 C.ar      1 UNK         0.0000 
     22 C22         0.3740   53.1953   24.2829 C.ar      1 UNK         0.0000 
     23 C23         1.5964   53.4920   24.8800 C.ar      1 UNK         0.0000 
     24 S24         2.8669   54.4967   24.2480 S.3       1 UNK         0.0000 
     25 S25        -2.1760   52.1245   24.2833 S.o2      1 UNK         0.0000 
     26 O26        -3.1639   52.7178   25.1884 O.2       1 UNK         0.0000 
     27 O27        -2.1214   52.4962   22.8654 O.2       1 UNK         0.0000 
     28 N28        -2.3581   50.3925   24.3710 N.pl3     1 UNK         0.0000 
     29 C29         3.6855   53.1167   27.8997 C.3       1 UNK         0.0000 
     30 C30         3.2724   54.1858   28.9277 C.2       1 UNK         0.0000 
     31 O31         3.6905   54.1018   30.0815 O.2       1 UNK         0.0000 
     32 O32         2.3852   55.1104   28.4817 O.3       1 UNK         0.0000 
     33 C33         1.9061   56.1297   29.3499 C.3       1 UNK         0.0000 
     34 H34         6.7381   58.9616   17.4444 H         1 UNK         0.0000 
     35 H35         5.5712   57.9060   18.2318 H         1 UNK         0.0000 
     36 H36         6.3045   59.2394   19.1220 H         1 UNK         0.0000 
     37 H37         8.5351   58.1569   18.9881 H         1 UNK         0.0000 
     38 H38         7.9305   56.8415   18.0552 H         1 UNK         0.0000 
     39 H39         6.2251   55.5128   17.9157 H         1 UNK         0.0000 
     40 H40         4.9265   53.4759   18.0917 H         1 UNK         0.0000 
     41 H41         4.4319   52.4511   20.2807 H         1 UNK         0.0000 
     42 H42         4.9407   52.8965   23.2602 H         1 UNK         0.0000 
     43 H43         1.1714   51.8891   27.8425 H         1 UNK         0.0000 
     44 H44        -1.0020   51.4208   26.8424 H         1 UNK         0.0000 
     45 H45         0.1486   53.5696   23.2950 H         1 UNK         0.0000 
     46 H46        -1.6911   49.8807   23.7905 H         1 UNK         0.0000 
     47 H47        -2.4269   50.0314   25.3260 H         1 UNK         0.0000 
     48 H48         3.2617   52.1735   28.2400 H         1 UNK         0.0000 
     49 H49         4.7699   52.9984   27.9336 H         1 UNK         0.0000 
     50 H50         1.1685   56.7444   28.8345 H         1 UNK         0.0000 
     51 H51         1.4274   55.7034   30.2329 H         1 UNK         0.0000 
     52 H52         2.7164   56.7813   29.6781 H         1 UNK         0.0000 
@<TRIPOS>BOND
     1    1    2 1    
     2    1   34 1    
     3    1   35 1    
     4    1   36 1    
     5    2    3 1    
     6    2   37 1    
     7    2   38 1    
     8    3    4 1    
     9    4    9 ar   
    10    4    5 ar   
    11    5    6 ar   
    12    5   39 1    
    13    6    7 ar   
    14    6   40 1    
    15    7    8 ar   
    16    7   41 1    
    17    8   12 1    
    18    8    9 ar   
    19    9   10 1    
    20   10   11 1    
    21   11   12 2    
    22   11   13 1    
    23   12   42 1    
    24   13   14 2    
    25   13   15 am   BACKBONE|DICT|INTERRES
    26   15   16 2    BACKBONE|DICT|INTERRES
    27   16   24 1    
    28   16   17 1    
    29   17   18 1    
    30   17   29 1    
    31   18   23 ar   
    32   18   19 ar   
    33   19   20 ar   
    34   19   43 1    
    35   20   21 ar   
    36   20   44 1    
    37   21   22 ar   
    38   21   25 1    
    39   22   23 ar   
    40   22   45 1    
    41   23   24 1    
    42   25   26 2    
    43   25   27 2    
    44   25   28 1    
    45   28   46 1    
    46   28   47 1    
    47   29   30 1    
    48   29   48 1    
    49   29   49 1    
    50   30   31 2    
    51   30   32 1    
    52   32   33 1    
    53   33   50 1    
    54   33   51 1    
    55   33   52 1    
@<TRIPOS>SUBSTRUCTURE
     1 UNK         1 GROUP             0       ****    0 ROOT    
