@<TRIPOS>MOLECULE
ZINC46751138_6199
57   58    1
SMALL
USER_CHARGES


@<TRIPOS>ATOM
      1 C1          2.3452   53.4689   23.2106 C.3       1 UNK         0.0000 
      2 C2          2.7402   52.4876   22.0864 C.3       1 UNK         0.0000 
      3 H3          3.1141   51.5409   22.4816 H         1 UNK         0.0000 
      4 C4          3.8045   53.1154   21.1553 C.3       1 UNK         0.0000 
      5 C5          4.1297   52.2298   19.9418 C.3       1 UNK         0.0000 
      6 C6          2.8542   51.8853   19.1571 C.3       1 UNK         0.0000 
      7 C7          1.8047   51.2034   20.0498 C.3       1 UNK         0.0000 
      8 N8          1.4721   52.1240   21.2586 N.4       1 UNK         0.0000 
      9 C9          0.2950   51.5170   22.0837 C.3       1 UNK         0.0000 
     10 C10         0.6887   50.2818   22.9353 C.3       1 UNK         0.0000 
     11 C11        -0.5006   49.7005   23.7276 C.3       1 UNK         0.0000 
     12 C12        -0.1095   48.5070   24.6234 C.3       1 UNK         0.0000 
     13 N13        -1.2094   48.0398   25.4667 N.am      1 UNK         0.0000 
     14 C14        -1.8886   46.8965   25.2829 C.2       1 UNK         0.0000 
     15 O15        -1.9182   46.2783   24.2151 O.2       1 UNK         0.0000 
     16 N16        -2.4962   46.4967   26.4181 N.am      1 UNK         0.0000 
     17 N17        -3.2888   45.3151   26.4818 N.3       1 UNK         0.0000 
     18 C18        -4.7277   45.5423   26.3087 C.3       1 UNK         0.0000 
     19 C19        -5.2489   46.5769   27.3494 C.3       1 UNK         0.0000 
     20 C20        -6.7818   46.5070   27.4046 C.3       1 UNK         0.0000 
     21 S21        -7.1632   44.6930   27.1787 S.o2      1 UNK         0.0000 
     22 O22        -7.4260   44.0778   28.4814 O.2       1 UNK         0.0000 
     23 O23        -8.1153   44.5385   26.0728 O.2       1 UNK         0.0000 
     24 C24        -5.4412   44.2144   26.6220 C.3       1 UNK         0.0000 
     25 C25        -5.0472   45.9793   24.8555 C.3       1 UNK         0.0000 
     26 H26         3.2288   53.8091   23.7522 H         1 UNK         0.0000 
     27 H27         1.6892   53.0156   23.9531 H         1 UNK         0.0000 
     28 H28         1.8477   54.3557   22.8137 H         1 UNK         0.0000 
     29 H29         3.4675   54.0895   20.7969 H         1 UNK         0.0000 
     30 H30         4.7228   53.2988   21.7143 H         1 UNK         0.0000 
     31 H31         4.8445   52.7282   19.2839 H         1 UNK         0.0000 
     32 H32         4.6191   51.3089   20.2666 H         1 UNK         0.0000 
     33 H33         2.4376   52.7901   18.7131 H         1 UNK         0.0000 
     34 H34         3.1049   51.2248   18.3218 H         1 UNK         0.0000 
     35 H35         0.8822   51.0702   19.4824 H         1 UNK         0.0000 
     36 H36         2.1492   50.2408   20.4327 H         1 UNK         0.0000 
     37 H37        -0.0813   52.3368   22.6977 H         1 UNK         0.0000 
     38 H38        -0.4856   51.2831   21.3578 H         1 UNK         0.0000 
     39 H39         1.1051   49.5023   22.2978 H         1 UNK         0.0000 
     40 H40         1.4724   50.5521   23.6429 H         1 UNK         0.0000 
     41 H41        -0.9355   50.4825   24.3534 H         1 UNK         0.0000 
     42 H42        -1.2837   49.3877   23.0385 H         1 UNK         0.0000 
     43 H43         0.3085   47.7003   24.0189 H         1 UNK         0.0000 
     44 H44         0.7180   48.7935   25.2754 H         1 UNK         0.0000 
     45 H45        -1.2960   48.4868   26.3735 H         1 UNK         0.0000 
     46 H46        -2.4178   47.0143   27.2884 H         1 UNK         0.0000 
     47 H47        -3.0698   44.8267   27.3526 H         1 UNK         0.0000 
     48 H48        -4.8448   46.3498   28.3394 H         1 UNK         0.0000 
     49 H49        -4.9223   47.5935   27.1155 H         1 UNK         0.0000 
     50 H50        -7.2778   46.8994   28.2920 H         1 UNK         0.0000 
     51 H51        -7.1830   47.0318   26.5375 H         1 UNK         0.0000 
     52 H52        -5.4783   43.4497   25.8482 H         1 UNK         0.0000 
     53 H53        -4.9758   43.7559   27.4968 H         1 UNK         0.0000 
     54 H54        -6.1164   45.9765   24.6467 H         1 UNK         0.0000 
     55 H55        -4.6777   46.9805   24.6378 H         1 UNK         0.0000 
     56 H56        -4.5859   45.3090   24.1296 H         1 UNK         0.0000 
     57 H57         1.1494   52.9963   20.8525 H         1 UNK         0.0000 
@<TRIPOS>BOND
     1    1    2 1    
     2    1   26 1    
     3    1   27 1    
     4    1   28 1    
     5    2    3 1    
     6    2    8 1    
     7    2    4 1    
     8    4    5 1    
     9    4   29 1    
    10    4   30 1    
    11    5    6 1    
    12    5   31 1    
    13    5   32 1    
    14    6    7 1    
    15    6   33 1    
    16    6   34 1    
    17    7    8 1    
    18    7   35 1    
    19    7   36 1    
    20    8    9 1    
    21    8   57 1    
    22    9   10 1    
    23    9   37 1    
    24    9   38 1    
    25   10   11 1    
    26   10   39 1    
    27   10   40 1    
    28   11   12 1    
    29   11   41 1    
    30   11   42 1    
    31   12   13 1    
    32   12   43 1    
    33   12   44 1    
    34   13   14 am   BACKBONE|DICT|INTERRES
    35   13   45 1    
    36   14   15 2    
    37   14   16 am   BACKBONE|DICT|INTERRES
    38   16   17 1    
    39   16   46 1    
    40   17   18 1    
    41   17   47 1    
    42   18   24 1    
    43   18   19 1    
    44   18   25 1    
    45   19   20 1    
    46   19   48 1    
    47   19   49 1    
    48   20   21 1    
    49   20   50 1    
    50   20   51 1    
    51   21   22 2    
    52   21   23 2    
    53   21   24 1    
    54   24   52 1    
    55   24   53 1    
    56   25   54 1    
    57   25   55 1    
    58   25   56 1    
@<TRIPOS>SUBSTRUCTURE
     1 UNK         1 GROUP             0       ****    0 ROOT    
