ZINC59812819_4352
                    3D
 Schrodinger Suite 2024-2.
 60 63  0  0  1  0            999 V2000
    4.0169   54.4966   29.2860 C   0  0  0  0  0  0
    3.7411   53.4921   28.1506 C   0  0  1  0  0  0
    4.3852   52.6249   28.3169 H   0  0  0  0  0  0
    2.3112   52.9022   28.1456 C   0  0  0  0  0  0
    1.6558   52.6213   26.9363 C   0  0  0  0  0  0
    0.3707   52.0971   26.9158 C   0  0  0  0  0  0
   -0.2962   51.8467   28.1173 C   0  0  0  0  0  0
    0.3456   52.0972   29.3307 C   0  0  0  0  0  0
    1.6374   52.6240   29.3451 C   0  0  0  0  0  0
   -1.5864   51.2967   28.1660 N   0  0  0  0  0  0
   -2.6011   51.4658   27.2867 C   0  0  0  0  0  0
   -2.5186   52.1719   26.2774 O   0  0  0  0  0  0
   -3.9171   50.7963   27.6397 C   0  0  0  0  0  0
   -4.0943   50.0921   28.8450 C   0  0  0  0  0  0
   -5.3144   49.4955   29.1454 C   0  0  0  0  0  0
   -6.3735   49.5994   28.2515 C   0  0  0  0  0  0
   -6.2227   50.2944   27.0559 C   0  0  0  0  0  0
   -5.0004   50.8888   26.7514 C   0  0  0  0  0  0
   -7.5587   49.0217   28.5466 F   0  0  0  0  0  0
    4.1191   54.0519   26.8504 N   0  0  0  0  0  0
    5.3535   54.1449   26.3240 C   0  0  0  0  0  0
    6.3828   54.0367   26.9928 O   0  0  0  0  0  0
    5.4078   54.3299   24.8215 C   0  0  0  0  0  0
    4.2794   54.0967   24.0175 C   0  0  0  0  0  0
    4.3633   54.1781   22.6352 C   0  0  0  0  0  0
    5.5791   54.4937   22.0120 C   0  0  0  0  0  0
    6.7027   54.7546   22.8116 C   0  0  0  0  0  0
    6.6155   54.6683   24.1995 C   0  0  0  0  0  0
    5.6816   54.5426   20.5932 N   0  0  0  0  0  0
    6.2690   55.8027   20.0590 C   0  0  0  0  0  0
    6.6800   55.7052   18.5849 C   0  0  0  0  0  0
    5.5400   55.1215   17.7700 C   0  0  0  0  0  0
    5.1940   53.7129   18.2721 C   0  0  0  0  0  0
    5.1049   53.5613   19.8099 C   0  0  0  0  0  0
    4.6084   52.5351   20.2802 O   0  0  0  0  0  0
    3.9492   54.0258   30.2640 H   0  0  0  0  0  0
    5.0243   54.9084   29.2168 H   0  0  0  0  0  0
    3.3180   55.3314   29.2566 H   0  0  0  0  0  0
    2.1373   52.7768   25.9855 H   0  0  0  0  0  0
   -0.0862   51.8721   25.9644 H   0  0  0  0  0  0
   -0.1544   51.8876   30.2673 H   0  0  0  0  0  0
    2.1015   52.8026   30.3027 H   0  0  0  0  0  0
   -1.7619   50.6809   28.9469 H   0  0  0  0  0  0
   -3.2960   49.9743   29.5650 H   0  0  0  0  0  0
   -5.4375   48.9488   30.0682 H   0  0  0  0  0  0
   -7.0517   50.3650   26.3676 H   0  0  0  0  0  0
   -4.9047   51.4229   25.8154 H   0  0  0  0  0  0
    3.3504   54.3482   26.2718 H   0  0  0  0  0  0
    3.3241   53.8261   24.4378 H   0  0  0  0  0  0
    3.4725   53.9948   22.0505 H   0  0  0  0  0  0
    7.6601   54.9844   22.3675 H   0  0  0  0  0  0
    7.5057   54.8401   24.7859 H   0  0  0  0  0  0
    7.1333   56.1159   20.6442 H   0  0  0  0  0  0
    5.5064   56.5758   20.1709 H   0  0  0  0  0  0
    7.5742   55.0869   18.4879 H   0  0  0  0  0  0
    6.9562   56.6907   18.2087 H   0  0  0  0  0  0
    4.6628   55.7682   17.8334 H   0  0  0  0  0  0
    5.8073   55.0830   16.7122 H   0  0  0  0  0  0
    4.2575   53.3730   17.8288 H   0  0  0  0  0  0
    5.9721   53.0188   17.9500 H   0  0  0  0  0  0
  1  2  1  0  0  0
  1 36  1  0  0  0
  1 37  1  0  0  0
  1 38  1  0  0  0
  2  3  1  0  0  0
  2  4  1  0  0  0
  2 20  1  0  0  0
  4  9  2  0  0  0
  4  5  1  0  0  0
  5  6  2  0  0  0
  5 39  1  0  0  0
  6  7  1  0  0  0
  6 40  1  0  0  0
  7  8  2  0  0  0
  7 10  1  0  0  0
  8  9  1  0  0  0
  8 41  1  0  0  0
  9 42  1  0  0  0
 10 11  1  0  0  0
 10 43  1  0  0  0
 11 12  2  0  0  0
 11 13  1  0  0  0
 13 18  2  0  0  0
 13 14  1  0  0  0
 14 15  2  0  0  0
 14 44  1  0  0  0
 15 16  1  0  0  0
 15 45  1  0  0  0
 16 17  2  0  0  0
 16 19  1  0  0  0
 17 18  1  0  0  0
 17 46  1  0  0  0
 18 47  1  0  0  0
 20 21  1  0  0  0
 20 48  1  0  0  0
 21 22  2  0  0  0
 21 23  1  0  0  0
 23 28  2  0  0  0
 23 24  1  0  0  0
 24 25  2  0  0  0
 24 49  1  0  0  0
 25 26  1  0  0  0
 25 50  1  0  0  0
 26 27  2  0  0  0
 26 29  1  0  0  0
 27 28  1  0  0  0
 27 51  1  0  0  0
 28 52  1  0  0  0
 29 34  1  0  0  0
 29 30  1  0  0  0
 30 31  1  0  0  0
 30 53  1  0  0  0
 30 54  1  0  0  0
 31 32  1  0  0  0
 31 55  1  0  0  0
 31 56  1  0  0  0
 32 33  1  0  0  0
 32 57  1  0  0  0
 32 58  1  0  0  0
 33 34  1  0  0  0
 33 59  1  0  0  0
 33 60  1  0  0  0
 34 35  2  0  0  0
M  END
> <i_i_glide_confnum>
141

> <i_i_glide_lignum>
4353

> <i_i_glide_posenum>
378

> <i_i_glide_rotatable_bonds>
8

> <i_m_Source_File_Index>
2146

> <b_m_subgroup_collapsed>
0

> <r_i_docking_score>
-5.5242

> <r_i_glide_ecoul>
-2.25613

> <r_i_glide_eff_state_penalty>
0

> <r_i_glide_einternal>
7.70392

> <r_i_glide_emodel>
-66.3913

> <r_i_glide_energy>
-50.7446

> <r_i_glide_erotb>
0.762342

> <r_i_glide_esite>
-0.185318

> <r_i_glide_evdw>
-48.4885

> <r_i_glide_gscore>
-5.5242

> <r_i_glide_hbond>
-0.00706788

> <r_i_glide_ligand_efficiency>
-0.162477

> <r_i_glide_ligand_efficiency_ln>
-1.22045

> <r_i_glide_ligand_efficiency_sa>
-0.526361

> <r_i_glide_lipo>
-2.53367

> <r_i_glide_metal>
0

> <r_i_glide_rewards>
-0.797641

> <s_i_glide_gridfile>
wee1_glide-grid

> <s_m_Source_File>
wee1_decoys_glide_SP.sdf

> <s_m_Source_Path>
/Users/zhangxujun/Desktop

> <s_m_entry_id>
2421

> <s_m_entry_name>
wee1_decoys_glide_SP.2146

> <s_m_subgroup_title>
wee1_decoys_glide_SP

> <s_m_subgroupid>
wee1_decoys_glide_SP


$$$$
