@<TRIPOS>MOLECULE
ZINC59452504_3846
48   49    1
SMALL
USER_CHARGES


@<TRIPOS>ATOM
      1 C1          3.4024   52.0666   21.1440 C.3       1 UNK         0.0000 
      2 C2          4.1005   53.0518   20.2023 C.2       1 UNK         0.0000 
      3 C3          3.9918   52.8967   18.8658 C.2       1 UNK         0.0000 
      4 C4          4.6978   53.8031   17.8471 C.3       1 UNK         0.0000 
      5 N5          5.5578   54.7342   18.6181 N.pl3     1 UNK         0.0000 
      6 C6          5.6588   54.9007   19.9714 C.2       1 UNK         0.0000 
      7 S7          6.7043   56.0976   20.4813 S.2       1 UNK         0.0000 
      8 N8          4.8795   54.0583   20.7545 N.pl3     1 UNK         0.0000 
      9 N9          4.5682   54.4138   22.0916 N.am      1 UNK         0.0000 
     10 C10         5.3880   54.0486   23.1077 C.2       1 UNK         0.0000 
     11 O11         6.5579   53.6966   22.9519 O.2       1 UNK         0.0000 
     12 C12         4.8184   54.1519   24.5050 C.ar      1 UNK         0.0000 
     13 C13         5.6848   54.2131   25.6040 C.ar      1 UNK         0.0000 
     14 C14         5.1882   54.1862   26.9042 C.ar      1 UNK         0.0000 
     15 C15         3.8078   54.0968   27.1417 C.ar      1 UNK         0.0000 
     16 C16         2.9458   54.0902   26.0380 C.ar      1 UNK         0.0000 
     17 C17         3.4377   54.1103   24.7374 C.ar      1 UNK         0.0000 
     18 C18         3.2170   53.9796   28.5706 C.3       1 UNK         0.0000 
     19 C19         2.4377   55.2668   28.9200 C.3       1 UNK         0.0000 
     20 C20         4.3044   53.7648   29.6523 C.3       1 UNK         0.0000 
     21 C21         2.2579   52.7642   28.6584 C.3       1 UNK         0.0000 
     22 C22         3.5966   54.5718   17.0955 C.3       1 UNK         0.0000 
     23 C23         5.5597   52.8998   16.9422 C.3       1 UNK         0.0000 
     24 H24         2.9165   51.2603   20.5926 H         1 UNK         0.0000 
     25 H25         4.1252   51.6045   21.8144 H         1 UNK         0.0000 
     26 H26         2.6350   52.5650   21.7366 H         1 UNK         0.0000 
     27 H27         3.4002   52.0743   18.4864 H         1 UNK         0.0000 
     28 H28         6.1433   55.3724   18.0984 H         1 UNK         0.0000 
     29 H29         3.5746   54.5164   22.2204 H         1 UNK         0.0000 
     30 H30         6.7556   54.2432   25.4589 H         1 UNK         0.0000 
     31 H31         5.9012   54.2084   27.7128 H         1 UNK         0.0000 
     32 H32         1.8763   54.0408   26.1813 H         1 UNK         0.0000 
     33 H33         2.7284   54.0569   23.9250 H         1 UNK         0.0000 
     34 H34         1.9710   55.2039   29.9042 H         1 UNK         0.0000 
     35 H35         1.6427   55.4744   28.2014 H         1 UNK         0.0000 
     36 H36         3.0998   56.1330   28.9354 H         1 UNK         0.0000 
     37 H37         4.9045   52.8786   29.4373 H         1 UNK         0.0000 
     38 H38         4.9808   54.6193   29.7234 H         1 UNK         0.0000 
     39 H39         3.8751   53.6178   30.6425 H         1 UNK         0.0000 
     40 H40         2.7571   51.8385   28.3665 H         1 UNK         0.0000 
     41 H41         1.8798   52.6209   29.6717 H         1 UNK         0.0000 
     42 H42         1.3814   52.8756   28.0198 H         1 UNK         0.0000 
     43 H43         2.9371   53.8967   16.5472 H         1 UNK         0.0000 
     44 H44         2.9783   55.1603   17.7775 H         1 UNK         0.0000 
     45 H45         4.0268   55.2637   16.3701 H         1 UNK         0.0000 
     46 H46         4.9758   52.1000   16.4819 H         1 UNK         0.0000 
     47 H47         6.0165   53.4757   16.1364 H         1 UNK         0.0000 
     48 H48         6.3762   52.4425   17.5034 H         1 UNK         0.0000 
@<TRIPOS>BOND
     1    1    2 1    
     2    1   24 1    
     3    1   25 1    
     4    1   26 1    
     5    2    8 1    
     6    2    3 2    
     7    3    4 1    
     8    3   27 1    
     9    4    5 1    
    10    4   22 1    
    11    4   23 1    
    12    5    6 1    
    13    5   28 1    
    14    6    7 2    
    15    6    8 1    
    16    8    9 1    
    17    9   10 am   BACKBONE|DICT|INTERRES
    18    9   29 1    
    19   10   11 2    
    20   10   12 1    
    21   12   17 ar   
    22   12   13 ar   
    23   13   14 ar   
    24   13   30 1    
    25   14   15 ar   
    26   14   31 1    
    27   15   16 ar   
    28   15   18 1    
    29   16   17 ar   
    30   16   32 1    
    31   17   33 1    
    32   18   19 1    
    33   18   20 1    
    34   18   21 1    
    35   19   34 1    
    36   19   35 1    
    37   19   36 1    
    38   20   37 1    
    39   20   38 1    
    40   20   39 1    
    41   21   40 1    
    42   21   41 1    
    43   21   42 1    
    44   22   43 1    
    45   22   44 1    
    46   22   45 1    
    47   23   46 1    
    48   23   47 1    
    49   23   48 1    
@<TRIPOS>SUBSTRUCTURE
     1 UNK         1 GROUP             0       ****    0 ROOT    
