@<TRIPOS>MOLECULE
ZINC33253049_5796
56   59    1
SMALL
USER_CHARGES


@<TRIPOS>ATOM
      1 C1         -0.2079   43.5305   19.3948 C.3       1 UNK         0.0000 
      2 C2         -0.1444   44.9576   18.8807 C.ar      1 UNK         0.0000 
      3 C3          0.7029   45.2720   17.8178 C.ar      1 UNK         0.0000 
      4 C4          0.7696   46.5795   17.3459 C.ar      1 UNK         0.0000 
      5 C5         -0.0297   47.5662   17.9222 C.ar      1 UNK         0.0000 
      6 C6         -0.8882   47.2534   18.9781 C.ar      1 UNK         0.0000 
      7 C7         -0.9423   45.9471   19.4592 C.ar      1 UNK         0.0000 
      8 S8          0.0670   49.2373   17.2852 S.o2      1 UNK         0.0000 
      9 O9         -1.0721   50.0024   17.8044 O.2       1 UNK         0.0000 
     10 O10         0.3032   49.1271   15.8415 O.2       1 UNK         0.0000 
     11 N11         1.5560   49.9117   17.9741 N.pl3     1 UNK         0.0000 
     12 C12         1.6510   50.5424   19.2246 C.ar      1 UNK         0.0000 
     13 C13         0.7154   50.3712   20.2445 C.ar      1 UNK         0.0000 
     14 C14         0.8537   51.0573   21.4472 C.ar      1 UNK         0.0000 
     15 C15         1.9375   51.9167   21.6835 C.ar      1 UNK         0.0000 
     16 C16         2.9448   52.0189   20.6831 C.ar      1 UNK         0.0000 
     17 C17         2.7522   51.3613   19.4580 C.ar      1 UNK         0.0000 
     18 C18         4.2265   52.7784   20.8741 C.2       1 UNK         0.0000 
     19 O19         4.8536   52.6155   21.9455 O.co2     1 UNK         0.0000 
     20 O20         4.6220   53.5054   19.9329 O.co2     1 UNK         0.0000 
     21 N21         1.9417   52.6497   22.8729 N.pl3     1 UNK         0.0000 
     22 C22         1.3600   52.1950   24.1448 C.3       1 UNK         0.0000 
     23 C23         1.8759   52.9211   25.4177 C.3       1 UNK         0.0000 
     24 N24         3.1087   53.6973   25.2225 N.pl3     1 UNK         0.0000 
     25 C25         2.9954   54.6017   24.0690 C.3       1 UNK         0.0000 
     26 C26         2.1415   54.1005   22.8859 C.3       1 UNK         0.0000 
     27 C27         4.1166   53.8204   26.1725 C.ar      1 UNK         0.0000 
     28 C28         5.4315   54.0988   25.7694 C.ar      1 UNK         0.0000 
     29 C29         6.4716   54.0962   26.6894 C.ar      1 UNK         0.0000 
     30 C30         6.2094   53.8052   28.0199 C.ar      1 UNK         0.0000 
     31 C31         4.9050   53.5918   28.4560 C.ar      1 UNK         0.0000 
     32 C32         3.8622   53.6022   27.5344 C.ar      1 UNK         0.0000 
     33 F33         7.2382   53.6969   28.8815 F         1 UNK         0.0000 
     34 H34        -0.1636   42.8269   18.5631 H         1 UNK         0.0000 
     35 H35         0.6314   43.3271   20.0600 H         1 UNK         0.0000 
     36 H36        -1.1439   43.3420   19.9271 H         1 UNK         0.0000 
     37 H37         1.3186   44.5126   17.3588 H         1 UNK         0.0000 
     38 H38         1.4346   46.8248   16.5306 H         1 UNK         0.0000 
     39 H39        -1.5137   48.0111   19.4232 H         1 UNK         0.0000 
     40 H40        -1.6049   45.7105   20.2769 H         1 UNK         0.0000 
     41 H41         2.4148   49.7817   17.4437 H         1 UNK         0.0000 
     42 H42        -0.1413   49.7315   20.1148 H         1 UNK         0.0000 
     43 H43         0.0803   50.9344   22.1898 H         1 UNK         0.0000 
     44 H44         3.5002   51.4591   18.6785 H         1 UNK         0.0000 
     45 H45         1.7084   51.1631   24.2231 H         1 UNK         0.0000 
     46 H46         0.2683   52.1996   24.1411 H         1 UNK         0.0000 
     47 H47         1.8904   52.2505   26.2770 H         1 UNK         0.0000 
     48 H48         1.1492   53.6939   25.6711 H         1 UNK         0.0000 
     49 H49         2.6926   55.6039   24.3572 H         1 UNK         0.0000 
     50 H50         3.9957   54.6600   23.6424 H         1 UNK         0.0000 
     51 H51         1.1280   54.4917   22.9991 H         1 UNK         0.0000 
     52 H52         2.4935   54.5081   21.9414 H         1 UNK         0.0000 
     53 H53         5.6780   54.2437   24.7293 H         1 UNK         0.0000 
     54 H54         7.4872   54.2572   26.3621 H         1 UNK         0.0000 
     55 H55         4.7067   53.3838   29.4955 H         1 UNK         0.0000 
     56 H56         2.8591   53.4059   27.8815 H         1 UNK         0.0000 
@<TRIPOS>BOND
     1    1    2 1    
     2    1   34 1    
     3    1   35 1    
     4    1   36 1    
     5    2    7 ar   
     6    2    3 ar   
     7    3    4 ar   
     8    3   37 1    
     9    4    5 ar   
    10    4   38 1    
    11    5    6 ar   
    12    5    8 1    
    13    6    7 ar   
    14    6   39 1    
    15    7   40 1    
    16    8    9 2    
    17    8   10 2    
    18    8   11 1    
    19   11   12 1    
    20   11   41 1    
    21   12   17 ar   
    22   12   13 ar   
    23   13   14 ar   
    24   13   42 1    
    25   14   15 ar   
    26   14   43 1    
    27   15   16 ar   
    28   15   21 1    
    29   16   17 ar   
    30   16   18 1    
    31   17   44 1    
    32   18   19 2    
    33   18   20 1    
    34   21   26 1    
    35   21   22 1    
    36   22   23 1    
    37   22   45 1    
    38   22   46 1    
    39   23   24 1    
    40   23   47 1    
    41   23   48 1    
    42   24   25 1    
    43   24   27 1    
    44   25   26 1    
    45   25   49 1    
    46   25   50 1    
    47   26   51 1    
    48   26   52 1    
    49   27   32 ar   
    50   27   28 ar   
    51   28   29 ar   
    52   28   53 1    
    53   29   30 ar   
    54   29   54 1    
    55   30   31 ar   
    56   30   33 1    
    57   31   32 ar   
    58   31   55 1    
    59   32   56 1    
@<TRIPOS>SUBSTRUCTURE
     1 UNK         1 GROUP             0       ****    0 ROOT    
