@<TRIPOS>MOLECULE
ZINC01171412_2340
47   49    1
SMALL
USER_CHARGES


@<TRIPOS>ATOM
      1 C1         -6.7681   45.2874   24.0386 C.3       1 UNK         0.0000 
      2 C2         -5.5325   45.7773   24.7719 C.ar      1 UNK         0.0000 
      3 C3         -4.9819   45.0189   25.8046 C.ar      1 UNK         0.0000 
      4 C4         -3.8558   45.4787   26.4817 C.ar      1 UNK         0.0000 
      5 C5         -3.2791   46.7006   26.1400 C.ar      1 UNK         0.0000 
      6 C6         -3.8266   47.4905   25.1138 C.ar      1 UNK         0.0000 
      7 C7         -4.9572   47.0078   24.4340 C.ar      1 UNK         0.0000 
      8 C8         -3.2324   48.8291   24.7310 C.2       1 UNK         0.0000 
      9 O9         -3.4771   49.3066   23.6185 O.2       1 UNK         0.0000 
     10 N10        -2.4594   49.4187   25.6820 N.am      1 UNK         0.0000 
     11 C11        -1.8241   50.6307   25.7545 C.2       1 UNK         0.0000 
     12 S12        -1.9605   51.9126   24.6618 S.2       1 UNK         0.0000 
     13 N13        -1.0508   50.6615   26.8816 N.pl3     1 UNK         0.0000 
     14 C14        -0.0717   51.5556   27.3478 C.ar      1 UNK         0.0000 
     15 C15         0.0207   51.7543   28.7277 C.ar      1 UNK         0.0000 
     16 C16         1.0342   52.5556   29.2546 C.ar      1 UNK         0.0000 
     17 C17         1.9751   53.1456   28.4078 C.ar      1 UNK         0.0000 
     18 C18         1.8971   52.9509   27.0255 C.ar      1 UNK         0.0000 
     19 C19         0.8746   52.1487   26.5030 C.ar      1 UNK         0.0000 
     20 N20         2.9141   53.4931   26.2224 N.am      1 UNK         0.0000 
     21 C21         2.8129   53.9102   24.9416 C.2       1 UNK         0.0000 
     22 O22         1.7316   54.0437   24.3627 O.2       1 UNK         0.0000 
     23 C23         4.1035   54.2035   24.1959 C.ar      1 UNK         0.0000 
     24 C24         4.0817   54.0920   22.7931 C.ar      1 UNK         0.0000 
     25 C25         5.1969   54.3996   22.0191 C.ar      1 UNK         0.0000 
     26 C26         6.3686   54.8261   22.6347 C.ar      1 UNK         0.0000 
     27 C27         6.4299   54.9079   24.0226 C.ar      1 UNK         0.0000 
     28 C28         5.3155   54.6145   24.8107 C.ar      1 UNK         0.0000 
     29 Cl29        5.5137   54.8592   26.5170 Cl        1 UNK         0.0000 
     30 Cl30        7.7240   55.2973   21.6783 Cl        1 UNK         0.0000 
     31 H31        -7.4242   46.1237   23.7910 H         1 UNK         0.0000 
     32 H32        -6.4917   44.7802   23.1143 H         1 UNK         0.0000 
     33 H33        -7.3519   44.6051   24.6587 H         1 UNK         0.0000 
     34 H34        -5.4268   44.0748   26.0904 H         1 UNK         0.0000 
     35 H35        -3.4274   44.8973   27.2820 H         1 UNK         0.0000 
     36 H36        -2.4085   47.0148   26.6982 H         1 UNK         0.0000 
     37 H37        -5.4044   47.5942   23.6413 H         1 UNK         0.0000 
     38 H38        -2.3661   48.8673   26.5283 H         1 UNK         0.0000 
     39 H39        -1.2499   49.9161   27.5450 H         1 UNK         0.0000 
     40 H40        -0.6838   51.2800   29.3979 H         1 UNK         0.0000 
     41 H41         1.0965   52.7044   30.3229 H         1 UNK         0.0000 
     42 H42         2.7670   53.7462   28.8316 H         1 UNK         0.0000 
     43 H43         0.8492   51.9349   25.4432 H         1 UNK         0.0000 
     44 H44         3.8272   53.5524   26.6447 H         1 UNK         0.0000 
     45 H45         3.1804   53.7849   22.2777 H         1 UNK         0.0000 
     46 H46         5.1413   54.3317   20.9411 H         1 UNK         0.0000 
     47 H47         7.3474   55.2414   24.4865 H         1 UNK         0.0000 
@<TRIPOS>BOND
     1    1    2 1    
     2    1   31 1    
     3    1   32 1    
     4    1   33 1    
     5    2    7 ar   
     6    2    3 ar   
     7    3    4 ar   
     8    3   34 1    
     9    4    5 ar   
    10    4   35 1    
    11    5    6 ar   
    12    5   36 1    
    13    6    7 ar   
    14    6    8 1    
    15    7   37 1    
    16    8    9 2    
    17    8   10 am   BACKBONE|DICT|INTERRES
    18   10   11 am   BACKBONE|DICT|INTERRES
    19   10   38 1    
    20   11   12 2    
    21   11   13 1    
    22   13   14 1    
    23   13   39 1    
    24   14   19 ar   
    25   14   15 ar   
    26   15   16 ar   
    27   15   40 1    
    28   16   17 ar   
    29   16   41 1    
    30   17   18 ar   
    31   17   42 1    
    32   18   19 ar   
    33   18   20 1    
    34   19   43 1    
    35   20   21 am   BACKBONE|DICT|INTERRES
    36   20   44 1    
    37   21   22 2    
    38   21   23 1    
    39   23   28 ar   
    40   23   24 ar   
    41   24   25 ar   
    42   24   45 1    
    43   25   26 ar   
    44   25   46 1    
    45   26   27 ar   
    46   26   30 1    
    47   27   28 ar   
    48   27   47 1    
    49   28   29 1    
@<TRIPOS>SUBSTRUCTURE
     1 UNK         1 GROUP             0       ****    0 ROOT    
