@<TRIPOS>MOLECULE
ZINC21595749_4230
60   64    1
SMALL
USER_CHARGES


@<TRIPOS>ATOM
      1 C1          6.2520   54.7305   15.2941 C.3       1 UNK         0.0000 
      2 C2          6.0574   54.6954   16.7989 C.ar      1 UNK         0.0000 
      3 C3          5.9220   55.8854   17.5160 C.ar      1 UNK         0.0000 
      4 C4          5.7517   55.8468   18.8978 C.ar      1 UNK         0.0000 
      5 C5          5.7069   54.6207   19.5746 C.ar      1 UNK         0.0000 
      6 C6          5.8760   53.4358   18.8462 C.ar      1 UNK         0.0000 
      7 C7          6.0383   53.4718   17.4657 C.ar      1 UNK         0.0000 
      8 C8          5.5642   54.6095   21.0829 C.2       1 UNK         0.0000 
      9 O9          6.3044   55.3671   21.7173 O.2       1 UNK         0.0000 
     10 N10         4.6406   53.8032   21.6908 N.am      1 UNK         0.0000 
     11 C11         3.8127   52.8215   20.9636 C.3       1 UNK         0.0000 
     12 C12         2.3862   52.7720   21.5451 C.3       1 UNK         0.0000 
     13 N13         2.3061   52.6758   23.0058 N.pl3     1 UNK         0.0000 
     14 C14         3.1167   53.6978   23.6730 C.3       1 UNK         0.0000 
     15 C15         4.5796   53.7853   23.1696 C.3       1 UNK         0.0000 
     16 C16         1.5119   51.7429   23.6638 C.ar      1 UNK         0.0000 
     17 C17         1.4913   50.4183   23.2164 C.ar      1 UNK         0.0000 
     18 C18         0.7040   49.4678   23.8548 C.ar      1 UNK         0.0000 
     19 C19        -0.1004   49.8331   24.9372 C.ar      1 UNK         0.0000 
     20 C20        -0.0614   51.1439   25.4144 C.ar      1 UNK         0.0000 
     21 C21         0.7419   52.0945   24.7802 C.ar      1 UNK         0.0000 
     22 N22        -0.9468   48.9054   25.5775 N.pl3     1 UNK         0.0000 
     23 C23        -1.9136   48.0794   25.0648 C.2       1 UNK         0.0000 
     24 S24        -2.2805   47.9591   23.4205 S.2       1 UNK         0.0000 
     25 N25        -2.5688   47.4259   26.0815 N.am      1 UNK         0.0000 
     26 C26        -3.6006   46.5413   26.0758 C.2       1 UNK         0.0000 
     27 O27        -3.7565   45.6970   25.1896 O.2       1 UNK         0.0000 
     28 C28        -4.5819   46.6056   27.2360 C.ar      1 UNK         0.0000 
     29 C29        -4.4953   47.6049   28.2259 C.ar      1 UNK         0.0000 
     30 C30        -5.4151   47.7089   29.2727 C.ar      1 UNK         0.0000 
     31 C31        -6.4651   46.7864   29.3083 C.ar      1 UNK         0.0000 
     32 C32        -6.5695   45.7761   28.3359 C.ar      1 UNK         0.0000 
     33 C33        -5.6322   45.6688   27.2980 C.ar      1 UNK         0.0000 
     34 N34        -7.6253   44.9446   28.4805 N.2       1 UNK         0.0000 
     35 S35        -8.4361   45.5151   29.8292 S.3       1 UNK         0.0000 
     36 N36        -7.4315   46.7835   30.2537 N.2       1 UNK         0.0000 
     37 H37         6.8576   53.8853   14.9614 H         1 UNK         0.0000 
     38 H38         5.2894   54.6952   14.7833 H         1 UNK         0.0000 
     39 H39         6.7814   55.6336   14.9891 H         1 UNK         0.0000 
     40 H40         5.9491   56.8389   17.0069 H         1 UNK         0.0000 
     41 H41         5.6528   56.7777   19.4385 H         1 UNK         0.0000 
     42 H42         5.8900   52.4708   19.3336 H         1 UNK         0.0000 
     43 H43         6.1520   52.5437   16.9252 H         1 UNK         0.0000 
     44 H44         4.2563   51.8304   21.0799 H         1 UNK         0.0000 
     45 H45         3.6910   53.0558   19.9040 H         1 UNK         0.0000 
     46 H46         1.8174   51.9749   21.0642 H         1 UNK         0.0000 
     47 H47         1.8716   53.6961   21.2891 H         1 UNK         0.0000 
     48 H48         2.6079   54.6473   23.4944 H         1 UNK         0.0000 
     49 H49         3.1152   53.5348   24.7511 H         1 UNK         0.0000 
     50 H50         5.0415   54.6597   23.6310 H         1 UNK         0.0000 
     51 H51         5.1094   52.8970   23.5118 H         1 UNK         0.0000 
     52 H52         2.1023   50.1130   22.3789 H         1 UNK         0.0000 
     53 H53         0.7170   48.4497   23.4991 H         1 UNK         0.0000 
     54 H54        -0.6666   51.4372   26.2600 H         1 UNK         0.0000 
     55 H55         0.7490   53.1114   25.1434 H         1 UNK         0.0000 
     56 H56        -0.8945   48.9242   26.5918 H         1 UNK         0.0000 
     57 H57        -2.3797   47.8243   26.9995 H         1 UNK         0.0000 
     58 H58        -3.6960   48.3329   28.2094 H         1 UNK         0.0000 
     59 H59        -5.3169   48.4821   30.0198 H         1 UNK         0.0000 
     60 H60        -5.7364   44.8909   26.5540 H         1 UNK         0.0000 
@<TRIPOS>BOND
     1    1    2 1    
     2    1   37 1    
     3    1   38 1    
     4    1   39 1    
     5    2    7 ar   
     6    2    3 ar   
     7    3    4 ar   
     8    3   40 1    
     9    4    5 ar   
    10    4   41 1    
    11    5    6 ar   
    12    5    8 1    
    13    6    7 ar   
    14    6   42 1    
    15    7   43 1    
    16    8    9 2    
    17    8   10 am   BACKBONE|DICT|INTERRES
    18   10   15 1    
    19   10   11 1    
    20   11   12 1    
    21   11   44 1    
    22   11   45 1    
    23   12   13 1    
    24   12   46 1    
    25   12   47 1    
    26   13   14 1    
    27   13   16 1    
    28   14   15 1    
    29   14   48 1    
    30   14   49 1    
    31   15   50 1    
    32   15   51 1    
    33   16   21 ar   
    34   16   17 ar   
    35   17   18 ar   
    36   17   52 1    
    37   18   19 ar   
    38   18   53 1    
    39   19   20 ar   
    40   19   22 1    
    41   20   21 ar   
    42   20   54 1    
    43   21   55 1    
    44   22   23 1    
    45   22   56 1    
    46   23   24 2    
    47   23   25 am   BACKBONE|DICT|INTERRES
    48   25   26 am   BACKBONE|DICT|INTERRES
    49   25   57 1    
    50   26   27 2    
    51   26   28 1    
    52   28   33 ar   
    53   28   29 ar   
    54   29   30 ar   
    55   29   58 1    
    56   30   31 ar   
    57   30   59 1    
    58   31   36 2    
    59   31   32 ar   
    60   32   33 ar   
    61   32   34 2    
    62   33   60 1    
    63   34   35 1    
    64   35   36 1    
@<TRIPOS>SUBSTRUCTURE
     1 UNK         1 GROUP             0       ****    0 ROOT    
