@<TRIPOS>MOLECULE
ZINC38547894_4893
55   58    1
SMALL
USER_CHARGES


@<TRIPOS>ATOM
      1 C1          5.6974   54.6452   26.5394 C.3       1 UNK         0.0000 
      2 C2          6.6442   54.2774   25.3880 C.3       1 UNK         0.0000 
      3 C3          5.9520   54.2358   24.0408 C.2       1 UNK         0.0000 
      4 C4          4.7188   53.7051   23.6778 C.2       1 UNK         0.0000 
      5 C5          4.3855   53.7382   22.3082 C.2       1 UNK         0.0000 
      6 C6          5.3468   54.4914   21.6220 C.2       1 UNK         0.0000 
      7 S7          6.7044   54.8972   22.6383 S.3       1 UNK         0.0000 
      8 N8          5.2662   54.8949   20.2922 N.am      1 UNK         0.0000 
      9 C9          5.9045   55.9407   19.7140 C.2       1 UNK         0.0000 
     10 O10         6.7469   56.6650   20.2507 O.2       1 UNK         0.0000 
     11 C11         5.4557   56.2075   18.3733 C.2       1 UNK         0.0000 
     12 C12         4.3164   55.8121   17.6697 C.2       1 UNK         0.0000 
     13 C13         4.3266   56.5049   16.4580 C.2       1 UNK         0.0000 
     14 C14         5.4448   57.3204   16.4847 C.2       1 UNK         0.0000 
     15 O15         6.1227   57.1469   17.6478 O.3       1 UNK         0.0000 
     16 C16         3.1106   53.1383   21.6918 C.3       1 UNK         0.0000 
     17 H17         2.5459   53.9829   21.3092 H         1 UNK         0.0000 
     18 C18         2.1597   52.4576   22.6975 C.ar      1 UNK         0.0000 
     19 C19         1.9806   51.0674   22.7231 C.ar      1 UNK         0.0000 
     20 C20         1.1232   50.4837   23.6514 C.ar      1 UNK         0.0000 
     21 C21         0.4389   51.2693   24.5753 C.ar      1 UNK         0.0000 
     22 C22         0.6021   52.6610   24.5404 C.ar      1 UNK         0.0000 
     23 C23         1.4513   53.2496   23.6062 C.ar      1 UNK         0.0000 
     24 O24        -0.3711   50.5976   25.4705 O.3       1 UNK         0.0000 
     25 C25        -0.7836   51.2317   26.6812 C.3       1 UNK         0.0000 
     26 F26         0.2483   51.6757   27.4025 F         1 UNK         0.0000 
     27 F27        -1.6737   52.2027   26.4676 F         1 UNK         0.0000 
     28 N28         3.3585   52.3558   20.4592 N.pl3     1 UNK         0.0000 
     29 C29         2.3421   51.9386   19.5452 C.ar      1 UNK         0.0000 
     30 C30         0.9862   52.2764   19.6726 C.ar      1 UNK         0.0000 
     31 C31         0.0604   51.8229   18.7277 C.ar      1 UNK         0.0000 
     32 C32         0.4962   51.0311   17.6622 C.ar      1 UNK         0.0000 
     33 C33         1.8510   50.7081   17.5675 C.ar      1 UNK         0.0000 
     34 N34         2.7045   51.1666   18.5019 N.pl3     1 UNK         0.0000 
     35 H35         6.2404   54.7366   27.4811 H         1 UNK         0.0000 
     36 H36         5.1994   55.5962   26.3496 H         1 UNK         0.0000 
     37 H37         4.9242   53.8885   26.6764 H         1 UNK         0.0000 
     38 H38         7.1036   53.3111   25.5987 H         1 UNK         0.0000 
     39 H39         7.4651   54.9938   25.3644 H         1 UNK         0.0000 
     40 H40         4.0752   53.2648   24.4220 H         1 UNK         0.0000 
     41 H41         4.5365   54.4617   19.7472 H         1 UNK         0.0000 
     42 H42         3.5561   55.1181   17.9981 H         1 UNK         0.0000 
     43 H43         3.5927   56.4424   15.6675 H         1 UNK         0.0000 
     44 H44         5.8555   58.0474   15.7993 H         1 UNK         0.0000 
     45 H45         2.5170   50.4266   22.0385 H         1 UNK         0.0000 
     46 H46         1.0084   49.4093   23.6739 H         1 UNK         0.0000 
     47 H47         0.0813   53.2964   25.2363 H         1 UNK         0.0000 
     48 H48         1.5696   54.3240   23.5985 H         1 UNK         0.0000 
     49 H49        -1.2922   50.4963   27.3041 H         1 UNK         0.0000 
     50 H50         4.3101   52.0661   20.2811 H         1 UNK         0.0000 
     51 H51         0.6492   52.8962   20.4891 H         1 UNK         0.0000 
     52 H52        -0.9836   52.0840   18.8186 H         1 UNK         0.0000 
     53 H53        -0.2046   50.6718   16.9218 H         1 UNK         0.0000 
     54 H54         2.3002   50.0976   16.7923 H         1 UNK         0.0000 
     55 H55         3.6856   50.8966   18.4075 H         1 UNK         0.0000 
@<TRIPOS>BOND
     1    1    2 1    
     2    1   35 1    
     3    1   36 1    
     4    1   37 1    
     5    2    3 1    
     6    2   38 1    
     7    2   39 1    
     8    3    7 1    
     9    3    4 2    
    10    4    5 1    
    11    4   40 1    
    12    5    6 2    
    13    5   16 1    
    14    6    7 1    
    15    6    8 am   BACKBONE|DICT|INTERRES
    16    8    9 am   BACKBONE|DICT|INTERRES
    17    8   41 1    
    18    9   10 2    
    19    9   11 1    
    20   11   15 1    
    21   11   12 2    
    22   12   13 1    
    23   12   42 1    
    24   13   14 2    
    25   13   43 1    
    26   14   15 1    
    27   14   44 1    
    28   16   17 1    
    29   16   18 1    
    30   16   28 1    
    31   18   23 ar   
    32   18   19 ar   
    33   19   20 ar   
    34   19   45 1    
    35   20   21 ar   
    36   20   46 1    
    37   21   22 ar   
    38   21   24 1    
    39   22   23 ar   
    40   22   47 1    
    41   23   48 1    
    42   24   25 1    
    43   25   26 1    
    44   25   27 1    
    45   25   49 1    
    46   28   29 1    
    47   28   50 1    
    48   29   34 ar   
    49   29   30 ar   
    50   30   31 ar   
    51   30   51 1    
    52   31   32 ar   
    53   31   52 1    
    54   32   33 ar   
    55   32   53 1    
    56   33   34 ar   
    57   33   54 1    
    58   34   55 1    
@<TRIPOS>SUBSTRUCTURE
     1 UNK         1 GROUP             0       ****    0 ROOT    
