@<TRIPOS>MOLECULE
ZINC60344421_602
70   73    1
SMALL
USER_CHARGES


@<TRIPOS>ATOM
      1 C1         10.5638   55.0678   17.1090 C.3       1 UNK         0.0000 
      2 N2          9.0343   55.0826   17.3290 N.4       1 UNK         0.0000 
      3 C3          8.6686   56.0862   18.4433 C.3       1 UNK         0.0000 
      4 C4          7.1421   56.0562   18.6612 C.3       1 UNK         0.0000 
      5 N5          6.7144   54.7132   19.0717 N.3       1 UNK         0.0000 
      6 C6          7.0187   53.6997   18.0460 C.3       1 UNK         0.0000 
      7 C7          8.5245   53.6646   17.6790 C.3       1 UNK         0.0000 
      8 C8          5.2875   54.7028   19.4373 C.3       1 UNK         0.0000 
      9 C9          4.9130   53.6677   20.5442 C.3       1 UNK         0.0000 
     10 H10         5.5022   52.7681   20.3531 H         1 UNK         0.0000 
     11 C11         5.2585   54.1054   21.9977 C.ar      1 UNK         0.0000 
     12 C12         6.3857   54.8967   22.2555 C.ar      1 UNK         0.0000 
     13 C13         6.7045   55.2877   23.5514 C.ar      1 UNK         0.0000 
     14 C14         5.9397   54.8746   24.6347 C.ar      1 UNK         0.0000 
     15 C15         4.7995   54.0984   24.3937 C.ar      1 UNK         0.0000 
     16 C16         4.4591   53.7342   23.0921 C.ar      1 UNK         0.0000 
     17 O17         6.3793   55.2748   25.8825 O.3       1 UNK         0.0000 
     18 C18         5.7041   54.7911   27.0393 C.3       1 UNK         0.0000 
     19 N19         3.5052   53.2956   20.3366 N.am      1 UNK         0.0000 
     20 C20         2.9578   52.0966   20.5834 C.2       1 UNK         0.0000 
     21 O21         3.4861   51.2282   21.2805 O.2       1 UNK         0.0000 
     22 N22         1.7739   51.9721   19.9576 N.am      1 UNK         0.0000 
     23 C23         0.8731   50.9166   20.1597 C.ar      1 UNK         0.0000 
     24 C24         0.5522   50.1518   19.0338 C.ar      1 UNK         0.0000 
     25 C25        -0.3197   49.0708   19.1421 C.ar      1 UNK         0.0000 
     26 C26        -0.8974   48.7610   20.3710 C.ar      1 UNK         0.0000 
     27 C27        -0.6107   49.5388   21.4923 C.ar      1 UNK         0.0000 
     28 C28         0.2652   50.6278   21.4039 C.ar      1 UNK         0.0000 
     29 S29         0.5422   51.6555   22.8388 S.3       1 UNK         0.0000 
     30 C30         0.1058   50.7612   24.3617 C.3       1 UNK         0.0000 
     31 C31         0.8498   49.4432   24.5799 C.3       1 UNK         0.0000 
     32 C32         0.7025   49.1692   26.0819 C.3       1 UNK         0.0000 
     33 C33         0.4384   50.5261   26.7595 C.3       1 UNK         0.0000 
     34 C34         0.3613   51.5711   25.6362 C.3       1 UNK         0.0000 
     35 H35        11.0426   54.7858   18.0502 H         1 UNK         0.0000 
     36 H36        10.7809   54.3453   16.3218 H         1 UNK         0.0000 
     37 H37        10.8617   56.0720   16.8027 H         1 UNK         0.0000 
     38 H38         8.9832   57.0706   18.0926 H         1 UNK         0.0000 
     39 H39         9.2293   55.8173   19.3413 H         1 UNK         0.0000 
     40 H40         6.8840   56.7889   19.4270 H         1 UNK         0.0000 
     41 H41         6.6252   56.3249   17.7368 H         1 UNK         0.0000 
     42 H42         6.4626   53.9842   17.1507 H         1 UNK         0.0000 
     43 H43         6.6876   52.7044   18.3510 H         1 UNK         0.0000 
     44 H44         8.6797   53.0606   16.7825 H         1 UNK         0.0000 
     45 H45         9.1552   53.2962   18.4828 H         1 UNK         0.0000 
     46 H46         4.9497   55.6854   19.7623 H         1 UNK         0.0000 
     47 H47         4.7148   54.5048   18.5282 H         1 UNK         0.0000 
     48 H48         7.0391   55.2255   21.4662 H         1 UNK         0.0000 
     49 H49         7.5541   55.9239   23.7218 H         1 UNK         0.0000 
     50 H50         4.1683   53.7658   25.2029 H         1 UNK         0.0000 
     51 H51         3.5681   53.1403   22.9666 H         1 UNK         0.0000 
     52 H52         6.1932   55.1833   27.9318 H         1 UNK         0.0000 
     53 H53         4.6650   55.1185   27.0634 H         1 UNK         0.0000 
     54 H54         5.7357   53.7012   27.0949 H         1 UNK         0.0000 
     55 H55         2.8765   54.0434   20.0715 H         1 UNK         0.0000 
     56 H56         1.7511   52.3905   19.0420 H         1 UNK         0.0000 
     57 H57         1.0005   50.3712   18.0761 H         1 UNK         0.0000 
     58 H58        -0.5474   48.4723   18.2719 H         1 UNK         0.0000 
     59 H59        -1.5816   47.9291   20.4521 H         1 UNK         0.0000 
     60 H60        -1.1015   49.2979   22.4217 H         1 UNK         0.0000 
     61 H61        -0.9659   50.5806   24.2629 H         1 UNK         0.0000 
     62 H62         0.4375   48.6157   24.0024 H         1 UNK         0.0000 
     63 H63         1.9042   49.5545   24.3213 H         1 UNK         0.0000 
     64 H64        -0.1394   48.4982   26.2603 H         1 UNK         0.0000 
     65 H65         1.5861   48.6741   26.4841 H         1 UNK         0.0000 
     66 H66        -0.5003   50.4886   27.3155 H         1 UNK         0.0000 
     67 H67         1.2204   50.7741   27.4776 H         1 UNK         0.0000 
     68 H68         1.3116   52.1046   25.5701 H         1 UNK         0.0000 
     69 H69        -0.4347   52.2897   25.8331 H         1 UNK         0.0000 
     70 H70         8.5637   55.3823   16.4844 H         1 UNK         0.0000 
@<TRIPOS>BOND
     1    1    2 1    
     2    1   35 1    
     3    1   36 1    
     4    1   37 1    
     5    2    7 1    
     6    2    3 1    
     7    2   70 1    
     8    3    4 1    
     9    3   38 1    
    10    3   39 1    
    11    4    5 1    
    12    4   40 1    
    13    4   41 1    
    14    5    6 1    
    15    5    8 1    
    16    6    7 1    
    17    6   42 1    
    18    6   43 1    
    19    7   44 1    
    20    7   45 1    
    21    8    9 1    
    22    8   46 1    
    23    8   47 1    
    24    9   10 1    
    25    9   11 1    
    26    9   19 1    
    27   11   16 ar   
    28   11   12 ar   
    29   12   13 ar   
    30   12   48 1    
    31   13   14 ar   
    32   13   49 1    
    33   14   15 ar   
    34   14   17 1    
    35   15   16 ar   
    36   15   50 1    
    37   16   51 1    
    38   17   18 1    
    39   18   52 1    
    40   18   53 1    
    41   18   54 1    
    42   19   20 am   BACKBONE|DICT|INTERRES
    43   19   55 1    
    44   20   21 2    
    45   20   22 am   BACKBONE|DICT|INTERRES
    46   22   23 1    
    47   22   56 1    
    48   23   28 ar   
    49   23   24 ar   
    50   24   25 ar   
    51   24   57 1    
    52   25   26 ar   
    53   25   58 1    
    54   26   27 ar   
    55   26   59 1    
    56   27   28 ar   
    57   27   60 1    
    58   28   29 1    
    59   29   30 1    
    60   30   34 1    
    61   30   31 1    
    62   30   61 1    
    63   31   32 1    
    64   31   62 1    
    65   31   63 1    
    66   32   33 1    
    67   32   64 1    
    68   32   65 1    
    69   33   34 1    
    70   33   66 1    
    71   33   67 1    
    72   34   68 1    
    73   34   69 1    
@<TRIPOS>SUBSTRUCTURE
     1 UNK         1 GROUP             0       ****    0 ROOT    
