@<TRIPOS>MOLECULE
ZINC33628232_5682
76   79    1
SMALL
USER_CHARGES


@<TRIPOS>ATOM
      1 C1          3.4248   51.9688   14.1988 C.3       1 UNK         0.0000 
      2 C2          3.7999   52.7062   15.4668 C.ar      1 UNK         0.0000 
      3 C3          4.5834   53.8588   15.3971 C.ar      1 UNK         0.0000 
      4 C4          4.9615   54.5269   16.5595 C.ar      1 UNK         0.0000 
      5 N5          4.5781   54.0496   17.7915 N.pl3     1 UNK         0.0000 
      6 C6          3.7561   52.9032   17.8627 C.ar      1 UNK         0.0000 
      7 C7          3.3537   52.2268   16.6991 C.ar      1 UNK         0.0000 
      8 N8          3.5075   52.7075   19.1748 N.pl3     1 UNK         0.0000 
      9 C9          4.0717   53.6963   19.9544 C.ar      1 UNK         0.0000 
     10 C10         4.8397   54.5138   19.0872 C.ar      1 UNK         0.0000 
     11 N11         5.6265   55.6398   19.3060 N.pl3     1 UNK         0.0000 
     12 C12         7.0964   55.7580   19.3388 C.3       1 UNK         0.0000 
     13 C13         7.5909   55.5001   20.7843 C.3       1 UNK         0.0000 
     14 C14         7.7999   54.6977   18.4623 C.3       1 UNK         0.0000 
     15 C15         7.5784   57.2172   19.0014 C.3       1 UNK         0.0000 
     16 C16         7.3917   57.9362   17.6218 C.3       1 UNK         0.0000 
     17 C17         8.1283   59.2967   17.7249 C.3       1 UNK         0.0000 
     18 C18         5.9079   58.2510   17.3339 C.3       1 UNK         0.0000 
     19 C19         8.0342   57.1732   16.4432 C.3       1 UNK         0.0000 
     20 C20         3.8361   53.6912   21.4424 C.ar      1 UNK         0.0000 
     21 C21         4.5977   54.4940   22.2876 C.ar      1 UNK         0.0000 
     22 C22         4.3908   54.4966   23.6638 C.ar      1 UNK         0.0000 
     23 C23         3.3700   53.7326   24.2414 C.ar      1 UNK         0.0000 
     24 C24         2.5558   52.9506   23.4079 C.ar      1 UNK         0.0000 
     25 C25         2.8154   52.9195   22.0239 C.ar      1 UNK         0.0000 
     26 O26         1.5370   52.2402   24.0200 O.3       1 UNK         0.0000 
     27 C27         0.6398   51.4684   23.2286 C.3       1 UNK         0.0000 
     28 O28         3.0880   53.7586   25.5975 O.3       1 UNK         0.0000 
     29 C29         4.0596   53.7136   26.5692 C.2       1 UNK         0.0000 
     30 O30         5.2686   53.8616   26.3644 O.2       1 UNK         0.0000 
     31 C31         3.5059   53.3435   27.9096 C.ar      1 UNK         0.0000 
     32 C32         4.3882   52.8958   28.8984 C.ar      1 UNK         0.0000 
     33 C33         3.9043   52.4710   30.1311 C.ar      1 UNK         0.0000 
     34 C34         2.5433   52.5236   30.4149 C.ar      1 UNK         0.0000 
     35 C35         1.6554   53.0006   29.4400 C.ar      1 UNK         0.0000 
     36 C36         2.1339   53.3977   28.1935 C.ar      1 UNK         0.0000 
     37 O37         2.1711   52.0962   31.6713 O.3       1 UNK         0.0000 
     38 C38         0.8118   52.2130   32.0764 C.3       1 UNK         0.0000 
     39 H39         2.4129   51.5687   14.2691 H         1 UNK         0.0000 
     40 H40         3.4442   52.6259   13.3257 H         1 UNK         0.0000 
     41 H41         4.1087   51.1336   14.0337 H         1 UNK         0.0000 
     42 H42         4.9108   54.2359   14.4383 H         1 UNK         0.0000 
     43 H43         5.5623   55.4171   16.5525 H         1 UNK         0.0000 
     44 H44         2.7655   51.3246   16.7601 H         1 UNK         0.0000 
     45 H45         5.2243   56.3924   19.8462 H         1 UNK         0.0000 
     46 H46         7.2220   56.2504   21.4847 H         1 UNK         0.0000 
     47 H47         7.2708   54.5278   21.1556 H         1 UNK         0.0000 
     48 H48         8.6795   55.5193   20.8518 H         1 UNK         0.0000 
     49 H49         8.8849   54.8126   18.4812 H         1 UNK         0.0000 
     50 H50         7.5792   53.6960   18.8298 H         1 UNK         0.0000 
     51 H51         7.4959   54.7061   17.4212 H         1 UNK         0.0000 
     52 H52         8.6440   57.2636   19.2369 H         1 UNK         0.0000 
     53 H53         7.1036   57.8728   19.7314 H         1 UNK         0.0000 
     54 H54         7.9555   59.9138   16.8415 H         1 UNK         0.0000 
     55 H55         9.2053   59.1671   17.8251 H         1 UNK         0.0000 
     56 H56         7.7875   59.8788   18.5824 H         1 UNK         0.0000 
     57 H57         5.2691   57.3739   17.3264 H         1 UNK         0.0000 
     58 H58         5.5038   58.9312   18.0807 H         1 UNK         0.0000 
     59 H59         5.7869   58.7433   16.3664 H         1 UNK         0.0000 
     60 H60         7.4163   56.3612   16.0736 H         1 UNK         0.0000 
     61 H61         8.1962   57.8271   15.5840 H         1 UNK         0.0000 
     62 H62         9.0069   56.7631   16.7165 H         1 UNK         0.0000 
     63 H63         5.3458   55.1484   21.8873 H         1 UNK         0.0000 
     64 H64         5.0070   55.1366   24.2751 H         1 UNK         0.0000 
     65 H65         2.1938   52.3129   21.3845 H         1 UNK         0.0000 
     66 H66        -0.1069   51.0116   23.8799 H         1 UNK         0.0000 
     67 H67         0.1094   52.0904   22.5041 H         1 UNK         0.0000 
     68 H68         1.1556   50.6622   22.7060 H         1 UNK         0.0000 
     69 H69         5.4519   52.8366   28.7089 H         1 UNK         0.0000 
     70 H70         4.5906   52.0981   30.8777 H         1 UNK         0.0000 
     71 H71         0.5934   53.0521   29.6228 H         1 UNK         0.0000 
     72 H72         1.4256   53.7373   27.4524 H         1 UNK         0.0000 
     73 H73         0.7027   51.7617   33.0617 H         1 UNK         0.0000 
     74 H74         0.5078   53.2575   32.1546 H         1 UNK         0.0000 
     75 H75         0.1312   51.6973   31.3993 H         1 UNK         0.0000 
     76 H76         2.9594   51.9437   19.5374 H         1 UNK         0.0000 
@<TRIPOS>BOND
     1    1    2 1    
     2    1   39 1    
     3    1   40 1    
     4    1   41 1    
     5    2    7 ar   
     6    2    3 ar   
     7    3    4 ar   
     8    3   42 1    
     9    4    5 ar   
    10    4   43 1    
    11    5   10 ar   
    12    5    6 ar   
    13    6    7 ar   
    14    6    8 ar   
    15    7   44 1    
    16    8    9 ar   
    17    8   76 1    
    18    9   10 ar   
    19    9   20 1    
    20   10   11 1    
    21   11   12 1    
    22   11   45 1    
    23   12   13 1    
    24   12   14 1    
    25   12   15 1    
    26   13   46 1    
    27   13   47 1    
    28   13   48 1    
    29   14   49 1    
    30   14   50 1    
    31   14   51 1    
    32   15   16 1    
    33   15   52 1    
    34   15   53 1    
    35   16   17 1    
    36   16   18 1    
    37   16   19 1    
    38   17   54 1    
    39   17   55 1    
    40   17   56 1    
    41   18   57 1    
    42   18   58 1    
    43   18   59 1    
    44   19   60 1    
    45   19   61 1    
    46   19   62 1    
    47   20   25 ar   
    48   20   21 ar   
    49   21   22 ar   
    50   21   63 1    
    51   22   23 ar   
    52   22   64 1    
    53   23   24 ar   
    54   23   28 1    
    55   24   25 ar   
    56   24   26 1    
    57   25   65 1    
    58   26   27 1    
    59   27   66 1    
    60   27   67 1    
    61   27   68 1    
    62   28   29 1    
    63   29   30 2    
    64   29   31 1    
    65   31   36 ar   
    66   31   32 ar   
    67   32   33 ar   
    68   32   69 1    
    69   33   34 ar   
    70   33   70 1    
    71   34   35 ar   
    72   34   37 1    
    73   35   36 ar   
    74   35   71 1    
    75   36   72 1    
    76   37   38 1    
    77   38   73 1    
    78   38   74 1    
    79   38   75 1    
@<TRIPOS>SUBSTRUCTURE
     1 UNK         1 GROUP             0       ****    0 ROOT    
