ZINC08733677_2883
                    3D
 Schrodinger Suite 2024-2.
 58 61  0  0  1  0            999 V2000
   -4.2700   51.5789   27.4895 C   0  0  0  0  0  0
   -4.1760   50.3156   26.6313 C   0  0  0  0  0  0
   -3.1096   50.4627   25.7031 O   0  0  0  0  0  0
   -2.6601   49.4089   24.9799 C   0  0  0  0  0  0
   -3.2275   48.3128   25.0049 O   0  0  0  0  0  0
   -1.4371   49.7060   24.1634 C   0  0  0  0  0  0
   -0.8789   48.7542   23.3515 C   0  0  0  0  0  0
    0.2642   48.9791   22.6072 N   0  0  0  0  0  0
    0.8828   50.2011   22.6359 C   0  0  0  0  0  0
    0.4098   51.2657   23.3957 C   0  0  0  0  0  0
    1.2056   52.4136   23.1641 C   0  0  0  0  0  0
    2.3063   52.1891   22.3279 C   0  0  0  0  0  0
    2.2979   50.5601   21.7183 S   0  0  0  0  0  0
    3.4008   53.0489   21.8704 C   0  0  0  0  0  0
    3.6118   53.1148   20.6584 O   0  0  0  0  0  0
    4.3375   53.7083   22.8508 C   0  0  0  0  0  0
    4.1062   53.7454   24.2360 C   0  0  0  0  0  0
    5.0276   54.3398   25.0967 C   0  0  0  0  0  0
    6.1982   54.8931   24.5874 C   0  0  0  0  0  0
    6.4450   54.8745   23.2189 C   0  0  0  0  0  0
    5.5160   54.2947   22.3550 C   0  0  0  0  0  0
    7.1036   55.4503   25.4252 F   0  0  0  0  0  0
    0.9169   53.6335   23.7094 N   0  0  0  0  0  0
   -0.7822   51.1123   24.3617 C   0  0  2  0  0  0
   -1.5301   51.8586   24.0859 H   0  0  0  0  0  0
   -0.3567   51.4339   25.8009 C   0  0  0  0  0  0
   -0.9417   52.4965   26.4867 C   0  0  0  0  0  0
   -0.4805   52.8572   27.7496 C   0  0  0  0  0  0
    0.5374   52.1278   28.3697 C   0  0  0  0  0  0
    1.1067   51.0578   27.6813 C   0  0  0  0  0  0
    0.6530   50.6977   26.4173 C   0  0  0  0  0  0
    1.0212   52.4624   29.7438 C   0  0  0  0  0  0
    2.1186   52.1023   30.1858 O   0  0  0  0  0  0
    0.0812   53.0981   30.4884 O   0  0  0  0  0  0
    0.3069   53.3553   31.8655 C   0  0  0  0  0  0
   -1.4073   47.3415   23.0991 C   0  0  0  0  0  0
   -5.1093   51.5154   28.1824 H   0  0  0  0  0  0
   -3.3615   51.7024   28.0819 H   0  0  0  0  0  0
   -4.4060   52.4697   26.8742 H   0  0  0  0  0  0
   -5.1109   50.1435   26.0951 H   0  0  0  0  0  0
   -3.9977   49.4513   27.2762 H   0  0  0  0  0  0
    0.6296   48.2478   22.0183 H   0  0  0  0  0  0
    3.2415   53.2831   24.6840 H   0  0  0  0  0  0
    4.8508   54.3484   26.1628 H   0  0  0  0  0  0
    7.3569   55.3041   22.8333 H   0  0  0  0  0  0
    5.7364   54.2926   21.2968 H   0  0  0  0  0  0
    0.1744   53.7488   24.3829 H   0  0  0  0  0  0
    1.4780   54.4459   23.4932 H   0  0  0  0  0  0
   -1.7305   53.0725   26.0266 H   0  0  0  0  0  0
   -0.8907   53.7304   28.2287 H   0  0  0  0  0  0
    1.9119   50.4937   28.1262 H   0  0  0  0  0  0
    1.1006   49.8574   25.9075 H   0  0  0  0  0  0
   -0.6004   53.7300   32.3337 H   0  0  0  0  0  0
    0.6006   52.4477   32.3982 H   0  0  0  0  0  0
    1.0946   54.0959   31.9872 H   0  0  0  0  0  0
   -2.4618   47.3735   22.8222 H   0  0  0  0  0  0
   -0.8990   46.8193   22.2867 H   0  0  0  0  0  0
   -1.2979   46.7382   24.0014 H   0  0  0  0  0  0
  1  2  1  0  0  0
  1 37  1  0  0  0
  1 38  1  0  0  0
  1 39  1  0  0  0
  2  3  1  0  0  0
  2 40  1  0  0  0
  2 41  1  0  0  0
  3  4  1  0  0  0
  4  5  2  0  0  0
  4  6  1  0  0  0
  6 24  1  0  0  0
  6  7  2  0  0  0
  7  8  1  0  0  0
  7 36  1  0  0  0
  8  9  1  0  0  0
  8 42  1  0  0  0
  9 13  1  0  0  0
  9 10  2  0  0  0
 10 11  1  0  0  0
 10 24  1  0  0  0
 11 12  2  0  0  0
 11 23  1  0  0  0
 12 13  1  0  0  0
 12 14  1  0  0  0
 14 15  2  0  0  0
 14 16  1  0  0  0
 16 21  2  0  0  0
 16 17  1  0  0  0
 17 18  2  0  0  0
 17 43  1  0  0  0
 18 19  1  0  0  0
 18 44  1  0  0  0
 19 20  2  0  0  0
 19 22  1  0  0  0
 20 21  1  0  0  0
 20 45  1  0  0  0
 21 46  1  0  0  0
 23 47  1  0  0  0
 23 48  1  0  0  0
 24 25  1  0  0  0
 24 26  1  0  0  0
 26 31  2  0  0  0
 26 27  1  0  0  0
 27 28  2  0  0  0
 27 49  1  0  0  0
 28 29  1  0  0  0
 28 50  1  0  0  0
 29 30  2  0  0  0
 29 32  1  0  0  0
 30 31  1  0  0  0
 30 51  1  0  0  0
 31 52  1  0  0  0
 32 33  2  0  0  0
 32 34  1  0  0  0
 34 35  1  0  0  0
 35 53  1  0  0  0
 35 54  1  0  0  0
 35 55  1  0  0  0
 36 56  1  0  0  0
 36 57  1  0  0  0
 36 58  1  0  0  0
M  END
> <i_i_glide_confnum>
43

> <i_i_glide_lignum>
2884

> <i_i_glide_posenum>
373

> <i_i_glide_rotatable_bonds>
8

> <i_m_Source_File_Index>
1327

> <b_m_subgroup_collapsed>
0

> <r_i_docking_score>
-4.42932

> <r_i_glide_ecoul>
-1.22541

> <r_i_glide_eff_state_penalty>
0

> <r_i_glide_einternal>
8.18878

> <r_i_glide_emodel>
-49.0001

> <r_i_glide_energy>
-40.6997

> <r_i_glide_erotb>
0.499968

> <r_i_glide_esite>
-0.0413978

> <r_i_glide_evdw>
-39.4743

> <r_i_glide_gscore>
-4.42932

> <r_i_glide_hbond>
-0.21032

> <r_i_glide_ligand_efficiency>
-0.126552

> <r_i_glide_ligand_efficiency_ln>
-0.972334

> <r_i_glide_ligand_efficiency_sa>
-0.41396

> <r_i_glide_lipo>
-2.17667

> <r_i_glide_metal>
0

> <r_i_glide_rewards>
-0.343377

> <s_i_glide_gridfile>
wee1_glide-grid

> <s_m_Source_File>
wee1_decoys_glide_SP.sdf

> <s_m_Source_Path>
/Users/zhangxujun/Desktop

> <s_m_entry_id>
1602

> <s_m_entry_name>
wee1_decoys_glide_SP.1327

> <s_m_subgroup_title>
wee1_decoys_glide_SP

> <s_m_subgroupid>
wee1_decoys_glide_SP


$$$$
