ZINC34923501_5952
                    3D
 Schrodinger Suite 2024-2.
 57 60  0  0  1  0            999 V2000
    2.6952   53.1641   24.0108 C   0  0  0  0  0  0
    1.5044   52.2344   24.2307 C   0  0  0  0  0  0
    0.8085   52.0442   25.3977 C   0  0  0  0  0  0
   -0.3664   51.0137   25.4253 C   0  0  2  0  0  0
   -0.2659   50.3843   26.3119 H   0  0  0  0  0  0
   -0.2485   50.0876   24.2627 N   0  0  0  0  0  0
   -0.9851   48.9216   24.0881 C   0  0  0  0  0  0
   -0.9485   48.5029   22.8083 C   0  0  0  0  0  0
    0.0428   49.5112   21.7564 S   0  0  0  0  0  0
    0.4627   50.5255   23.1478 C   0  0  0  0  0  0
    1.2320   51.5443   23.0821 N   0  0  0  0  0  0
   -1.6937   48.2307   25.1636 C   0  0  0  0  0  0
   -2.2269   46.9931   25.1805 C   0  0  0  0  0  0
   -2.3043   46.0975   24.2598 O   0  5  0  0  0  0
   -2.7919   46.5263   26.3482 N   0  0  0  0  0  0
   -3.9425   45.6439   26.5586 C   0  0  0  0  0  0
   -4.8874   46.1056   27.6713 C   0  0  0  0  0  0
   -4.4616   46.9469   28.7109 C   0  0  0  0  0  0
   -5.3444   47.3412   29.7158 C   0  0  0  0  0  0
   -6.6654   46.8943   29.7004 C   0  0  0  0  0  0
   -7.0920   46.0393   28.6840 C   0  0  0  0  0  0
   -6.2094   45.6417   27.6774 C   0  0  0  0  0  0
   -6.6446   44.8027   26.7074 F   0  0  0  0  0  0
   -1.7489   51.6850   25.4714 C   0  0  0  0  0  0
   -2.1546   52.5271   24.4308 C   0  0  0  0  0  0
   -3.3935   53.1589   24.4817 C   0  0  0  0  0  0
   -4.2501   52.9519   25.5618 C   0  0  0  0  0  0
   -3.8511   52.0935   26.5983 C   0  0  0  0  0  0
   -2.6049   51.4672   26.5548 C   0  0  0  0  0  0
   -5.4521   53.6323   25.5229 O   0  0  0  0  0  0
   -6.4306   53.3769   26.5238 C   0  0  0  0  0  0
    1.1040   52.7795   26.6544 C   0  0  0  0  0  0
    1.9239   53.6985   26.7386 O   0  0  0  0  0  0
    0.3687   52.3547   27.7117 O   0  0  0  0  0  0
    0.4911   52.9691   28.9849 C   0  0  0  0  0  0
    3.4146   53.0820   24.8271 H   0  0  0  0  0  0
    3.2436   52.9449   23.0888 H   0  0  0  0  0  0
    2.3510   54.1975   23.9518 H   0  0  0  0  0  0
   -1.4364   47.6280   22.4080 H   0  0  0  0  0  0
   -1.7884   48.7840   26.0822 H   0  0  0  0  0  0
   -2.3848   46.8768   27.2074 H   0  0  0  0  0  0
   -3.5594   44.6744   26.8790 H   0  0  0  0  0  0
   -4.4901   45.4837   25.6292 H   0  0  0  0  0  0
   -3.4396   47.2968   28.7575 H   0  0  0  0  0  0
   -4.9978   47.9955   30.5025 H   0  0  0  0  0  0
   -7.3533   47.2055   30.4747 H   0  0  0  0  0  0
   -8.1113   45.6821   28.6711 H   0  0  0  0  0  0
   -1.5015   52.7031   23.5883 H   0  0  0  0  0  0
   -3.6928   53.8181   23.6803 H   0  0  0  0  0  0
   -4.4904   51.9065   27.4466 H   0  0  0  0  0  0
   -2.3099   50.8071   27.3617 H   0  0  0  0  0  0
   -7.3313   53.9454   26.2913 H   0  0  0  0  0  0
   -6.7049   52.3221   26.5586 H   0  0  0  0  0  0
   -6.0954   53.6927   27.5111 H   0  0  0  0  0  0
   -0.1875   52.4912   29.6922 H   0  0  0  0  0  0
    1.5067   52.8718   29.3725 H   0  0  0  0  0  0
    0.2403   54.0289   28.9351 H   0  0  0  0  0  0
  1  2  1  0  0  0
  1 36  1  0  0  0
  1 37  1  0  0  0
  1 38  1  0  0  0
  2 11  1  0  0  0
  2  3  2  0  0  0
  3  4  1  0  0  0
  3 32  1  0  0  0
  4  5  1  0  0  0
  4  6  1  0  0  0
  4 24  1  0  0  0
  6 10  1  0  0  0
  6  7  1  0  0  0
  7  8  2  0  0  0
  7 12  1  0  0  0
  8  9  1  0  0  0
  8 39  1  0  0  0
  9 10  1  0  0  0
 10 11  2  0  0  0
 12 13  2  0  0  0
 12 40  1  0  0  0
 13 14  1  0  0  0
 13 15  1  0  0  0
 15 16  1  0  0  0
 15 41  1  0  0  0
 16 17  1  0  0  0
 16 42  1  0  0  0
 16 43  1  0  0  0
 17 22  2  0  0  0
 17 18  1  0  0  0
 18 19  2  0  0  0
 18 44  1  0  0  0
 19 20  1  0  0  0
 19 45  1  0  0  0
 20 21  2  0  0  0
 20 46  1  0  0  0
 21 22  1  0  0  0
 21 47  1  0  0  0
 22 23  1  0  0  0
 24 29  2  0  0  0
 24 25  1  0  0  0
 25 26  2  0  0  0
 25 48  1  0  0  0
 26 27  1  0  0  0
 26 49  1  0  0  0
 27 28  2  0  0  0
 27 30  1  0  0  0
 28 29  1  0  0  0
 28 50  1  0  0  0
 29 51  1  0  0  0
 30 31  1  0  0  0
 31 52  1  0  0  0
 31 53  1  0  0  0
 31 54  1  0  0  0
 32 33  2  0  0  0
 32 34  1  0  0  0
 34 35  1  0  0  0
 35 55  1  0  0  0
 35 56  1  0  0  0
 35 57  1  0  0  0
M  CHG  1  14  -1
M  END
> <i_i_glide_confnum>
43

> <i_i_glide_lignum>
5953

> <i_i_glide_posenum>
209

> <i_i_glide_rotatable_bonds>
8

> <i_m_Source_File_Index>
1236

> <b_m_subgroup_collapsed>
0

> <r_i_docking_score>
-3.4477

> <r_i_glide_ecoul>
-3.6722

> <r_i_glide_eff_state_penalty>
0

> <r_i_glide_einternal>
4.95024

> <r_i_glide_emodel>
-46.8063

> <r_i_glide_energy>
-39.0824

> <r_i_glide_erotb>
0.439124

> <r_i_glide_esite>
-0.104424

> <r_i_glide_evdw>
-35.4102

> <r_i_glide_gscore>
-3.4477

> <r_i_glide_hbond>
-0.167143

> <r_i_glide_ligand_efficiency>
-0.101403

> <r_i_glide_ligand_efficiency_ln>
-0.761695

> <r_i_glide_ligand_efficiency_sa>
-0.328507

> <r_i_glide_lipo>
-0.929861

> <r_i_glide_metal>
0

> <r_i_glide_rewards>
-0.36406

> <s_i_glide_gridfile>
wee1_glide-grid

> <s_m_Source_File>
wee1_decoys_glide_SP.sdf

> <s_m_Source_Path>
/Users/zhangxujun/Desktop

> <s_m_entry_id>
1511

> <s_m_entry_name>
wee1_decoys_glide_SP.1236

> <s_m_subgroup_title>
wee1_decoys_glide_SP

> <s_m_subgroupid>
wee1_decoys_glide_SP


$$$$
