ZINC16695580_1172
                    3D
 Schrodinger Suite 2024-2.
 61 66  0  0  1  0            999 V2000
    1.9063   47.8631   18.3861 C   0  0  0  0  0  0
    1.7149   46.8965   17.3903 C   0  0  0  0  0  0
    0.6832   45.9841   17.5757 C   0  0  0  0  0  0
   -0.1201   46.0203   18.6794 C   0  0  0  0  0  0
    0.0460   46.9707   19.6811 C   0  0  0  0  0  0
    1.0873   47.9113   19.5290 C   0  0  0  0  0  0
    1.4122   48.8953   20.4774 N   0  0  0  0  0  0
    0.6577   49.4050   21.4755 C   0  0  0  0  0  0
   -0.5004   49.0617   21.7168 O   0  0  0  0  0  0
    1.3293   50.5230   22.3086 C   0  0  2  0  0  0
    0.6017   50.7517   23.6611 C   0  0  0  0  0  0
    1.2738   51.8996   24.4495 C   0  0  0  0  0  0
    2.0801   52.9091   22.2337 C   0  0  0  0  0  0
    1.3375   51.8139   21.4573 C   0  0  0  0  0  0
    1.9215   54.3631   24.3412 C   0  0  0  0  0  0
    3.3898   54.2630   24.7750 C   0  0  0  0  0  0
    4.4045   54.4966   23.8379 C   0  0  0  0  0  0
    5.7417   54.4954   24.2207 C   0  0  0  0  0  0
    6.0836   54.2599   25.5483 C   0  0  0  0  0  0
    5.0971   54.0113   26.5022 C   0  0  0  0  0  0
    3.7493   54.0301   26.1101 C   0  0  0  0  0  0
    2.7319   53.8770   27.0353 O   0  0  0  0  0  0
    3.1294   53.2520   28.2296 C   0  0  1  0  0  0
    3.3876   52.2118   28.0048 H   0  0  0  0  0  0
    4.2432   53.9131   28.7747 O   0  0  0  0  0  0
    5.4050   53.7354   27.9633 C   0  0  0  0  0  0
    2.0177   53.3954   29.2000 C   0  0  0  0  0  0
    1.2584   52.3334   29.7183 C   0  0  0  0  0  0
    0.3049   52.7263   30.6486 C   0  0  0  0  0  0
    0.3044   54.4384   30.8817 S   0  0  0  0  0  0
    1.5770   54.6090   29.7225 C   0  0  0  0  0  0
    6.7042   54.7300   23.3002 F   0  0  0  0  0  0
   -1.0048   44.9895   18.6212 O   0  0  0  0  0  0
   -0.8837   44.4661   17.3259 C   0  0  0  0  0  0
    0.3271   44.9327   16.7946 O   0  0  0  0  0  0
    2.7036   48.5798   18.2537 H   0  0  0  0  0  0
    2.3590   46.8730   16.5227 H   0  0  0  0  0  0
   -0.5882   46.9504   20.5519 H   0  0  0  0  0  0
    2.3138   49.3220   20.3346 H   0  0  0  0  0  0
    2.3468   50.1650   22.4871 H   0  0  0  0  0  0
   -0.4333   51.0649   23.5120 H   0  0  0  0  0  0
    0.6583   49.8663   24.2974 H   0  0  0  0  0  0
    2.3043   51.6968   24.7348 H   0  0  0  0  0  0
    0.6869   52.1514   25.3377 H   0  0  0  0  0  0
    3.1073   52.6174   22.4645 H   0  0  0  0  0  0
    2.0745   53.8482   21.6818 H   0  0  0  0  0  0
    1.8889   51.6929   20.5233 H   0  0  0  0  0  0
    0.3291   52.1915   21.2731 H   0  0  0  0  0  0
    1.7792   55.2177   23.6797 H   0  0  0  0  0  0
    1.2418   54.4920   25.1825 H   0  0  0  0  0  0
    4.1614   54.7086   22.8074 H   0  0  0  0  0  0
    7.1212   54.2511   25.8321 H   0  0  0  0  0  0
    5.7488   52.7049   28.0620 H   0  0  0  0  0  0
    6.2066   54.3790   28.3271 H   0  0  0  0  0  0
    1.4078   51.3007   29.4350 H   0  0  0  0  0  0
   -0.3899   52.1030   31.2055 H   0  0  0  0  0  0
    1.9650   55.5902   29.4948 H   0  0  0  0  0  0
   -0.9031   43.3766   17.3414 H   0  0  0  0  0  0
   -1.7106   44.8285   16.7110 H   0  0  0  0  0  0
    1.3283   53.1617   23.5612 N   0  3  2  0  0  0
    0.3740   53.4046   23.3226 H   0  0  0  0  0  0
  1  6  2  0  0  0
  1  2  1  0  0  0
  1 36  1  0  0  0
  2  3  2  0  0  0
  2 37  1  0  0  0
  3 35  1  0  0  0
  3  4  1  0  0  0
  4  5  2  0  0  0
  4 33  1  0  0  0
  5  6  1  0  0  0
  5 38  1  0  0  0
  6  7  1  0  0  0
  7  8  1  0  0  0
  7 39  1  0  0  0
  8  9  2  0  0  0
  8 10  1  0  0  0
 10 14  1  0  0  0
 10 11  1  0  0  0
 10 40  1  0  0  0
 11 12  1  0  0  0
 11 41  1  0  0  0
 11 42  1  0  0  0
 12 43  1  0  0  0
 12 44  1  0  0  0
 12 60  1  0  0  0
 13 14  1  0  0  0
 13 45  1  0  0  0
 13 46  1  0  0  0
 13 60  1  0  0  0
 14 47  1  0  0  0
 14 48  1  0  0  0
 15 16  1  0  0  0
 15 49  1  0  0  0
 15 50  1  0  0  0
 15 60  1  0  0  0
 16 21  2  0  0  0
 16 17  1  0  0  0
 17 18  2  0  0  0
 17 51  1  0  0  0
 18 19  1  0  0  0
 18 32  1  0  0  0
 19 20  2  0  0  0
 19 52  1  0  0  0
 20 26  1  0  0  0
 20 21  1  0  0  0
 21 22  1  0  0  0
 22 23  1  0  0  0
 23 24  1  0  0  0
 23 25  1  0  0  0
 23 27  1  0  0  0
 25 26  1  0  0  0
 26 53  1  0  0  0
 26 54  1  0  0  0
 27 31  2  0  0  0
 27 28  1  0  0  0
 28 29  2  0  0  0
 28 55  1  0  0  0
 29 30  1  0  0  0
 29 56  1  0  0  0
 30 31  1  0  0  0
 31 57  1  0  0  0
 33 34  1  0  0  0
 34 35  1  0  0  0
 34 58  1  0  0  0
 34 59  1  0  0  0
 60 61  1  0  0  0
M  CHG  1  60   1
M  END
> <i_i_glide_confnum>
125

> <i_i_glide_lignum>
1173

> <i_i_glide_posenum>
395

> <i_i_glide_rotatable_bonds>
6

> <i_m_Source_File_Index>
3358

> <b_m_subgroup_collapsed>
0

> <r_i_docking_score>
-5.89497

> <r_i_glide_ecoul>
-3.23637

> <r_i_glide_eff_state_penalty>
0

> <r_i_glide_einternal>
7.40626

> <r_i_glide_emodel>
-59.9875

> <r_i_glide_energy>
-45.6196

> <r_i_glide_erotb>
0.494415

> <r_i_glide_esite>
-0.00261882

> <r_i_glide_evdw>
-42.3832

> <r_i_glide_gscore>
-5.89497

> <r_i_glide_hbond>
0

> <r_i_glide_ligand_efficiency>
-0.168428

> <r_i_glide_ligand_efficiency_ln>
-1.29408

> <r_i_glide_ligand_efficiency_sa>
-0.550938

> <r_i_glide_lipo>
-3.01463

> <r_i_glide_metal>
0

> <r_i_glide_rewards>
-0.767525

> <s_i_glide_gridfile>
wee1_glide-grid

> <s_m_Source_File>
wee1_decoys_glide_SP.sdf

> <s_m_Source_Path>
/Users/zhangxujun/Desktop

> <s_m_entry_id>
3633

> <s_m_entry_name>
wee1_decoys_glide_SP.3358

> <s_m_subgroup_title>
wee1_decoys_glide_SP

> <s_m_subgroupid>
wee1_decoys_glide_SP


$$$$
