@<TRIPOS>MOLECULE
ZINC12637886_5383
70   74    1
SMALL
USER_CHARGES


@<TRIPOS>ATOM
      1 C1         -3.7424   49.4300   26.1985 C.3       1 UNK         0.0000 
      2 C2         -2.4882   50.1618   25.7589 C.ar      1 UNK         0.0000 
      3 C3         -1.3385   49.4337   25.4510 C.ar      1 UNK         0.0000 
      4 C4         -0.1731   50.0958   25.0837 C.ar      1 UNK         0.0000 
      5 C5         -0.1529   51.4985   25.0280 C.ar      1 UNK         0.0000 
      6 C6         -1.3087   52.2214   25.3361 C.ar      1 UNK         0.0000 
      7 C7         -2.4740   51.5557   25.7010 C.ar      1 UNK         0.0000 
      8 N8          1.0352   52.1876   24.6659 N.am      1 UNK         0.0000 
      9 C9          1.6601   53.1673   25.6658 C.3       1 UNK         0.0000 
     10 H10         1.1045   54.0623   25.3918 H         1 UNK         0.0000 
     11 C11         1.3297   53.0270   27.1725 C.ar      1 UNK         0.0000 
     12 C12         0.9346   51.8359   27.7985 C.ar      1 UNK         0.0000 
     13 C13         0.5604   51.8171   29.1417 C.ar      1 UNK         0.0000 
     14 C14         0.6539   52.9668   29.9230 C.ar      1 UNK         0.0000 
     15 C15         1.1145   54.1615   29.3549 C.ar      1 UNK         0.0000 
     16 C16         1.4329   54.1710   27.9863 C.ar      1 UNK         0.0000 
     17 O17         1.2144   55.2725   30.1775 O.3       1 UNK         0.0000 
     18 C18         1.7311   56.4973   29.6665 C.3       1 UNK         0.0000 
     19 O19         0.3036   52.9175   31.2527 O.3       1 UNK         0.0000 
     20 C20         3.1009   53.7010   25.4210 C.2       1 UNK         0.0000 
     21 O21         3.2927   54.4990   24.5047 O.2       1 UNK         0.0000 
     22 N22         4.0577   53.3488   26.2925 N.am      1 UNK         0.0000 
     23 C23         5.4786   53.6678   26.1356 C.3       1 UNK         0.0000 
     24 C24         5.7696   55.1523   26.2925 C.3       1 UNK         0.0000 
     25 C25         5.7995   55.2955   27.8028 C.3       1 UNK         0.0000 
     26 C26         6.5128   54.0668   28.3329 C.3       1 UNK         0.0000 
     27 C27         6.2955   53.0100   27.2643 C.3       1 UNK         0.0000 
     28 C28         1.4974   51.9959   23.3679 C.2       1 UNK         0.0000 
     29 O29         2.5722   52.4033   22.9329 O.2       1 UNK         0.0000 
     30 C30         0.6668   51.2467   22.3468 C.ar      1 UNK         0.0000 
     31 C31         1.2131   50.1415   21.6751 C.ar      1 UNK         0.0000 
     32 C32         0.4848   49.4777   20.6871 C.ar      1 UNK         0.0000 
     33 C33        -0.7863   49.9336   20.3446 C.ar      1 UNK         0.0000 
     34 C34        -1.3375   51.0451   21.0019 C.ar      1 UNK         0.0000 
     35 C35        -0.6136   51.6979   21.9960 C.ar      1 UNK         0.0000 
     36 O36        -2.5599   51.5779   20.6459 O.3       1 UNK         0.0000 
     37 C37        -3.4028   50.6590   19.9414 C.3       1 UNK         0.0000 
     38 C38        -2.6019   49.9302   18.8354 C.3       1 UNK         0.0000 
     39 O39        -1.4921   49.2191   19.3973 O.3       1 UNK         0.0000 
     40 H40        -3.4803   48.6144   26.8748 H         1 UNK         0.0000 
     41 H41        -4.4216   50.0850   26.7459 H         1 UNK         0.0000 
     42 H42        -4.2627   49.0052   25.3398 H         1 UNK         0.0000 
     43 H43        -1.3386   48.3565   25.5242 H         1 UNK         0.0000 
     44 H44         0.7152   49.5200   24.8622 H         1 UNK         0.0000 
     45 H45        -1.3058   53.2963   25.2891 H         1 UNK         0.0000 
     46 H46        -3.3591   52.1240   25.9448 H         1 UNK         0.0000 
     47 H47         0.8941   50.9032   27.2628 H         1 UNK         0.0000 
     48 H48         0.1999   50.8970   29.5725 H         1 UNK         0.0000 
     49 H49         1.7672   55.0873   27.5314 H         1 UNK         0.0000 
     50 H50         1.7691   57.2353   30.4685 H         1 UNK         0.0000 
     51 H51         2.7435   56.3783   29.2815 H         1 UNK         0.0000 
     52 H52         1.0967   56.9059   28.8799 H         1 UNK         0.0000 
     53 H53        -0.2282   52.1605   31.5317 H         1 UNK         0.0000 
     54 H54         3.8234   52.6905   27.0211 H         1 UNK         0.0000 
     55 H55         5.7707   53.2967   25.1516 H         1 UNK         0.0000 
     56 H56         5.0499   55.8034   25.7979 H         1 UNK         0.0000 
     57 H57         6.7425   55.3883   25.8601 H         1 UNK         0.0000 
     58 H58         4.7827   55.2966   28.2019 H         1 UNK         0.0000 
     59 H59         6.3044   56.1994   28.0820 H         1 UNK         0.0000 
     60 H60         6.0850   53.7604   29.2815 H         1 UNK         0.0000 
     61 H61         7.5768   54.2502   28.4813 H         1 UNK         0.0000 
     62 H62         7.2801   52.7427   26.8854 H         1 UNK         0.0000 
     63 H63         5.8336   52.1139   27.6783 H         1 UNK         0.0000 
     64 H64         2.2077   49.7932   21.9145 H         1 UNK         0.0000 
     65 H65         0.9082   48.6230   20.1813 H         1 UNK         0.0000 
     66 H66        -1.0432   52.5657   22.4739 H         1 UNK         0.0000 
     67 H67        -4.2515   51.1928   19.5141 H         1 UNK         0.0000 
     68 H68        -3.7930   49.9196   20.6446 H         1 UNK         0.0000 
     69 H69        -2.2316   50.6650   18.1172 H         1 UNK         0.0000 
     70 H70        -3.2397   49.2304   18.2963 H         1 UNK         0.0000 
@<TRIPOS>BOND
     1    1    2 1    
     2    1   40 1    
     3    1   41 1    
     4    1   42 1    
     5    2    7 ar   
     6    2    3 ar   
     7    3    4 ar   
     8    3   43 1    
     9    4    5 ar   
    10    4   44 1    
    11    5    6 ar   
    12    5    8 1    
    13    6    7 ar   
    14    6   45 1    
    15    7   46 1    
    16    8    9 1    
    17    8   28 am   BACKBONE|DICT|INTERRES
    18    9   10 1    
    19    9   11 1    
    20    9   20 1    
    21   11   16 ar   
    22   11   12 ar   
    23   12   13 ar   
    24   12   47 1    
    25   13   14 ar   
    26   13   48 1    
    27   14   15 ar   
    28   14   19 1    
    29   15   16 ar   
    30   15   17 1    
    31   16   49 1    
    32   17   18 1    
    33   18   50 1    
    34   18   51 1    
    35   18   52 1    
    36   19   53 1    
    37   20   21 2    
    38   20   22 am   BACKBONE|DICT|INTERRES
    39   22   23 1    
    40   22   54 1    
    41   23   27 1    
    42   23   24 1    
    43   23   55 1    
    44   24   25 1    
    45   24   56 1    
    46   24   57 1    
    47   25   26 1    
    48   25   58 1    
    49   25   59 1    
    50   26   27 1    
    51   26   60 1    
    52   26   61 1    
    53   27   62 1    
    54   27   63 1    
    55   28   29 2    
    56   28   30 1    
    57   30   35 ar   
    58   30   31 ar   
    59   31   32 ar   
    60   31   64 1    
    61   32   33 ar   
    62   32   65 1    
    63   33   39 1    
    64   33   34 ar   
    65   34   35 ar   
    66   34   36 1    
    67   35   66 1    
    68   36   37 1    
    69   37   38 1    
    70   37   67 1    
    71   37   68 1    
    72   38   39 1    
    73   38   69 1    
    74   38   70 1    
@<TRIPOS>SUBSTRUCTURE
     1 UNK         1 GROUP             0       ****    0 ROOT    
