@<TRIPOS>MOLECULE
ZINC37928302_4789
41   42    1
SMALL
USER_CHARGES


@<TRIPOS>ATOM
      1 C1          2.7477   55.4685   29.1094 C.3       1 UNK         0.0000 
      2 C2          1.5405   54.5290   29.0268 C.3       1 UNK         0.0000 
      3 H3          0.7045   55.1200   28.6469 H         1 UNK         0.0000 
      4 C4          1.1573   53.9932   30.4279 C.3       1 UNK         0.0000 
      5 C5         -0.0952   53.1185   30.3626 C.3       1 UNK         0.0000 
      6 C6          0.0355   51.9887   29.3275 C.3       1 UNK         0.0000 
      7 C7          0.4346   52.5443   27.9460 C.3       1 UNK         0.0000 
      8 H8         -0.3576   53.2095   27.6038 H         1 UNK         0.0000 
      9 C9          1.7600   53.3610   28.0231 C.3       1 UNK         0.0000 
     10 H10         1.9247   53.7897   27.0324 H         1 UNK         0.0000 
     11 C11         3.0040   52.5134   28.3813 C.3       1 UNK         0.0000 
     12 N12         0.5835   51.3900   27.0201 N.pl3     1 UNK         0.0000 
     13 S13        -0.3907   51.2912   25.5500 S.o2      1 UNK         0.0000 
     14 O14        -1.0265   49.9714   25.5466 O.2       1 UNK         0.0000 
     15 O15        -1.2184   52.4967   25.4486 O.2       1 UNK         0.0000 
     16 C16         0.7778   51.3519   24.1773 C.ar      1 UNK         0.0000 
     17 C17         1.3628   52.5744   23.8206 C.ar      1 UNK         0.0000 
     18 C18         2.2241   52.6553   22.7271 C.ar      1 UNK         0.0000 
     19 C19         2.5190   51.5160   21.9840 C.ar      1 UNK         0.0000 
     20 C20         1.9637   50.2908   22.3429 C.ar      1 UNK         0.0000 
     21 C21         1.0948   50.2036   23.4310 C.ar      1 UNK         0.0000 
     22 F22         0.5693   48.9923   23.7273 F         1 UNK         0.0000 
     23 N23         3.3726   51.6056   20.8866 N.pl3     1 UNK         0.0000 
     24 F24         1.1037   53.6998   24.5217 F         1 UNK         0.0000 
     25 H25         3.5805   55.0240   29.6533 H         1 UNK         0.0000 
     26 H26         3.1048   55.6967   28.1076 H         1 UNK         0.0000 
     27 H27         2.4931   56.4092   29.6005 H         1 UNK         0.0000 
     28 H28         1.9827   53.4364   30.8747 H         1 UNK         0.0000 
     29 H29         0.9887   54.8282   31.1105 H         1 UNK         0.0000 
     30 H30        -0.3380   52.7117   31.3439 H         1 UNK         0.0000 
     31 H31        -0.8976   53.7834   30.0809 H         1 UNK         0.0000 
     32 H32         0.7943   51.2954   29.6814 H         1 UNK         0.0000 
     33 H33        -0.8924   51.4193   29.2632 H         1 UNK         0.0000 
     34 H34         2.9580   52.0748   29.3757 H         1 UNK         0.0000 
     35 H35         3.9258   53.0896   28.3143 H         1 UNK         0.0000 
     36 H36         3.1042   51.6969   27.6819 H         1 UNK         0.0000 
     37 H37         0.6283   50.4922   27.5053 H         1 UNK         0.0000 
     38 H38         2.6556   53.6094   22.4608 H         1 UNK         0.0000 
     39 H39         2.2009   49.3973   21.7816 H         1 UNK         0.0000 
     40 H40         3.6487   52.5222   20.5654 H         1 UNK         0.0000 
     41 H41         3.4710   50.8136   20.2625 H         1 UNK         0.0000 
@<TRIPOS>BOND
     1    1    2 1    
     2    1   25 1    
     3    1   26 1    
     4    1   27 1    
     5    2    3 1    
     6    2    9 1    
     7    2    4 1    
     8    4    5 1    
     9    4   28 1    
    10    4   29 1    
    11    5    6 1    
    12    5   30 1    
    13    5   31 1    
    14    6    7 1    
    15    6   32 1    
    16    6   33 1    
    17    7    8 1    
    18    7    9 1    
    19    7   12 1    
    20    9   10 1    
    21    9   11 1    
    22   11   34 1    
    23   11   35 1    
    24   11   36 1    
    25   12   13 1    
    26   12   37 1    
    27   13   14 2    
    28   13   15 2    
    29   13   16 1    
    30   16   21 ar   
    31   16   17 ar   
    32   17   18 ar   
    33   17   24 1    
    34   18   19 ar   
    35   18   38 1    
    36   19   20 ar   
    37   19   23 1    
    38   20   21 ar   
    39   20   39 1    
    40   21   22 1    
    41   23   40 1    
    42   23   41 1    
@<TRIPOS>SUBSTRUCTURE
     1 UNK         1 GROUP             0       ****    0 ROOT    
