@<TRIPOS>MOLECULE
ZINC13456981_1947
44   47    1
SMALL
USER_CHARGES


@<TRIPOS>ATOM
      1 C1          1.4937   52.7752   28.6729 C.ar      1 UNK         0.0000 
      2 C2          0.6862   52.4494   27.5883 C.ar      1 UNK         0.0000 
      3 C3          1.1041   52.7221   26.2874 C.ar      1 UNK         0.0000 
      4 C4          2.3632   53.3305   26.0509 C.ar      1 UNK         0.0000 
      5 C5          2.8237   53.6138   24.7435 C.ar      1 UNK         0.0000 
      6 C6          4.1011   54.1491   24.5236 C.ar      1 UNK         0.0000 
      7 C7          4.9245   54.4812   25.6190 C.ar      1 UNK         0.0000 
      8 C8          4.4621   54.2316   26.9208 C.ar      1 UNK         0.0000 
      9 C9          3.1949   53.6513   27.1611 C.ar      1 UNK         0.0000 
     10 C10         2.7373   53.3717   28.4755 C.ar      1 UNK         0.0000 
     11 C11         6.2973   55.0718   25.4386 C.2       1 UNK         0.0000 
     12 O12         7.1022   54.9525   26.3910 O.co2     1 UNK         0.0000 
     13 O13         4.5296   54.3952   23.2342 O.3       1 UNK         0.0000 
     14 C14         4.4255   53.3537   22.2598 C.3       1 UNK         0.0000 
     15 C15         4.7980   53.9159   20.8786 C.2       1 UNK         0.0000 
     16 O16         4.3371   53.3753   19.8730 O.2       1 UNK         0.0000 
     17 N17         5.6529   54.9637   20.8410 N.am      1 UNK         0.0000 
     18 C18         6.0366   55.6968   19.7023 C.ar      1 UNK         0.0000 
     19 C19         5.1043   56.0406   18.7077 C.ar      1 UNK         0.0000 
     20 C20         5.4923   56.8383   17.6347 C.ar      1 UNK         0.0000 
     21 C21         6.8180   57.2868   17.5356 C.ar      1 UNK         0.0000 
     22 C22         7.7552   56.9169   18.4944 C.ar      1 UNK         0.0000 
     23 C23         7.3682   56.1354   19.5833 C.ar      1 UNK         0.0000 
     24 Br24        8.6951   55.6956   20.8828 Br        1 UNK         0.0000 
     25 O25         7.2530   58.0595   16.4785 O.3       1 UNK         0.0000 
     26 C26         6.1974   58.7802   15.8307 C.3       1 UNK         0.0000 
     27 C27         5.0046   57.8315   15.5448 C.3       1 UNK         0.0000 
     28 O28         4.5075   57.2430   16.7539 O.3       1 UNK         0.0000 
     29 H29         1.1502   52.5573   29.6766 H         1 UNK         0.0000 
     30 H30        -0.2717   51.9751   27.7561 H         1 UNK         0.0000 
     31 H31         0.4726   52.4641   25.4489 H         1 UNK         0.0000 
     32 H32         2.1699   53.3893   23.9129 H         1 UNK         0.0000 
     33 H33         5.0807   54.4697   27.7749 H         1 UNK         0.0000 
     34 H34         3.3651   53.6137   29.3211 H         1 UNK         0.0000 
     35 H35         3.4203   52.9339   22.2033 H         1 UNK         0.0000 
     36 H36         5.1189   52.5437   22.4907 H         1 UNK         0.0000 
     37 H37         6.0883   55.2297   21.7157 H         1 UNK         0.0000 
     38 H38         4.0717   55.7237   18.7858 H         1 UNK         0.0000 
     39 H39         8.7780   57.2563   18.4067 H         1 UNK         0.0000 
     40 H40         6.5722   59.2222   14.9062 H         1 UNK         0.0000 
     41 H41         5.8633   59.5945   16.4795 H         1 UNK         0.0000 
     42 H42         5.3324   57.0343   14.8735 H         1 UNK         0.0000 
     43 H43         4.1988   58.3771   15.0526 H         1 UNK         0.0000 
     44 O44         6.5663   55.6892   24.3830 O.co2     1 UNK         0.0000 
@<TRIPOS>BOND
     1    1   10 ar   
     2    1    2 ar   
     3    1   29 1    
     4    2    3 ar   
     5    2   30 1    
     6    3    4 ar   
     7    3   31 1    
     8    4    9 ar   
     9    4    5 ar   
    10    5    6 ar   
    11    5   32 1    
    12    6    7 ar   
    13    6   13 1    
    14    7    8 ar   
    15    7   11 1    
    16    8    9 ar   
    17    8   33 1    
    18    9   10 ar   
    19   10   34 1    
    20   11   12 2    
    21   11   44 1    
    22   13   14 1    
    23   14   15 1    
    24   14   35 1    
    25   14   36 1    
    26   15   16 2    
    27   15   17 am   BACKBONE|DICT|INTERRES
    28   17   18 1    
    29   17   37 1    
    30   18   23 ar   
    31   18   19 ar   
    32   19   20 ar   
    33   19   38 1    
    34   20   28 1    
    35   20   21 ar   
    36   21   22 ar   
    37   21   25 1    
    38   22   23 ar   
    39   22   39 1    
    40   23   24 1    
    41   25   26 1    
    42   26   27 1    
    43   26   40 1    
    44   26   41 1    
    45   27   28 1    
    46   27   42 1    
    47   27   43 1    
@<TRIPOS>SUBSTRUCTURE
     1 UNK         1 GROUP             0       ****    0 ROOT    
