@<TRIPOS>MOLECULE
ZINC02984944_5177
59   62    1
SMALL
USER_CHARGES


@<TRIPOS>ATOM
      1 C1          2.3944   52.5115   30.3053 C.3       1 UNK         0.0000 
      2 C2          1.7687   53.7509   29.6166 C.3       1 UNK         0.0000 
      3 C3          0.3602   53.9540   30.2168 C.3       1 UNK         0.0000 
      4 C4          2.6028   55.0194   29.9563 C.3       1 UNK         0.0000 
      5 C5          1.7029   53.5998   28.0504 C.3       1 UNK         0.0000 
      6 H6          1.3730   54.5720   27.6766 H         1 UNK         0.0000 
      7 C7          3.0831   53.2856   27.4312 C.3       1 UNK         0.0000 
      8 C8          3.1031   53.5540   25.9211 C.3       1 UNK         0.0000 
      9 C9          1.8853   52.9517   25.2221 C.2       1 UNK         0.0000 
     10 C10         0.7939   52.5028   25.9884 C.2       1 UNK         0.0000 
     11 S11        -0.4791   51.8842   25.0106 S.3       1 UNK         0.0000 
     12 C12         0.4129   52.2370   23.5537 C.2       1 UNK         0.0000 
     13 C13         1.7030   52.7597   23.8152 C.2       1 UNK         0.0000 
     14 C14         2.6891   53.0035   22.7437 C.2       1 UNK         0.0000 
     15 O15         2.5194   52.4968   21.6342 O.2       1 UNK         0.0000 
     16 N16         3.7539   53.7880   23.0431 N.am      1 UNK         0.0000 
     17 C17         4.8042   54.2483   22.2016 C.ar      1 UNK         0.0000 
     18 C18         4.6886   54.2593   20.7979 C.ar      1 UNK         0.0000 
     19 C19         5.6995   54.7773   19.9934 C.ar      1 UNK         0.0000 
     20 C20         6.8504   55.2987   20.5707 C.ar      1 UNK         0.0000 
     21 C21         6.9907   55.2955   21.9545 C.ar      1 UNK         0.0000 
     22 C22         5.9854   54.7744   22.7850 C.ar      1 UNK         0.0000 
     23 C23         6.1864   54.8761   24.3044 C.3       1 UNK         0.0000 
     24 F24         5.0961   55.2986   24.9195 F         1 UNK         0.0000 
     25 F25         6.5263   53.6967   24.8021 F         1 UNK         0.0000 
     26 F26         7.1267   55.7409   24.6479 F         1 UNK         0.0000 
     27 N27        -0.1329   52.0312   22.2852 N.am      1 UNK         0.0000 
     28 C28        -1.3922   51.6961   21.9302 C.2       1 UNK         0.0000 
     29 O29        -2.3278   51.4625   22.6955 O.2       1 UNK         0.0000 
     30 C30        -1.5975   51.6655   20.5045 C.2       1 UNK         0.0000 
     31 C31        -2.7098   51.2944   19.7555 C.2       1 UNK         0.0000 
     32 C32        -2.3869   51.5040   18.4133 C.2       1 UNK         0.0000 
     33 C33        -1.0910   51.9907   18.3960 C.2       1 UNK         0.0000 
     34 O34        -0.6142   52.0944   19.6628 O.3       1 UNK         0.0000 
     35 C35         0.7046   52.5338   27.5163 C.3       1 UNK         0.0000 
     36 H36         3.4374   52.3654   30.0245 H         1 UNK         0.0000 
     37 H37         2.3699   52.5913   31.3926 H         1 UNK         0.0000 
     38 H38         1.8539   51.6025   30.0454 H         1 UNK         0.0000 
     39 H39        -0.0961   54.8415   29.7921 H         1 UNK         0.0000 
     40 H40        -0.3020   53.1055   30.0445 H         1 UNK         0.0000 
     41 H41         0.3958   54.1010   31.2971 H         1 UNK         0.0000 
     42 H42         2.4991   55.7939   29.1953 H         1 UNK         0.0000 
     43 H43         2.2839   55.5000   30.8798 H         1 UNK         0.0000 
     44 H44         3.6695   54.8058   30.0411 H         1 UNK         0.0000 
     45 H45         3.8432   53.9380   27.8595 H         1 UNK         0.0000 
     46 H46         3.4191   52.2825   27.6906 H         1 UNK         0.0000 
     47 H47         4.0423   53.1735   25.5279 H         1 UNK         0.0000 
     48 H48         3.0730   54.6317   25.7724 H         1 UNK         0.0000 
     49 H49         3.8216   54.0962   24.0003 H         1 UNK         0.0000 
     50 H50         3.8020   53.9094   20.2932 H         1 UNK         0.0000 
     51 H51         5.5838   54.7791   18.9192 H         1 UNK         0.0000 
     52 H52         7.6363   55.6955   19.9441 H         1 UNK         0.0000 
     53 H53         7.8986   55.7039   22.3775 H         1 UNK         0.0000 
     54 H54         0.5173   52.2036   21.5276 H         1 UNK         0.0000 
     55 H55        -3.6448   50.9128   20.1438 H         1 UNK         0.0000 
     56 H56        -3.0163   51.3153   17.5557 H         1 UNK         0.0000 
     57 H57        -0.4155   52.2891   17.6065 H         1 UNK         0.0000 
     58 H58        -0.3170   52.7591   27.8215 H         1 UNK         0.0000 
     59 H59         0.9398   51.5460   27.9138 H         1 UNK         0.0000 
@<TRIPOS>BOND
     1    1    2 1    
     2    1   36 1    
     3    1   37 1    
     4    1   38 1    
     5    2    3 1    
     6    2    4 1    
     7    2    5 1    
     8    3   39 1    
     9    3   40 1    
    10    3   41 1    
    11    4   42 1    
    12    4   43 1    
    13    4   44 1    
    14    5    6 1    
    15    5   35 1    
    16    5    7 1    
    17    7    8 1    
    18    7   45 1    
    19    7   46 1    
    20    8    9 1    
    21    8   47 1    
    22    8   48 1    
    23    9   13 1    
    24    9   10 2    
    25   10   11 1    
    26   10   35 1    
    27   11   12 1    
    28   12   13 2    
    29   12   27 am   BACKBONE|DICT|INTERRES
    30   13   14 1    
    31   14   15 2    
    32   14   16 am   BACKBONE|DICT|INTERRES
    33   16   17 1    
    34   16   49 1    
    35   17   22 ar   
    36   17   18 ar   
    37   18   19 ar   
    38   18   50 1    
    39   19   20 ar   
    40   19   51 1    
    41   20   21 ar   
    42   20   52 1    
    43   21   22 ar   
    44   21   53 1    
    45   22   23 1    
    46   23   24 1    
    47   23   25 1    
    48   23   26 1    
    49   27   28 am   BACKBONE|DICT|INTERRES
    50   27   54 1    
    51   28   29 2    
    52   28   30 1    
    53   30   34 1    
    54   30   31 2    
    55   31   32 1    
    56   31   55 1    
    57   32   33 2    
    58   32   56 1    
    59   33   34 1    
    60   33   57 1    
    61   35   58 1    
    62   35   59 1    
@<TRIPOS>SUBSTRUCTURE
     1 UNK         1 GROUP             0       ****    0 ROOT    
