ZINC43391717_3780
                    3D
 Schrodinger Suite 2024-2.
 26 28  0  0  1  0            999 V2000
    5.4284   54.0012   19.5951 C   0  0  0  0  0  0
    6.2941   55.0797   19.5085 C   0  0  0  0  0  0
    6.7247   55.6959   21.0699 S   0  0  0  0  0  0
    5.7317   54.4981   21.8620 C   0  0  0  0  0  0
    5.1034   53.6834   20.9163 C   0  0  0  0  0  0
    4.2656   52.6493   21.2246 N   0  0  0  0  0  0
    5.6353   54.4964   23.3113 C   0  0  0  0  0  0
    4.6227   54.0965   24.0270 N   0  0  0  0  0  0
    5.0090   54.3842   25.2574 C   0  0  0  0  0  0
    6.2054   54.9300   25.3702 N   0  0  0  0  0  0
    6.6420   55.0267   24.0490 O   0  0  0  0  0  0
    4.1338   54.0927   26.4419 C   0  0  0  0  0  0
    2.8105   53.6543   26.2690 C   0  0  0  0  0  0
    2.0050   53.3489   27.3676 C   0  0  0  0  0  0
    2.5029   53.5048   28.6610 C   0  0  0  0  0  0
    3.8122   53.9495   28.8459 C   0  0  0  0  0  0
    4.6227   54.2366   27.7497 C   0  0  0  0  0  0
    4.3037   54.1027   30.0917 F   0  0  0  0  0  0
    1.7242   53.2249   29.7328 F   0  0  0  0  0  0
    0.7436   52.8964   27.1736 F   0  0  0  0  0  0
    5.0441   53.4658   18.7397 H   0  0  0  0  0  0
    6.6928   55.5351   18.6134 H   0  0  0  0  0  0
    3.9804   52.4612   22.1747 H   0  0  0  0  0  0
    3.8662   52.0650   20.5021 H   0  0  0  0  0  0
    2.3984   53.5278   25.2781 H   0  0  0  0  0  0
    5.6359   54.5696   27.9281 H   0  0  0  0  0  0
  1  5  1  0  0  0
  1  2  2  0  0  0
  1 21  1  0  0  0
  2  3  1  0  0  0
  2 22  1  0  0  0
  3  4  1  0  0  0
  4  5  2  0  0  0
  4  7  1  0  0  0
  5  6  1  0  0  0
  6 23  1  0  0  0
  6 24  1  0  0  0
  7 11  1  0  0  0
  7  8  2  0  0  0
  8  9  1  0  0  0
  9 10  2  0  0  0
  9 12  1  0  0  0
 10 11  1  0  0  0
 12 17  2  0  0  0
 12 13  1  0  0  0
 13 14  2  0  0  0
 13 25  1  0  0  0
 14 15  1  0  0  0
 14 20  1  0  0  0
 15 16  2  0  0  0
 15 19  1  0  0  0
 16 17  1  0  0  0
 16 18  1  0  0  0
 17 26  1  0  0  0
M  END
> <i_i_glide_confnum>
4

> <i_i_glide_lignum>
3781

> <i_i_glide_posenum>
312

> <i_i_glide_rotatable_bonds>
2

> <i_m_Source_File_Index>
5331

> <b_m_subgroup_collapsed>
0

> <r_i_docking_score>
-5.73252

> <r_i_glide_ecoul>
-1.87294

> <r_i_glide_eff_state_penalty>
0

> <r_i_glide_einternal>
1.26638

> <r_i_glide_emodel>
-46.8226

> <r_i_glide_energy>
-35.2138

> <r_i_glide_erotb>
0.414947

> <r_i_glide_esite>
-0.0295404

> <r_i_glide_evdw>
-33.3408

> <r_i_glide_gscore>
-5.73252

> <r_i_glide_hbond>
0

> <r_i_glide_ligand_efficiency>
-0.286626

> <r_i_glide_ligand_efficiency_ln>
-1.43466

> <r_i_glide_ligand_efficiency_sa>
-0.778023

> <r_i_glide_lipo>
-2.01865

> <r_i_glide_metal>
0

> <r_i_glide_rewards>
-2.15129

> <s_i_glide_gridfile>
wee1_glide-grid

> <s_m_Source_File>
wee1_decoys_glide_SP.sdf

> <s_m_Source_Path>
/Users/zhangxujun/Desktop

> <s_m_entry_id>
5606

> <s_m_entry_name>
wee1_decoys_glide_SP.5331

> <s_m_subgroup_title>
wee1_decoys_glide_SP

> <s_m_subgroupid>
wee1_decoys_glide_SP


$$$$
