@<TRIPOS>MOLECULE
ZINC35752367_5049
64   67    1
SMALL
USER_CHARGES


@<TRIPOS>ATOM
      1 C1          6.5928   54.6918   24.8036 C.3       1 UNK         0.0000 
      2 C2          5.7444   54.4720   23.5646 C.ar      1 UNK         0.0000 
      3 C3          6.2861   54.6805   22.2941 C.ar      1 UNK         0.0000 
      4 C4          5.4890   54.4972   21.1616 C.ar      1 UNK         0.0000 
      5 C5          4.1589   54.0965   21.2929 C.ar      1 UNK         0.0000 
      6 C6          3.6031   53.8951   22.5591 C.ar      1 UNK         0.0000 
      7 C7          4.4028   54.0954   23.6909 C.ar      1 UNK         0.0000 
      8 C8          2.1221   53.5290   22.6920 C.3       1 UNK         0.0000 
      9 N9          1.8335   52.1466   23.1053 N.am      1 UNK         0.0000 
     10 C10         0.8044   51.7579   24.0779 C.3       1 UNK         0.0000 
     11 H11        -0.1859   52.0910   23.7652 H         1 UNK         0.0000 
     12 C12         0.9115   50.2287   24.0431 C.3       1 UNK         0.0000 
     13 H13         1.5042   49.8628   24.8775 H         1 UNK         0.0000 
     14 O14         1.6566   49.9652   22.8736 O.3       1 UNK         0.0000 
     15 C15         2.2638   51.0451   22.3618 C.2       1 UNK         0.0000 
     16 O16         3.0404   50.9708   21.4119 O.2       1 UNK         0.0000 
     17 C17        -0.3838   49.4246   24.0921 C.ar      1 UNK         0.0000 
     18 C18        -1.1711   49.2647   22.9443 C.ar      1 UNK         0.0000 
     19 C19        -2.3088   48.4605   22.9817 C.ar      1 UNK         0.0000 
     20 C20        -2.6664   47.8165   24.1743 C.ar      1 UNK         0.0000 
     21 C21        -1.8907   47.9947   25.3187 C.ar      1 UNK         0.0000 
     22 C22        -0.7515   48.7907   25.2811 C.ar      1 UNK         0.0000 
     23 N23        -3.8177   47.0270   24.3103 N.am      1 UNK         0.0000 
     24 C24        -4.3770   46.2215   23.3835 C.2       1 UNK         0.0000 
     25 O25        -3.8965   46.0134   22.2666 O.2       1 UNK         0.0000 
     26 C26        -5.6944   45.5310   23.7944 C.3       1 UNK         0.0000 
     27 C27        -6.9052   46.2666   23.1851 C.3       1 UNK         0.0000 
     28 C28        -5.7135   44.0320   23.4212 C.3       1 UNK         0.0000 
     29 C29         1.0835   52.3176   25.5019 C.2       1 UNK         0.0000 
     30 O30         2.1421   52.8965   25.7445 O.2       1 UNK         0.0000 
     31 N31         0.1386   52.0998   26.4435 N.am      1 UNK         0.0000 
     32 C32         0.1896   52.4843   27.8013 C.ar      1 UNK         0.0000 
     33 C33        -0.5187   51.7005   28.7175 C.ar      1 UNK         0.0000 
     34 C34        -0.4957   52.0099   30.0791 C.ar      1 UNK         0.0000 
     35 C35         0.2268   53.1087   30.5389 C.ar      1 UNK         0.0000 
     36 C36         0.9172   53.9116   29.6351 C.ar      1 UNK         0.0000 
     37 C37         0.8955   53.6070   28.2742 C.ar      1 UNK         0.0000 
     38 F38         1.6070   54.9867   30.0785 F         1 UNK         0.0000 
     39 H39         7.4286   55.3615   24.5967 H         1 UNK         0.0000 
     40 H40         6.0024   55.1586   25.5930 H         1 UNK         0.0000 
     41 H41         6.9734   53.7409   25.1778 H         1 UNK         0.0000 
     42 H42         7.3179   54.9828   22.1818 H         1 UNK         0.0000 
     43 H43         5.9042   54.6555   20.1774 H         1 UNK         0.0000 
     44 H44         3.5544   53.9568   20.4075 H         1 UNK         0.0000 
     45 H45         3.9905   53.9655   24.6776 H         1 UNK         0.0000 
     46 H46         1.6270   53.6963   21.7343 H         1 UNK         0.0000 
     47 H47         1.6613   54.2270   23.3914 H         1 UNK         0.0000 
     48 H48        -0.8909   49.7455   22.0178 H         1 UNK         0.0000 
     49 H49        -2.9071   48.3502   22.0887 H         1 UNK         0.0000 
     50 H50        -2.1497   47.5116   26.2524 H         1 UNK         0.0000 
     51 H51        -0.1528   48.8856   26.1790 H         1 UNK         0.0000 
     52 H52        -4.2271   47.0307   25.2306 H         1 UNK         0.0000 
     53 H53        -5.7926   45.5916   24.8793 H         1 UNK         0.0000 
     54 H54        -6.9370   47.3138   23.4885 H         1 UNK         0.0000 
     55 H55        -6.8848   46.2480   22.0931 H         1 UNK         0.0000 
     56 H56        -7.8446   45.8126   23.5038 H         1 UNK         0.0000 
     57 H57        -4.8859   43.4906   23.8780 H         1 UNK         0.0000 
     58 H58        -6.6346   43.5564   23.7609 H         1 UNK         0.0000 
     59 H59        -5.6450   43.8802   22.3422 H         1 UNK         0.0000 
     60 H60        -0.6338   51.5016   26.1914 H         1 UNK         0.0000 
     61 H61        -1.0776   50.8353   28.3877 H         1 UNK         0.0000 
     62 H62        -1.0358   51.3889   30.7824 H         1 UNK         0.0000 
     63 H63         0.2402   53.3381   31.5946 H         1 UNK         0.0000 
     64 H64         1.4310   54.2599   27.6027 H         1 UNK         0.0000 
@<TRIPOS>BOND
     1    1    2 1    
     2    1   39 1    
     3    1   40 1    
     4    1   41 1    
     5    2    7 ar   
     6    2    3 ar   
     7    3    4 ar   
     8    3   42 1    
     9    4    5 ar   
    10    4   43 1    
    11    5    6 ar   
    12    5   44 1    
    13    6    7 ar   
    14    6    8 1    
    15    7   45 1    
    16    8    9 1    
    17    8   46 1    
    18    8   47 1    
    19    9   15 am   BACKBONE|DICT|INTERRES
    20    9   10 1    
    21   10   11 1    
    22   10   12 1    
    23   10   29 1    
    24   12   13 1    
    25   12   14 1    
    26   12   17 1    
    27   14   15 1    
    28   15   16 2    
    29   17   22 ar   
    30   17   18 ar   
    31   18   19 ar   
    32   18   48 1    
    33   19   20 ar   
    34   19   49 1    
    35   20   21 ar   
    36   20   23 1    
    37   21   22 ar   
    38   21   50 1    
    39   22   51 1    
    40   23   24 am   BACKBONE|DICT|INTERRES
    41   23   52 1    
    42   24   25 2    
    43   24   26 1    
    44   26   27 1    
    45   26   28 1    
    46   26   53 1    
    47   27   54 1    
    48   27   55 1    
    49   27   56 1    
    50   28   57 1    
    51   28   58 1    
    52   28   59 1    
    53   29   30 2    
    54   29   31 am   BACKBONE|DICT|INTERRES
    55   31   32 1    
    56   31   60 1    
    57   32   37 ar   
    58   32   33 ar   
    59   33   34 ar   
    60   33   61 1    
    61   34   35 ar   
    62   34   62 1    
    63   35   36 ar   
    64   35   63 1    
    65   36   37 ar   
    66   36   38 1    
    67   37   64 1    
@<TRIPOS>SUBSTRUCTURE
     1 UNK         1 GROUP             0       ****    0 ROOT    
