ZINC36618847_4963
                    3D
 Schrodinger Suite 2024-2.
 60 64  0  0  1  0            999 V2000
    0.4308   54.0011   29.6965 C   0  0  0  0  0  0
    1.3265   54.9977   28.9319 C   0  0  0  0  0  0
    1.6210   56.2337   29.8030 C   0  0  0  0  0  0
    2.6334   54.3334   28.4062 C   0  0  0  0  0  0
    2.6458   53.9943   26.9139 C   0  0  0  0  0  0
    3.7267   54.3928   26.1253 C   0  0  0  0  0  0
    3.7513   54.0906   24.7663 C   0  0  0  0  0  0
    2.7038   53.3731   24.1620 C   0  0  0  0  0  0
    1.6109   53.0194   24.9559 C   0  0  0  0  0  0
    1.5904   53.2967   26.3212 C   0  0  0  0  0  0
    2.8051   52.9984   22.6987 C   0  0  0  0  0  0
    2.3585   51.8399   21.9705 C   0  0  0  0  0  0
    2.9040   52.0510   20.7163 C   0  0  0  0  0  0
    3.5911   53.2157   20.7269 N   0  0  0  0  0  0
    4.0798   53.6147   19.9390 H   0  0  0  0  0  0
    3.5294   53.7963   21.9211 N   0  0  0  0  0  0
    2.8361   51.2655   19.5977 O   0  0  0  0  0  0
    1.9851   50.2140   19.7157 C   0  0  0  0  0  0
    1.3278   49.8363   20.8415 C   0  0  0  0  0  0
    1.5338   50.5469   22.2055 C   0  0  2  0  0  0
    2.1682   49.8718   22.7831 H   0  0  0  0  0  0
    0.2297   50.7032   22.9960 C   0  0  0  0  0  0
    0.1053   50.0587   24.2364 C   0  0  0  0  0  0
   -1.0374   50.2317   25.0149 C   0  0  0  0  0  0
   -2.0698   51.0487   24.5609 C   0  0  0  0  0  0
   -1.9735   51.6674   23.3151 C   0  0  0  0  0  0
   -0.8433   51.4748   22.5044 C   0  0  0  0  0  0
   -0.7622   52.0261   21.2368 O   0  0  0  0  0  0
   -1.6863   51.6954   20.2776 C   0  0  0  0  0  0
   -2.7748   51.1498   20.4767 O   0  0  0  0  0  0
   -1.2359   52.0972   18.9491 C   0  0  0  0  0  0
   -0.0700   52.6975   18.4818 C   0  0  0  0  0  0
   -0.2069   52.8338   17.1003 C   0  0  0  0  0  0
   -1.4499   52.3148   16.7805 C   0  0  0  0  0  0
   -2.0750   51.8713   17.9016 O   0  0  0  0  0  0
    0.3492   48.7974   20.7509 C   0  0  0  0  0  0
   -0.4855   48.0015   20.6440 N   0  0  0  0  0  0
    1.9044   49.6240   18.4821 N   0  0  0  0  0  0
    0.9378   53.6047   30.5772 H   0  0  0  0  0  0
    0.1448   53.1522   29.0765 H   0  0  0  0  0  0
   -0.4905   54.4723   30.0410 H   0  0  0  0  0  0
    0.7502   55.3643   28.0816 H   0  0  0  0  0  0
    2.1760   55.9681   30.7004 H   0  0  0  0  0  0
    2.2094   56.9696   29.2559 H   0  0  0  0  0  0
    0.7042   56.7282   30.1229 H   0  0  0  0  0  0
    3.4809   54.9896   28.6106 H   0  0  0  0  0  0
    2.8536   53.4208   28.9618 H   0  0  0  0  0  0
    4.5551   54.9318   26.5613 H   0  0  0  0  0  0
    4.6140   54.3928   24.1906 H   0  0  0  0  0  0
    0.7514   52.5468   24.5273 H   0  0  0  0  0  0
    0.7356   52.9892   26.9033 H   0  0  0  0  0  0
    0.9043   49.4374   24.6171 H   0  0  0  0  0  0
   -1.1176   49.7384   25.9748 H   0  0  0  0  0  0
   -2.9520   51.1881   25.1685 H   0  0  0  0  0  0
   -2.7927   52.2773   22.9643 H   0  0  0  0  0  0
    0.7804   53.0020   19.0758 H   0  0  0  0  0  0
    0.5153   53.2567   16.4168 H   0  0  0  0  0  0
   -1.9931   52.1978   15.8537 H   0  0  0  0  0  0
    1.2582   48.8679   18.3175 H   0  0  0  0  0  0
    2.6896   49.6969   17.8396 H   0  0  0  0  0  0
  1  2  1  0  0  0
  1 39  1  0  0  0
  1 40  1  0  0  0
  1 41  1  0  0  0
  2  3  1  0  0  0
  2  4  1  0  0  0
  2 42  1  0  0  0
  3 43  1  0  0  0
  3 44  1  0  0  0
  3 45  1  0  0  0
  4  5  1  0  0  0
  4 46  1  0  0  0
  4 47  1  0  0  0
  5 10  2  0  0  0
  5  6  1  0  0  0
  6  7  2  0  0  0
  6 48  1  0  0  0
  7  8  1  0  0  0
  7 49  1  0  0  0
  8  9  2  0  0  0
  8 11  1  0  0  0
  9 10  1  0  0  0
  9 50  1  0  0  0
 10 51  1  0  0  0
 11 16  2  0  0  0
 11 12  1  0  0  0
 12 20  1  0  0  0
 12 13  2  0  0  0
 13 14  1  0  0  0
 13 17  1  0  0  0
 14 15  1  0  0  0
 14 16  1  0  0  0
 17 18  1  0  0  0
 18 19  2  0  0  0
 18 38  1  0  0  0
 19 20  1  0  0  0
 19 36  1  0  0  0
 20 21  1  0  0  0
 20 22  1  0  0  0
 22 27  2  0  0  0
 22 23  1  0  0  0
 23 24  2  0  0  0
 23 52  1  0  0  0
 24 25  1  0  0  0
 24 53  1  0  0  0
 25 26  2  0  0  0
 25 54  1  0  0  0
 26 27  1  0  0  0
 26 55  1  0  0  0
 27 28  1  0  0  0
 28 29  1  0  0  0
 29 30  2  0  0  0
 29 31  1  0  0  0
 31 35  1  0  0  0
 31 32  2  0  0  0
 32 33  1  0  0  0
 32 56  1  0  0  0
 33 34  2  0  0  0
 33 57  1  0  0  0
 34 35  1  0  0  0
 34 58  1  0  0  0
 36 37  3  0  0  0
 38 59  1  0  0  0
 38 60  1  0  0  0
M  END
> <i_i_glide_confnum>
56

> <i_i_glide_lignum>
4964

> <i_i_glide_posenum>
342

> <i_i_glide_rotatable_bonds>
8

> <i_m_Source_File_Index>
3825

> <b_m_subgroup_collapsed>
0

> <r_i_docking_score>
-5.31219

> <r_i_glide_ecoul>
-4.95696

> <r_i_glide_eff_state_penalty>
0

> <r_i_glide_einternal>
7.64906

> <r_i_glide_emodel>
-53.6687

> <r_i_glide_energy>
-44.5676

> <r_i_glide_erotb>
0.526984

> <r_i_glide_esite>
-0.123274

> <r_i_glide_evdw>
-39.6106

> <r_i_glide_gscore>
-5.31219

> <r_i_glide_hbond>
-0.16

> <r_i_glide_ligand_efficiency>
-0.147561

> <r_i_glide_ligand_efficiency_ln>
-1.15898

> <r_i_glide_ligand_efficiency_sa>
-0.487235

> <r_i_glide_lipo>
-2.67207

> <r_i_glide_metal>
0

> <r_i_glide_rewards>
-0.159762

> <s_i_glide_gridfile>
wee1_glide-grid

> <s_m_Source_File>
wee1_decoys_glide_SP.sdf

> <s_m_Source_Path>
/Users/zhangxujun/Desktop

> <s_m_entry_id>
4100

> <s_m_entry_name>
wee1_decoys_glide_SP.3825

> <s_m_subgroup_title>
wee1_decoys_glide_SP

> <s_m_subgroupid>
wee1_decoys_glide_SP


$$$$
