@<TRIPOS>MOLECULE
ZINC38655584_6006
57   60    1
SMALL
USER_CHARGES


@<TRIPOS>ATOM
      1 C1          6.9984   55.1392   25.6766 C.3       1 UNK         0.0000 
      2 C2          5.5719   54.5963   25.5401 C.3       1 UNK         0.0000 
      3 C3          4.8770   54.2290   26.8528 C.ar      1 UNK         0.0000 
      4 C4          3.8362   53.3092   26.8077 C.ar      1 UNK         0.0000 
      5 C5          3.2088   52.8975   27.9756 C.ar      1 UNK         0.0000 
      6 C6          3.4992   53.5150   29.1965 C.ar      1 UNK         0.0000 
      7 C7          4.5441   54.4385   29.2409 C.ar      1 UNK         0.0000 
      8 C8          5.2531   54.7688   28.0858 C.ar      1 UNK         0.0000 
      9 O9          2.7985   53.2779   30.3714 O.3       1 UNK         0.0000 
     10 C10         1.6667   52.3826   30.4068 C.3       1 UNK         0.0000 
     11 H11         2.0120   51.3998   30.0855 H         1 UNK         0.0000 
     12 C12         1.2173   52.2832   31.8720 C.3       1 UNK         0.0000 
     13 C13         0.4941   52.7912   29.4831 C.2       1 UNK         0.0000 
     14 O14         0.2888   53.9662   29.1675 O.2       1 UNK         0.0000 
     15 O15        -0.1638   51.6968   28.9988 O.3       1 UNK         0.0000 
     16 C16        -0.7943   51.7306   27.7688 C.ar      1 UNK         0.0000 
     17 C17        -2.1158   51.2966   27.6562 C.ar      1 UNK         0.0000 
     18 C18        -2.7621   51.2984   26.4163 C.ar      1 UNK         0.0000 
     19 C19        -2.1057   51.7178   25.2472 C.ar      1 UNK         0.0000 
     20 C20        -0.7559   52.0927   25.3707 C.ar      1 UNK         0.0000 
     21 C21        -0.1166   52.1041   26.6031 C.ar      1 UNK         0.0000 
     22 O22         0.0318   52.4341   24.2904 O.3       1 UNK         0.0000 
     23 C23        -0.4276   52.1710   23.0477 C.2       1 UNK         0.0000 
     24 C24        -1.7020   51.8436   22.7537 C.2       1 UNK         0.0000 
     25 C25        -2.7701   51.7516   23.8551 C.3       1 UNK         0.0000 
     26 H26        -3.2835   52.7103   23.7698 H         1 UNK         0.0000 
     27 C27        -3.8359   50.6599   23.6533 C.ar      1 UNK         0.0000 
     28 C28        -3.4411   49.3950   23.1948 C.ar      1 UNK         0.0000 
     29 C29        -4.3782   48.3835   22.9886 C.ar      1 UNK         0.0000 
     30 C30        -5.7274   48.6264   23.2360 C.ar      1 UNK         0.0000 
     31 C31        -6.1343   49.8766   23.6974 C.ar      1 UNK         0.0000 
     32 C32        -5.1998   50.8922   23.9118 C.ar      1 UNK         0.0000 
     33 Cl33       -5.7781   52.4164   24.4938 Cl        1 UNK         0.0000 
     34 Cl34       -6.8900   47.3768   22.9799 Cl        1 UNK         0.0000 
     35 C35        -2.0969   51.6968   21.3900 C.1       1 UNK         0.0000 
     36 N36        -2.4288   51.6444   20.2826 N.1       1 UNK         0.0000 
     37 N37         0.6038   52.3662   22.1674 N.pl3     1 UNK         0.0000 
     38 H38         7.5045   55.1737   24.7086 H         1 UNK         0.0000 
     39 H39         7.0068   56.1489   26.0826 H         1 UNK         0.0000 
     40 H40         7.5798   54.4971   26.3359 H         1 UNK         0.0000 
     41 H41         5.6277   53.6947   24.9289 H         1 UNK         0.0000 
     42 H42         4.9496   55.3021   24.9879 H         1 UNK         0.0000 
     43 H43         3.5349   52.8957   25.8580 H         1 UNK         0.0000 
     44 H44         2.4855   52.1063   27.9120 H         1 UNK         0.0000 
     45 H45         4.8172   54.8948   30.1765 H         1 UNK         0.0000 
     46 H46         6.0617   55.4785   28.1452 H         1 UNK         0.0000 
     47 H47         0.3058   51.6966   31.9874 H         1 UNK         0.0000 
     48 H48         1.9869   51.8074   32.4792 H         1 UNK         0.0000 
     49 H49         1.0132   53.2664   32.2973 H         1 UNK         0.0000 
     50 H50        -2.6392   50.9444   28.5335 H         1 UNK         0.0000 
     51 H51        -3.7878   50.9621   26.3745 H         1 UNK         0.0000 
     52 H52         0.9105   52.4168   26.6290 H         1 UNK         0.0000 
     53 H53        -2.3991   49.1858   23.0004 H         1 UNK         0.0000 
     54 H54        -4.0555   47.4145   22.6366 H         1 UNK         0.0000 
     55 H55        -7.1815   50.0612   23.8922 H         1 UNK         0.0000 
     56 H56         0.5089   52.1285   21.1904 H         1 UNK         0.0000 
     57 H57         1.4089   52.9136   22.4340 H         1 UNK         0.0000 
@<TRIPOS>BOND
     1    1    2 1    
     2    1   38 1    
     3    1   39 1    
     4    1   40 1    
     5    2    3 1    
     6    2   41 1    
     7    2   42 1    
     8    3    8 ar   
     9    3    4 ar   
    10    4    5 ar   
    11    4   43 1    
    12    5    6 ar   
    13    5   44 1    
    14    6    7 ar   
    15    6    9 1    
    16    7    8 ar   
    17    7   45 1    
    18    8   46 1    
    19    9   10 1    
    20   10   11 1    
    21   10   12 1    
    22   10   13 1    
    23   12   47 1    
    24   12   48 1    
    25   12   49 1    
    26   13   14 2    
    27   13   15 1    
    28   15   16 1    
    29   16   21 ar   
    30   16   17 ar   
    31   17   18 ar   
    32   17   50 1    
    33   18   19 ar   
    34   18   51 1    
    35   19   25 1    
    36   19   20 ar   
    37   20   21 ar   
    38   20   22 1    
    39   21   52 1    
    40   22   23 1    
    41   23   24 2    
    42   23   37 1    
    43   24   25 1    
    44   24   35 1    
    45   25   26 1    
    46   25   27 1    
    47   27   32 ar   
    48   27   28 ar   
    49   28   29 ar   
    50   28   53 1    
    51   29   30 ar   
    52   29   54 1    
    53   30   31 ar   
    54   30   34 1    
    55   31   32 ar   
    56   31   55 1    
    57   32   33 1    
    58   35   36 3    
    59   37   56 1    
    60   37   57 1    
@<TRIPOS>SUBSTRUCTURE
     1 UNK         1 GROUP             0       ****    0 ROOT    
