@<TRIPOS>MOLECULE
ZINC13137999_4322
43   44    1
SMALL
USER_CHARGES


@<TRIPOS>ATOM
      1 C1          0.9636   51.4725   26.8736 C.3       1 UNK         0.0000 
      2 C2          0.0699   52.2412   27.8670 C.3       1 UNK         0.0000 
      3 C3          0.7890   52.8510   29.1095 C.3       1 UNK         0.0000 
      4 C4          1.6772   54.0123   28.6806 C.2       1 UNK         0.0000 
      5 O5          1.3165   55.0258   28.0826 O.2       1 UNK         0.0000 
      6 N6          2.9238   53.6918   29.0900 N.am      1 UNK         0.0000 
      7 C7          2.9987   52.5055   29.7476 C.2       1 UNK         0.0000 
      8 O8          3.9042   52.0952   30.4685 O.2       1 UNK         0.0000 
      9 N9          1.7779   51.9699   29.6533 N.am      1 UNK         0.0000 
     10 C10         4.1085   54.4914   28.7182 C.3       1 UNK         0.0000 
     11 C11         4.6237   54.1081   27.3219 C.2       1 UNK         0.0000 
     12 O12         5.5394   53.2964   27.2437 O.2       1 UNK         0.0000 
     13 N13         4.0787   54.7381   26.2593 N.am      1 UNK         0.0000 
     14 C14         4.4078   54.4967   24.9110 C.ar      1 UNK         0.0000 
     15 C15         5.7021   54.7325   24.4024 C.ar      1 UNK         0.0000 
     16 C16         5.9805   54.4917   23.0561 C.ar      1 UNK         0.0000 
     17 C17         4.9780   54.0518   22.1910 C.ar      1 UNK         0.0000 
     18 C18         3.6851   53.8677   22.6787 C.ar      1 UNK         0.0000 
     19 C19         3.3926   54.0977   24.0229 C.ar      1 UNK         0.0000 
     20 Br20        1.5700   53.9536   24.5634 Br        1 UNK         0.0000 
     21 C21         5.2694   53.8371   20.7167 C.3       1 UNK         0.0000 
     22 Br22        7.1041   55.4651   25.4641 Br        1 UNK         0.0000 
     23 C23        -0.2490   53.3327   30.1643 C.3       1 UNK         0.0000 
     24 C24         0.3043   53.9207   31.4808 C.3       1 UNK         0.0000 
     25 H25         0.4132   51.2150   25.9683 H         1 UNK         0.0000 
     26 H26         1.8344   52.0592   26.5832 H         1 UNK         0.0000 
     27 H27         1.3253   50.5395   27.3072 H         1 UNK         0.0000 
     28 H28        -0.6908   51.5369   28.2103 H         1 UNK         0.0000 
     29 H29        -0.4830   53.0155   27.3318 H         1 UNK         0.0000 
     30 H30         1.5842   50.9837   29.7375 H         1 UNK         0.0000 
     31 H31         4.9165   54.4047   29.4462 H         1 UNK         0.0000 
     32 H32         3.8423   55.5483   28.7139 H         1 UNK         0.0000 
     33 H33         3.3136   55.3746   26.4271 H         1 UNK         0.0000 
     34 H34         6.9780   54.6759   22.6827 H         1 UNK         0.0000 
     35 H35         2.8933   53.5703   22.0057 H         1 UNK         0.0000 
     36 H36         4.4096   54.1229   20.1084 H         1 UNK         0.0000 
     37 H37         5.4978   52.7902   20.5151 H         1 UNK         0.0000 
     38 H38         6.1029   54.4563   20.3824 H         1 UNK         0.0000 
     39 H39        -0.8956   54.0767   29.6986 H         1 UNK         0.0000 
     40 H40        -0.8913   52.4909   30.4322 H         1 UNK         0.0000 
     41 H41        -0.4955   54.1038   32.1957 H         1 UNK         0.0000 
     42 H42         0.9982   53.2347   31.9670 H         1 UNK         0.0000 
     43 H43         0.8167   54.8677   31.3126 H         1 UNK         0.0000 
@<TRIPOS>BOND
     1    1    2 1    
     2    1   25 1    
     3    1   26 1    
     4    1   27 1    
     5    2    3 1    
     6    2   28 1    
     7    2   29 1    
     8    3    9 1    
     9    3    4 1    
    10    3   23 1    
    11    4    5 2    
    12    4    6 am   BACKBONE|DICT|INTERRES
    13    6    7 am   BACKBONE|DICT|INTERRES
    14    6   10 1    
    15    7    8 2    
    16    7    9 am   BACKBONE|DICT|INTERRES
    17    9   30 1    
    18   10   11 1    
    19   10   31 1    
    20   10   32 1    
    21   11   12 2    
    22   11   13 am   BACKBONE|DICT|INTERRES
    23   13   14 1    
    24   13   33 1    
    25   14   19 ar   
    26   14   15 ar   
    27   15   16 ar   
    28   15   22 1    
    29   16   17 ar   
    30   16   34 1    
    31   17   18 ar   
    32   17   21 1    
    33   18   19 ar   
    34   18   35 1    
    35   19   20 1    
    36   21   36 1    
    37   21   37 1    
    38   21   38 1    
    39   23   24 1    
    40   23   39 1    
    41   23   40 1    
    42   24   41 1    
    43   24   42 1    
    44   24   43 1    
@<TRIPOS>SUBSTRUCTURE
     1 UNK         1 GROUP             0       ****    0 ROOT    
