@<TRIPOS>MOLECULE
ZINC37040277_3579
33   34    1
SMALL
USER_CHARGES


@<TRIPOS>ATOM
      1 C1          0.3593   53.4517   31.6415 C.3       1 UNK         0.0000 
      2 C2          0.4488   52.9867   30.1919 C.ar      1 UNK         0.0000 
      3 C3          1.3809   53.5991   29.3485 C.ar      1 UNK         0.0000 
      4 C4          1.5343   53.1989   28.0123 C.ar      1 UNK         0.0000 
      5 C5          0.7026   52.1762   27.5250 C.ar      1 UNK         0.0000 
      6 C6         -0.2382   51.5712   28.3531 C.ar      1 UNK         0.0000 
      7 C7         -0.3671   51.9638   29.6826 C.ar      1 UNK         0.0000 
      8 N8         -1.2956   51.2967   30.4817 N.pl3     1 UNK         0.0000 
      9 C9          2.5733   53.8757   27.1431 C.2       1 UNK         0.0000 
     10 O10         3.1363   54.8967   27.5349 O.2       1 UNK         0.0000 
     11 N11         2.8182   53.2983   25.9500 N.am      1 UNK         0.0000 
     12 C12         3.6503   53.7695   24.9228 C.ar      1 UNK         0.0000 
     13 C13         3.0916   53.7570   23.6420 C.ar      1 UNK         0.0000 
     14 C14         3.8532   54.1033   22.5287 C.ar      1 UNK         0.0000 
     15 C15         5.1960   54.4795   22.6704 C.ar      1 UNK         0.0000 
     16 C16         5.7627   54.4680   23.9536 C.ar      1 UNK         0.0000 
     17 C17         5.0158   54.0967   25.0743 C.ar      1 UNK         0.0000 
     18 Br18        5.9595   53.9464   26.7298 Br        1 UNK         0.0000 
     19 N19         5.9928   54.8967   21.4927 N.pl3     1 UNK         0.0000 
     20 O20         7.1045   55.3825   21.6817 O.co2     1 UNK         0.0000 
     21 O21         5.5044   54.7572   20.3759 O.co2     1 UNK         0.0000 
     22 H22         0.7044   54.4797   31.7537 H         1 UNK         0.0000 
     23 H23        -0.6655   53.4405   32.0032 H         1 UNK         0.0000 
     24 H24         0.9469   52.8015   32.2904 H         1 UNK         0.0000 
     25 H25         2.0034   54.3884   29.7470 H         1 UNK         0.0000 
     26 H26         0.7619   51.8268   26.5052 H         1 UNK         0.0000 
     27 H27        -0.8596   50.7773   27.9610 H         1 UNK         0.0000 
     28 H28        -1.3045   51.4918   31.4900 H         1 UNK         0.0000 
     29 H29        -1.6537   50.3898   30.1833 H         1 UNK         0.0000 
     30 H30         2.1985   52.5494   25.6906 H         1 UNK         0.0000 
     31 H31         2.0586   53.4749   23.4956 H         1 UNK         0.0000 
     32 H32         3.3830   54.0967   21.5539 H         1 UNK         0.0000 
     33 H33         6.8062   54.7214   24.0846 H         1 UNK         0.0000 
@<TRIPOS>BOND
     1    1    2 1    
     2    1   22 1    
     3    1   23 1    
     4    1   24 1    
     5    2    7 ar   
     6    2    3 ar   
     7    3    4 ar   
     8    3   25 1    
     9    4    5 ar   
    10    4    9 1    
    11    5    6 ar   
    12    5   26 1    
    13    6    7 ar   
    14    6   27 1    
    15    7    8 1    
    16    8   28 1    
    17    8   29 1    
    18    9   10 2    
    19    9   11 am   BACKBONE|DICT|INTERRES
    20   11   12 1    
    21   11   30 1    
    22   12   17 ar   
    23   12   13 ar   
    24   13   14 ar   
    25   13   31 1    
    26   14   15 ar   
    27   14   32 1    
    28   15   16 ar   
    29   15   19 1    
    30   16   17 ar   
    31   16   33 1    
    32   17   18 1    
    33   19   20 2    
    34   19   21 1    
@<TRIPOS>SUBSTRUCTURE
     1 UNK         1 GROUP             0       ****    0 ROOT    
