@<TRIPOS>MOLECULE
ZINC47757657_4590
53   56    1
SMALL
USER_CHARGES


@<TRIPOS>ATOM
      1 C1          0.2534   53.1122   28.5411 C.ar      1 UNK         0.0000 
      2 C2          0.8071   51.8433   28.7390 C.ar      1 UNK         0.0000 
      3 C3          2.1887   51.6977   28.8809 C.ar      1 UNK         0.0000 
      4 C4          2.9891   52.8334   28.8391 C.ar      1 UNK         0.0000 
      5 C5          2.4528   54.0899   28.6380 C.ar      1 UNK         0.0000 
      6 C6          1.0764   54.2416   28.4812 C.ar      1 UNK         0.0000 
      7 C7          3.5785   55.0500   28.4981 C.3       1 UNK         0.0000 
      8 C8          4.7763   54.1972   28.9416 C.3       1 UNK         0.0000 
      9 H9          4.9479   54.4966   29.9780 H         1 UNK         0.0000 
     10 O10         4.3580   52.8289   28.9313 O.3       1 UNK         0.0000 
     11 C11         6.0788   54.4209   28.1482 C.3       1 UNK         0.0000 
     12 N12         6.0040   53.9165   26.7788 N.am      1 UNK         0.0000 
     13 C13         6.2226   54.6480   25.6778 C.2       1 UNK         0.0000 
     14 O14         6.8625   55.6965   25.6768 O.2       1 UNK         0.0000 
     15 N15         5.6151   54.0966   24.6148 N.am      1 UNK         0.0000 
     16 C16         5.6940   54.4460   23.2577 C.ar      1 UNK         0.0000 
     17 C17         4.7068   53.9146   22.4263 C.ar      1 UNK         0.0000 
     18 C18         4.7031   54.2055   21.0649 C.ar      1 UNK         0.0000 
     19 C19         5.6954   55.0304   20.5134 C.ar      1 UNK         0.0000 
     20 C20         6.7079   55.5234   21.3444 C.ar      1 UNK         0.0000 
     21 C21         6.7046   55.2438   22.7083 C.ar      1 UNK         0.0000 
     22 C22         5.6824   55.4107   19.0516 C.2       1 UNK         0.0000 
     23 O23         6.7253   55.7194   18.4722 O.2       1 UNK         0.0000 
     24 N24         4.4727   55.4548   18.4637 N.am      1 UNK         0.0000 
     25 C25         4.2071   55.8757   17.0869 C.3       1 UNK         0.0000 
     26 C26         2.7002   55.8243   16.7879 C.3       1 UNK         0.0000 
     27 C27         2.4285   56.8692   15.6949 C.3       1 UNK         0.0000 
     28 C28         3.6700   57.7709   15.6334 C.3       1 UNK         0.0000 
     29 C29         4.5501   57.3500   16.8128 C.3       1 UNK         0.0000 
     30 H30        -0.8128   53.2106   28.4096 H         1 UNK         0.0000 
     31 H31         0.1663   50.9724   28.7641 H         1 UNK         0.0000 
     32 H32         2.6198   50.7184   28.9898 H         1 UNK         0.0000 
     33 H33         0.6507   55.2146   28.2855 H         1 UNK         0.0000 
     34 H34         3.4601   55.9572   29.0906 H         1 UNK         0.0000 
     35 H35         3.6648   55.2967   27.4402 H         1 UNK         0.0000 
     36 H36         6.9189   53.9564   28.6667 H         1 UNK         0.0000 
     37 H37         6.3044   55.4876   28.1411 H         1 UNK         0.0000 
     38 H38         5.7769   52.9370   26.6773 H         1 UNK         0.0000 
     39 H39         4.9790   53.3419   24.8151 H         1 UNK         0.0000 
     40 H40         3.9252   53.2856   22.8285 H         1 UNK         0.0000 
     41 H41         3.9192   53.7851   20.4488 H         1 UNK         0.0000 
     42 H42         7.5045   56.1321   20.9417 H         1 UNK         0.0000 
     43 H43         7.5024   55.6438   23.3150 H         1 UNK         0.0000 
     44 H44         3.6761   55.1206   18.9871 H         1 UNK         0.0000 
     45 H45         4.7119   55.2393   16.3543 H         1 UNK         0.0000 
     46 H46         2.1298   56.0911   17.6805 H         1 UNK         0.0000 
     47 H47         2.3704   54.8193   16.5209 H         1 UNK         0.0000 
     48 H48         1.5321   57.4497   15.9261 H         1 UNK         0.0000 
     49 H49         2.2582   56.3888   14.7302 H         1 UNK         0.0000 
     50 H50         3.4136   58.8314   15.6808 H         1 UNK         0.0000 
     51 H51         4.2043   57.6101   14.6955 H         1 UNK         0.0000 
     52 H52         5.6144   57.5011   16.6284 H         1 UNK         0.0000 
     53 H53         4.3114   57.9632   17.6814 H         1 UNK         0.0000 
@<TRIPOS>BOND
     1    1    6 ar   
     2    1    2 ar   
     3    1   30 1    
     4    2    3 ar   
     5    2   31 1    
     6    3    4 ar   
     7    3   32 1    
     8    4   10 1    
     9    4    5 ar   
    10    5    6 ar   
    11    5    7 1    
    12    6   33 1    
    13    7    8 1    
    14    7   34 1    
    15    7   35 1    
    16    8    9 1    
    17    8   10 1    
    18    8   11 1    
    19   11   12 1    
    20   11   36 1    
    21   11   37 1    
    22   12   13 am   BACKBONE|DICT|INTERRES
    23   12   38 1    
    24   13   14 2    
    25   13   15 am   BACKBONE|DICT|INTERRES
    26   15   16 1    
    27   15   39 1    
    28   16   21 ar   
    29   16   17 ar   
    30   17   18 ar   
    31   17   40 1    
    32   18   19 ar   
    33   18   41 1    
    34   19   20 ar   
    35   19   22 1    
    36   20   21 ar   
    37   20   42 1    
    38   21   43 1    
    39   22   23 2    
    40   22   24 am   BACKBONE|DICT|INTERRES
    41   24   25 1    
    42   24   44 1    
    43   25   29 1    
    44   25   26 1    
    45   25   45 1    
    46   26   27 1    
    47   26   46 1    
    48   26   47 1    
    49   27   28 1    
    50   27   48 1    
    51   27   49 1    
    52   28   29 1    
    53   28   50 1    
    54   28   51 1    
    55   29   52 1    
    56   29   53 1    
@<TRIPOS>SUBSTRUCTURE
     1 UNK         1 GROUP             0       ****    0 ROOT    
