@<TRIPOS>MOLECULE
ZINC35693420_5651
52   54    1
SMALL
USER_CHARGES


@<TRIPOS>ATOM
      1 C1         -3.2752   45.8493   26.8494 C.3       1 UNK         0.0000 
      2 C2         -3.0999   46.7587   25.6292 C.3       1 UNK         0.0000 
      3 N3         -1.6962   46.9590   25.2823 N.pl3     1 UNK         0.0000 
      4 C4         -1.2244   47.6958   24.2211 C.2       1 UNK         0.0000 
      5 O5         -1.7959   47.3042   23.1365 O.co2     1 UNK         0.0000 
      6 C6         -0.2923   48.6464   24.4335 C.2       1 UNK         0.0000 
      7 C7          0.3190   49.5424   23.4560 C.2       1 UNK         0.0000 
      8 C8          0.3632   49.2969   22.1317 C.2       1 UNK         0.0000 
      9 S9          1.1265   50.5744   21.1920 S.3       1 UNK         0.0000 
     10 C10         1.3975   51.4860   22.6845 C.2       1 UNK         0.0000 
     11 N11         1.9435   52.6392   22.7159 N.2       1 UNK         0.0000 
     12 C12         2.1440   53.2307   23.9301 C.2       1 UNK         0.0000 
     13 C13         1.5609   52.7782   25.0854 C.2       1 UNK         0.0000 
     14 C14         0.6355   51.5232   25.0453 C.3       1 UNK         0.0000 
     15 H15         0.9438   50.8329   25.8319 H         1 UNK         0.0000 
     16 N16         0.8391   50.7941   23.7590 N.pl3     1 UNK         0.0000 
     17 C17        -0.8454   51.8484   25.2779 C.ar      1 UNK         0.0000 
     18 C18        -1.5577   52.5899   24.3301 C.ar      1 UNK         0.0000 
     19 C19        -2.8972   52.8943   24.5444 C.ar      1 UNK         0.0000 
     20 C20        -3.5385   52.4667   25.7101 C.ar      1 UNK         0.0000 
     21 C21        -2.8310   51.7019   26.6454 C.ar      1 UNK         0.0000 
     22 C22        -1.4907   51.3942   26.4316 C.ar      1 UNK         0.0000 
     23 C23        -5.0026   52.8456   25.9361 C.3       1 UNK         0.0000 
     24 F24        -5.0962   54.1677   26.0818 F         1 UNK         0.0000 
     25 F25        -5.7388   52.4811   24.8851 F         1 UNK         0.0000 
     26 F26        -5.5198   52.2722   27.0242 F         1 UNK         0.0000 
     27 C27         1.8855   53.2963   26.4312 C.2       1 UNK         0.0000 
     28 O28         1.1284   53.1597   27.3942 O.2       1 UNK         0.0000 
     29 O29         3.1241   53.8338   26.5332 O.3       1 UNK         0.0000 
     30 C30         3.6293   54.2984   27.7778 C.3       1 UNK         0.0000 
     31 C31         5.1369   54.5341   27.6469 C.3       1 UNK         0.0000 
     32 C32         3.0022   54.4822   23.7589 C.3       1 UNK         0.0000 
     33 H33        -4.3297   45.6404   27.0313 H         1 UNK         0.0000 
     34 H34        -2.8819   46.3246   27.7505 H         1 UNK         0.0000 
     35 H35        -2.7595   44.8982   26.7222 H         1 UNK         0.0000 
     36 H36        -3.6333   46.3454   24.7701 H         1 UNK         0.0000 
     37 H37        -3.5510   47.7319   25.8351 H         1 UNK         0.0000 
     38 H38        -1.1700   47.1294   26.1317 H         1 UNK         0.0000 
     39 H39         0.0474   48.7642   25.4521 H         1 UNK         0.0000 
     40 H40        -0.0137   48.4182   21.6319 H         1 UNK         0.0000 
     41 H41        -1.0672   52.9376   23.4322 H         1 UNK         0.0000 
     42 H42        -3.4348   53.4769   23.8107 H         1 UNK         0.0000 
     43 H43        -3.3097   51.3437   27.5458 H         1 UNK         0.0000 
     44 H44        -0.9612   50.7969   27.1617 H         1 UNK         0.0000 
     45 H45         3.1208   55.2206   28.0607 H         1 UNK         0.0000 
     46 H46         3.4399   53.5642   28.5630 H         1 UNK         0.0000 
     47 H47         5.5543   54.8998   28.5851 H         1 UNK         0.0000 
     48 H48         5.6568   53.6096   27.3907 H         1 UNK         0.0000 
     49 H49         5.3548   55.2705   26.8705 H         1 UNK         0.0000 
     50 H50         4.0510   54.2412   23.9230 H         1 UNK         0.0000 
     51 H51         2.9094   54.8968   22.7536 H         1 UNK         0.0000 
     52 H52         2.7073   55.2746   24.4504 H         1 UNK         0.0000 
@<TRIPOS>BOND
     1    1    2 1    
     2    1   33 1    
     3    1   34 1    
     4    1   35 1    
     5    2    3 1    
     6    2   36 1    
     7    2   37 1    
     8    3    4 1    
     9    3   38 1    
    10    4    5 1    
    11    4    6 2    
    12    6    7 1    
    13    6   39 1    
    14    7   16 1    
    15    7    8 2    
    16    8    9 1    
    17    8   40 1    
    18    9   10 1    
    19   10   16 1    
    20   10   11 2    
    21   11   12 1    
    22   12   13 2    
    23   12   32 1    
    24   13   14 1    
    25   13   27 1    
    26   14   15 1    
    27   14   16 1    
    28   14   17 1    
    29   17   22 ar   
    30   17   18 ar   
    31   18   19 ar   
    32   18   41 1    
    33   19   20 ar   
    34   19   42 1    
    35   20   21 ar   
    36   20   23 1    
    37   21   22 ar   
    38   21   43 1    
    39   22   44 1    
    40   23   24 1    
    41   23   25 1    
    42   23   26 1    
    43   27   28 2    
    44   27   29 1    
    45   29   30 1    
    46   30   31 1    
    47   30   45 1    
    48   30   46 1    
    49   31   47 1    
    50   31   48 1    
    51   31   49 1    
    52   32   50 1    
    53   32   51 1    
    54   32   52 1    
@<TRIPOS>SUBSTRUCTURE
     1 UNK         1 GROUP             0       ****    0 ROOT    
