@<TRIPOS>MOLECULE
ZINC36221199_3987
62   66    1
SMALL
USER_CHARGES


@<TRIPOS>ATOM
      1 C1         -4.5021   44.8872   26.4817 C.ar      1 UNK         0.0000 
      2 C2         -5.2572   45.1203   25.3325 C.ar      1 UNK         0.0000 
      3 C3         -5.2195   46.3735   24.7240 C.ar      1 UNK         0.0000 
      4 C4         -4.4354   47.3975   25.2669 C.ar      1 UNK         0.0000 
      5 C5         -3.6948   47.1541   26.4307 C.ar      1 UNK         0.0000 
      6 C6         -3.7198   45.8999   27.0292 C.ar      1 UNK         0.0000 
      7 C7         -4.4473   48.7632   24.5729 C.3       1 UNK         0.0000 
      8 N8         -3.9219   49.9102   25.3270 N.am      1 UNK         0.0000 
      9 C9         -2.5096   50.2585   25.4536 C.3       1 UNK         0.0000 
     10 H10        -1.9348   49.4584   25.9229 H         1 UNK         0.0000 
     11 C11        -2.5749   51.4875   26.3518 C.3       1 UNK         0.0000 
     12 H12        -2.6450   52.4023   25.7553 H         1 UNK         0.0000 
     13 O13        -3.8380   51.3650   26.9753 O.3       1 UNK         0.0000 
     14 C14        -4.6797   50.5601   26.3005 C.2       1 UNK         0.0000 
     15 O15        -5.8739   50.4702   26.5775 O.2       1 UNK         0.0000 
     16 C16        -1.4101   51.6992   27.3168 C.ar      1 UNK         0.0000 
     17 C17        -1.5339   51.4101   28.6800 C.ar      1 UNK         0.0000 
     18 C18        -0.4956   51.7032   29.5620 C.ar      1 UNK         0.0000 
     19 C19         0.6893   52.2652   29.0861 C.ar      1 UNK         0.0000 
     20 C20         0.8388   52.5306   27.7163 C.ar      1 UNK         0.0000 
     21 C21        -0.2108   52.2386   26.8425 C.ar      1 UNK         0.0000 
     22 N22         2.0130   53.0448   27.1443 N.am      1 UNK         0.0000 
     23 C23         2.9415   53.8412   27.7163 C.2       1 UNK         0.0000 
     24 O24         2.8395   54.3406   28.8386 O.2       1 UNK         0.0000 
     25 C25         4.1638   54.0967   26.8688 C.ar      1 UNK         0.0000 
     26 C26         4.0518   54.3058   25.4828 C.ar      1 UNK         0.0000 
     27 C27         5.1891   54.4991   24.6982 C.ar      1 UNK         0.0000 
     28 C28         6.4534   54.4975   25.2837 C.ar      1 UNK         0.0000 
     29 C29         6.5759   54.3000   26.6590 C.ar      1 UNK         0.0000 
     30 C30         5.4446   54.0961   27.4477 C.ar      1 UNK         0.0000 
     31 F31         5.6147   53.8834   28.7721 F         1 UNK         0.0000 
     32 C32        -1.8524   50.6468   24.1107 C.2       1 UNK         0.0000 
     33 O33        -2.5132   51.1953   23.2241 O.2       1 UNK         0.0000 
     34 N34        -0.5432   50.3396   24.0047 N.am      1 UNK         0.0000 
     35 C35         0.3282   50.6438   22.9465 C.ar      1 UNK         0.0000 
     36 C36         1.3915   49.7645   22.7407 C.ar      1 UNK         0.0000 
     37 C37         2.3015   49.9966   21.7146 C.ar      1 UNK         0.0000 
     38 C38         2.1607   51.1219   20.9086 C.ar      1 UNK         0.0000 
     39 C39         1.1181   52.0210   21.1208 C.ar      1 UNK         0.0000 
     40 C40         0.1961   51.7833   22.1382 C.ar      1 UNK         0.0000 
     41 H41        -4.5253   43.9183   26.9612 H         1 UNK         0.0000 
     42 H42        -5.8718   44.3334   24.9186 H         1 UNK         0.0000 
     43 H43        -5.8075   46.5516   23.8351 H         1 UNK         0.0000 
     44 H44        -3.0899   47.9223   26.8818 H         1 UNK         0.0000 
     45 H45        -3.1395   45.7162   27.9230 H         1 UNK         0.0000 
     46 H46        -3.8896   48.6717   23.6407 H         1 UNK         0.0000 
     47 H47        -5.4793   48.9827   24.2940 H         1 UNK         0.0000 
     48 H48        -2.4394   50.9657   29.0713 H         1 UNK         0.0000 
     49 H49        -0.6145   51.4907   30.6160 H         1 UNK         0.0000 
     50 H50         1.4878   52.4658   29.7856 H         1 UNK         0.0000 
     51 H51        -0.1077   52.4603   25.7902 H         1 UNK         0.0000 
     52 H52         2.1841   52.7767   26.1882 H         1 UNK         0.0000 
     53 H53         3.0844   54.3206   24.9988 H         1 UNK         0.0000 
     54 H54         5.0892   54.6475   23.6331 H         1 UNK         0.0000 
     55 H55         7.3327   54.6384   24.6704 H         1 UNK         0.0000 
     56 H56         7.5497   54.2856   27.1249 H         1 UNK         0.0000 
     57 H57        -0.1521   49.7588   24.7320 H         1 UNK         0.0000 
     58 H58         1.5054   48.8954   23.3688 H         1 UNK         0.0000 
     59 H59         3.1044   49.2985   21.5395 H         1 UNK         0.0000 
     60 H60         2.8696   51.3018   20.1129 H         1 UNK         0.0000 
     61 H61         1.0253   52.8966   20.4946 H         1 UNK         0.0000 
     62 H62        -0.6019   52.4932   22.2956 H         1 UNK         0.0000 
@<TRIPOS>BOND
     1    1    6 ar   
     2    1    2 ar   
     3    1   41 1    
     4    2    3 ar   
     5    2   42 1    
     6    3    4 ar   
     7    3   43 1    
     8    4    5 ar   
     9    4    7 1    
    10    5    6 ar   
    11    5   44 1    
    12    6   45 1    
    13    7    8 1    
    14    7   46 1    
    15    7   47 1    
    16    8   14 am   BACKBONE|DICT|INTERRES
    17    8    9 1    
    18    9   10 1    
    19    9   11 1    
    20    9   32 1    
    21   11   12 1    
    22   11   13 1    
    23   11   16 1    
    24   13   14 1    
    25   14   15 2    
    26   16   21 ar   
    27   16   17 ar   
    28   17   18 ar   
    29   17   48 1    
    30   18   19 ar   
    31   18   49 1    
    32   19   20 ar   
    33   19   50 1    
    34   20   21 ar   
    35   20   22 1    
    36   21   51 1    
    37   22   23 am   BACKBONE|DICT|INTERRES
    38   22   52 1    
    39   23   24 2    
    40   23   25 1    
    41   25   30 ar   
    42   25   26 ar   
    43   26   27 ar   
    44   26   53 1    
    45   27   28 ar   
    46   27   54 1    
    47   28   29 ar   
    48   28   55 1    
    49   29   30 ar   
    50   29   56 1    
    51   30   31 1    
    52   32   33 2    
    53   32   34 am   BACKBONE|DICT|INTERRES
    54   34   35 1    
    55   34   57 1    
    56   35   40 ar   
    57   35   36 ar   
    58   36   37 ar   
    59   36   58 1    
    60   37   38 ar   
    61   37   59 1    
    62   38   39 ar   
    63   38   60 1    
    64   39   40 ar   
    65   39   61 1    
    66   40   62 1    
@<TRIPOS>SUBSTRUCTURE
     1 UNK         1 GROUP             0       ****    0 ROOT    
