ZINC43978883_2678
                    3D
 Schrodinger Suite 2024-2.
 64 66  0  0  1  0            999 V2000
    3.1525   53.0584   30.1356 C   0  0  0  0  0  0
    3.5992   53.4346   28.7356 C   0  0  0  0  0  0
    4.9237   53.7852   28.4858 C   0  0  0  0  0  0
    5.3342   54.0957   27.1967 C   0  0  0  0  0  0
    4.4250   54.0720   26.1227 C   0  0  0  0  0  0
    3.0852   53.7453   26.4028 C   0  0  0  0  0  0
    2.6766   53.4261   27.6938 C   0  0  0  0  0  0
    4.8058   54.3281   24.7697 N   0  0  0  0  0  0
    3.8207   54.3140   23.6721 C   0  0  0  0  0  0
    4.5612   54.4965   22.3607 C   0  0  1  0  0  0
    4.1474   55.2965   21.7545 H   0  0  0  0  0  0
    5.9911   54.8120   22.8025 C   0  0  0  0  0  0
    6.0594   54.6511   24.3185 C   0  0  0  0  0  0
    7.1043   54.8019   24.9520 O   0  0  0  0  0  0
    4.4515   53.2375   21.4814 C   0  0  0  0  0  0
    5.1968   52.2781   21.6651 O   0  0  0  0  0  0
    3.5045   53.2690   20.5261 N   0  0  0  0  0  0
    3.3516   52.2881   19.4524 C   0  0  0  0  0  0
    2.5701   50.9795   19.7817 C   0  0  0  0  0  0
    2.8414   50.3658   21.1804 C   0  0  0  0  0  0
    2.0692   49.0528   21.4145 C   0  0  0  0  0  0
    0.6329   49.3565   21.2298 N   0  0  0  0  0  0
    0.3075   49.7747   19.8503 C   0  0  0  0  0  0
    1.0375   51.1225   19.6069 C   0  0  0  0  0  0
   -0.2219   49.6821   22.2425 C   0  0  0  0  0  0
   -1.3632   50.0957   22.0256 O   0  0  0  0  0  0
    0.2101   49.4081   23.4938 N   0  0  0  0  0  0
   -0.5418   49.4623   24.7616 C   0  0  0  0  0  0
   -1.3181   50.7899   24.9518 C   0  0  0  0  0  0
    0.4732   49.3677   25.9149 C   0  0  0  0  0  0
   -1.5157   48.2663   24.8532 C   0  0  0  0  0  0
    2.9546   51.9863   30.1905 H   0  0  0  0  0  0
    3.9013   53.3203   30.8834 H   0  0  0  0  0  0
    2.2254   53.5759   30.3898 H   0  0  0  0  0  0
    5.6525   53.8077   29.2778 H   0  0  0  0  0  0
    6.3771   54.3326   27.0787 H   0  0  0  0  0  0
    2.3321   53.7151   25.6313 H   0  0  0  0  0  0
    1.6467   53.1624   27.8808 H   0  0  0  0  0  0
    3.1528   55.1627   23.8169 H   0  0  0  0  0  0
    3.1818   53.4289   23.6706 H   0  0  0  0  0  0
    6.7408   54.1471   22.3733 H   0  0  0  0  0  0
    6.3041   55.8146   22.5136 H   0  0  0  0  0  0
    2.8728   54.0609   20.4816 H   0  0  0  0  0  0
    4.3326   52.0942   19.0204 H   0  0  0  0  0  0
    2.8222   52.8118   18.6543 H   0  0  0  0  0  0
    2.8895   50.2311   19.0516 H   0  0  0  0  0  0
    2.6082   51.0760   21.9750 H   0  0  0  0  0  0
    3.9044   50.1680   21.2777 H   0  0  0  0  0  0
    2.2996   48.5422   22.3496 H   0  0  0  0  0  0
    2.3436   48.3261   20.6488 H   0  0  0  0  0  0
    0.6933   49.0073   19.1781 H   0  0  0  0  0  0
   -0.7655   49.7876   19.6464 H   0  0  0  0  0  0
    0.8184   51.4706   18.5969 H   0  0  0  0  0  0
    0.6438   51.9052   20.2587 H   0  0  0  0  0  0
    1.1506   49.0540   23.5817 H   0  0  0  0  0  0
   -1.7317   50.8653   25.9583 H   0  0  0  0  0  0
   -2.1590   50.8805   24.2652 H   0  0  0  0  0  0
   -0.6745   51.6560   24.8006 H   0  0  0  0  0  0
    1.1225   48.4974   25.8246 H   0  0  0  0  0  0
    1.1041   50.2544   25.9530 H   0  0  0  0  0  0
   -0.0283   49.2963   26.8805 H   0  0  0  0  0  0
   -0.9870   47.3131   24.7922 H   0  0  0  0  0  0
   -2.0644   48.2692   25.7960 H   0  0  0  0  0  0
   -2.2528   48.2846   24.0506 H   0  0  0  0  0  0
  1  2  1  0  0  0
  1 32  1  0  0  0
  1 33  1  0  0  0
  1 34  1  0  0  0
  2  7  2  0  0  0
  2  3  1  0  0  0
  3  4  2  0  0  0
  3 35  1  0  0  0
  4  5  1  0  0  0
  4 36  1  0  0  0
  5  6  2  0  0  0
  5  8  1  0  0  0
  6  7  1  0  0  0
  6 37  1  0  0  0
  7 38  1  0  0  0
  8 13  1  0  0  0
  8  9  1  0  0  0
  9 10  1  0  0  0
  9 39  1  0  0  0
  9 40  1  0  0  0
 10 11  1  0  0  0
 10 12  1  0  0  0
 10 15  1  0  0  0
 12 13  1  0  0  0
 12 41  1  0  0  0
 12 42  1  0  0  0
 13 14  2  0  0  0
 15 16  2  0  0  0
 15 17  1  0  0  0
 17 18  1  0  0  0
 17 43  1  0  0  0
 18 19  1  0  0  0
 18 44  1  0  0  0
 18 45  1  0  0  0
 19 24  1  0  0  0
 19 20  1  0  0  0
 19 46  1  0  0  0
 20 21  1  0  0  0
 20 47  1  0  0  0
 20 48  1  0  0  0
 21 22  1  0  0  0
 21 49  1  0  0  0
 21 50  1  0  0  0
 22 23  1  0  0  0
 22 25  1  0  0  0
 23 24  1  0  0  0
 23 51  1  0  0  0
 23 52  1  0  0  0
 24 53  1  0  0  0
 24 54  1  0  0  0
 25 26  2  0  0  0
 25 27  1  0  0  0
 27 28  1  0  0  0
 27 55  1  0  0  0
 28 29  1  0  0  0
 28 30  1  0  0  0
 28 31  1  0  0  0
 29 56  1  0  0  0
 29 57  1  0  0  0
 29 58  1  0  0  0
 30 59  1  0  0  0
 30 60  1  0  0  0
 30 61  1  0  0  0
 31 62  1  0  0  0
 31 63  1  0  0  0
 31 64  1  0  0  0
M  END
> <i_i_glide_confnum>
58

> <i_i_glide_lignum>
2679

> <i_i_glide_posenum>
170

> <i_i_glide_rotatable_bonds>
8

> <i_m_Source_File_Index>
237

> <b_m_subgroup_collapsed>
0

> <r_i_docking_score>
-6.48976

> <r_i_glide_ecoul>
-5.96098

> <r_i_glide_eff_state_penalty>
0

> <r_i_glide_einternal>
5.33827

> <r_i_glide_emodel>
-60.9165

> <r_i_glide_energy>
-46.4082

> <r_i_glide_erotb>
0.804038

> <r_i_glide_esite>
-0.00388417

> <r_i_glide_evdw>
-40.4472

> <r_i_glide_gscore>
-6.48976

> <r_i_glide_hbond>
-0.513801

> <r_i_glide_ligand_efficiency>
-0.216325

> <r_i_glide_ligand_efficiency_ln>
-1.47454

> <r_i_glide_ligand_efficiency_sa>
-0.672173

> <r_i_glide_lipo>
-2.14607

> <r_i_glide_metal>
0

> <r_i_glide_rewards>
-1.71353

> <s_i_glide_gridfile>
wee1_glide-grid

> <s_m_Source_File>
wee1_decoys_glide_SP.sdf

> <s_m_Source_Path>
/Users/zhangxujun/Desktop

> <s_m_entry_id>
512

> <s_m_entry_name>
wee1_decoys_glide_SP.237

> <s_m_subgroup_title>
wee1_decoys_glide_SP

> <s_m_subgroupid>
wee1_decoys_glide_SP


$$$$
