ZINC20504575_1222
                    3D
 Schrodinger Suite 2024-2.
 72 75  0  0  1  0            999 V2000
    2.7376   50.3335   21.0461 C   0  0  0  0  0  0
    2.3091   51.6729   21.6957 C   0  0  2  0  0  0
    1.4369   52.0354   21.1479 H   0  0  0  0  0  0
    3.4364   52.7067   21.5059 C   0  0  0  0  0  0
    3.9198   53.5011   22.4711 C   0  0  0  0  0  0
    5.2468   54.4885   21.8737 S   0  0  0  0  0  0
    4.9247   53.9633   20.1756 C   0  0  0  0  0  0
    4.0025   52.9445   20.2739 N   0  0  0  0  0  0
    5.4175   54.3955   19.0795 N   0  0  0  0  0  0
    6.3726   55.3932   19.0264 C   0  0  0  0  0  0
    6.4114   56.3897   19.7560 O   0  0  0  0  0  0
    7.3514   55.1659   17.8554 C   0  0  0  0  0  0
    8.4660   56.2443   17.6969 N   0  3  0  0  0  0
    7.9503   57.6730   17.3943 C   0  0  0  0  0  0
    9.5042   56.2187   18.8404 C   0  0  0  0  0  0
    3.4220   53.5140   23.9019 C   0  0  0  0  0  0
    1.9804   52.9293   23.9837 C   0  0  1  0  0  0
    1.9078   51.5466   23.2260 C   0  0  1  0  0  0
    2.6671   50.9152   23.6883 H   0  0  0  0  0  0
    0.5176   50.8559   23.4979 C   0  0  2  0  0  0
   -0.2441   51.4799   23.0297 H   0  0  0  0  0  0
    0.1575   50.7197   25.0212 C   0  0  1  0  0  0
    0.9561   50.1111   25.4492 H   0  0  0  0  0  0
    0.2726   52.0996   25.7176 C   0  0  0  0  0  0
    1.6527   52.7188   25.4871 C   0  0  0  0  0  0
   -1.2127   50.0322   25.3790 C   0  0  2  0  0  0
   -1.3699   50.1738   26.4472 H   0  0  0  0  0  0
   -1.1665   48.4887   25.2774 C   0  0  0  0  0  0
   -2.4288   50.6429   24.6229 C   0  0  0  0  0  0
   -2.6975   50.1956   23.5046 O   0  0  0  0  0  0
   -3.0525   51.7549   25.1128 N   0  0  0  0  0  0
   -4.1466   52.3787   24.3494 C   0  0  0  0  0  0
   -5.4683   51.6713   24.7216 C   0  0  0  0  0  0
   -5.8780   51.8622   26.4902 S   0  0  0  0  0  0
   -4.2761   51.3246   27.1800 C   0  0  0  0  0  0
   -3.0985   52.0955   26.5457 C   0  0  0  0  0  0
    0.4132   49.6035   22.8545 O   0  0  0  0  0  0
    1.0067   53.9559   23.3624 C   0  0  0  0  0  0
    3.1343   50.4648   20.0384 H   0  0  0  0  0  0
    3.5041   49.8404   21.6371 H   0  0  0  0  0  0
    1.9100   49.6367   20.9335 H   0  0  0  0  0  0
    6.8088   55.1637   16.9099 H   0  0  0  0  0  0
    7.8659   54.2107   17.9607 H   0  0  0  0  0  0
    7.5032   58.0979   18.2949 H   0  0  0  0  0  0
    7.2165   57.6007   16.5889 H   0  0  0  0  0  0
    8.8098   58.2670   17.0773 H   0  0  0  0  0  0
    9.0175   56.4989   19.7747 H   0  0  0  0  0  0
    9.8978   55.2021   18.8945 H   0  0  0  0  0  0
   10.3003   56.9207   18.5882 H   0  0  0  0  0  0
    4.1077   52.9193   24.4976 H   0  0  0  0  0  0
    3.4546   54.5196   24.3242 H   0  0  0  0  0  0
   -0.5225   52.7732   25.4015 H   0  0  0  0  0  0
    0.1209   51.9791   26.7906 H   0  0  0  0  0  0
    2.4024   52.0967   25.9695 H   0  0  0  0  0  0
    1.7006   53.6738   26.0132 H   0  0  0  0  0  0
   -2.0470   48.0399   25.7420 H   0  0  0  0  0  0
   -1.1307   48.1278   24.2502 H   0  0  0  0  0  0
   -0.2963   48.0965   25.8027 H   0  0  0  0  0  0
   -4.1899   53.4399   24.5953 H   0  0  0  0  0  0
   -3.9243   52.3830   23.2814 H   0  0  0  0  0  0
   -5.4124   50.6023   24.5139 H   0  0  0  0  0  0
   -6.2947   52.0721   24.1318 H   0  0  0  0  0  0
   -4.1815   50.2499   27.0172 H   0  0  0  0  0  0
   -4.3044   51.4799   28.2581 H   0  0  0  0  0  0
   -2.1464   51.9649   27.0577 H   0  0  0  0  0  0
   -3.2534   53.1704   26.6377 H   0  0  0  0  0  0
    0.9900   48.9854   23.3098 H   0  0  0  0  0  0
   -0.0367   53.6576   23.4335 H   0  0  0  0  0  0
    1.1042   54.9042   23.8778 H   0  0  0  0  0  0
    1.2204   54.1337   22.3090 H   0  0  0  0  0  0
    8.9775   55.9681   16.8651 H   0  0  0  0  0  0
    3.7551   52.4232   19.4448 H   0  0  0  0  0  0
  1  2  1  0  0  0
  1 39  1  0  0  0
  1 40  1  0  0  0
  1 41  1  0  0  0
  2  3  1  0  0  0
  2 18  1  0  0  0
  2  4  1  0  0  0
  4  8  1  0  0  0
  4  5  2  0  0  0
  5  6  1  0  0  0
  5 16  1  0  0  0
  6  7  1  0  0  0
  7  8  1  0  0  0
  7  9  2  0  0  0
  8 72  1  0  0  0
  9 10  1  0  0  0
 10 11  2  0  0  0
 10 12  1  0  0  0
 12 13  1  0  0  0
 12 42  1  0  0  0
 12 43  1  0  0  0
 13 14  1  0  0  0
 13 15  1  0  0  0
 13 71  1  0  0  0
 14 44  1  0  0  0
 14 45  1  0  0  0
 14 46  1  0  0  0
 15 47  1  0  0  0
 15 48  1  0  0  0
 15 49  1  0  0  0
 16 17  1  0  0  0
 16 50  1  0  0  0
 16 51  1  0  0  0
 17 25  1  0  0  0
 17 18  1  0  0  0
 17 38  1  0  0  0
 18 19  1  0  0  0
 18 20  1  0  0  0
 20 21  1  0  0  0
 20 22  1  0  0  0
 20 37  1  0  0  0
 22 23  1  0  0  0
 22 24  1  0  0  0
 22 26  1  0  0  0
 24 25  1  0  0  0
 24 52  1  0  0  0
 24 53  1  0  0  0
 25 54  1  0  0  0
 25 55  1  0  0  0
 26 27  1  0  0  0
 26 28  1  0  0  0
 26 29  1  0  0  0
 28 56  1  0  0  0
 28 57  1  0  0  0
 28 58  1  0  0  0
 29 30  2  0  0  0
 29 31  1  0  0  0
 31 36  1  0  0  0
 31 32  1  0  0  0
 32 33  1  0  0  0
 32 59  1  0  0  0
 32 60  1  0  0  0
 33 34  1  0  0  0
 33 61  1  0  0  0
 33 62  1  0  0  0
 34 35  1  0  0  0
 35 36  1  0  0  0
 35 63  1  0  0  0
 35 64  1  0  0  0
 36 65  1  0  0  0
 36 66  1  0  0  0
 37 67  1  0  0  0
 38 68  1  0  0  0
 38 69  1  0  0  0
 38 70  1  0  0  0
M  CHG  1  13   1
M  END
> <i_i_glide_confnum>
70

> <i_i_glide_lignum>
1223

> <i_i_glide_posenum>
320

> <i_i_glide_rotatable_bonds>
7

> <i_m_Source_File_Index>
5750

> <b_m_subgroup_collapsed>
0

> <r_i_docking_score>
-3.58246

> <r_i_glide_ecoul>
-6.02026

> <r_i_glide_eff_state_penalty>
0

> <r_i_glide_einternal>
17.6626

> <r_i_glide_emodel>
-37.4234

> <r_i_glide_energy>
-36.7123

> <r_i_glide_erotb>
0.414813

> <r_i_glide_esite>
-0.0183054

> <r_i_glide_evdw>
-30.692

> <r_i_glide_gscore>
-3.58246

> <r_i_glide_hbond>
0

> <r_i_glide_ligand_efficiency>
-0.108559

> <r_i_glide_ligand_efficiency_ln>
-0.79672

> <r_i_glide_ligand_efficiency_sa>
-0.348208

> <r_i_glide_lipo>
-1.477

> <r_i_glide_metal>
0

> <r_i_glide_rewards>
-0.0643219

> <s_i_glide_gridfile>
wee1_glide-grid

> <s_m_Source_File>
wee1_decoys_glide_SP.sdf

> <s_m_Source_Path>
/Users/zhangxujun/Desktop

> <s_m_entry_id>
6025

> <s_m_entry_name>
wee1_decoys_glide_SP.5750

> <s_m_subgroup_title>
wee1_decoys_glide_SP

> <s_m_subgroupid>
wee1_decoys_glide_SP


$$$$
