ZINC13197819_3299
                    3D
 Schrodinger Suite 2024-2.
 47 49  0  0  1  0            999 V2000
    3.9920   54.0798   24.1604 C   0  0  0  0  0  0
    2.7716   53.4345   23.9729 C   0  0  0  0  0  0
    2.4387   52.8221   22.7566 C   0  0  0  0  0  0
    3.3793   52.8824   21.6983 C   0  0  0  0  0  0
    4.5974   53.5504   21.8940 C   0  0  0  0  0  0
    4.9322   54.1095   23.1288 C   0  0  0  0  0  0
    6.3232   54.7076   23.3457 C   0  0  0  0  0  0
    6.7109   55.4290   22.2926 F   0  0  0  0  0  0
    6.3777   55.4832   24.4316 F   0  0  0  0  0  0
    7.1811   53.7018   23.5072 F   0  0  0  0  0  0
    3.2079   52.1663   20.4211 N   0  3  0  0  0  0
    3.4772   52.7745   19.3903 O   0  0  0  0  0  0
    2.8984   50.9802   20.4594 O   0  5  0  0  0  0
    1.2114   52.1594   22.7149 N   0  0  0  0  0  0
    0.3297   52.1075   21.5329 C   0  0  0  0  0  0
   -1.1324   51.8929   21.9607 C   0  0  0  0  0  0
   -1.2256   50.5669   22.5914 N   0  0  0  0  0  0
   -0.4184   50.5050   23.8276 C   0  0  0  0  0  0
    1.0431   50.9626   23.5785 C   0  0  0  0  0  0
   -2.8344   49.8338   22.6719 S   0  0  0  0  0  0
   -2.6515   48.3859   22.8297 O   0  0  0  0  0  0
   -3.6408   50.3710   21.5689 O   0  0  0  0  0  0
   -3.5527   50.4399   24.1981 C   0  0  0  0  0  0
   -3.6358   49.6022   25.3082 C   0  0  0  0  0  0
   -4.2086   50.0690   26.4841 C   0  0  0  0  0  0
   -4.6917   51.3755   26.5736 C   0  0  0  0  0  0
   -4.5825   52.2604   25.4713 C   0  0  0  0  0  0
   -4.0135   51.7549   24.2866 C   0  0  0  0  0  0
   -5.0286   53.7012   25.5025 C   0  0  0  0  0  0
   -5.6690   54.1367   26.4854 O   0  0  0  0  0  0
   -5.2485   51.7071   27.7811 O   0  0  0  0  0  0
    4.2123   54.5160   25.1244 H   0  0  0  0  0  0
    2.0724   53.4056   24.7969 H   0  0  0  0  0  0
    5.3253   53.5644   21.0934 H   0  0  0  0  0  0
    0.6213   51.2490   20.9283 H   0  0  0  0  0  0
    0.4306   52.9980   20.9126 H   0  0  0  0  0  0
   -1.7619   51.8970   21.0710 H   0  0  0  0  0  0
   -1.4303   52.6825   22.6524 H   0  0  0  0  0  0
   -0.8366   51.2080   24.5503 H   0  0  0  0  0  0
   -0.4144   49.4831   24.2128 H   0  0  0  0  0  0
    1.6028   51.0354   24.5080 H   0  0  0  0  0  0
    1.4936   50.1947   22.9445 H   0  0  0  0  0  0
   -3.2669   48.5870   25.2693 H   0  0  0  0  0  0
   -4.2669   49.4014   27.3326 H   0  0  0  0  0  0
   -3.9230   52.3888   23.4156 H   0  0  0  0  0  0
   -5.2026   50.9789   28.4048 H   0  0  0  0  0  0
   -4.7267   54.4271   24.5258 O   0  5  0  0  0  0
  1  6  2  0  0  0
  1  2  1  0  0  0
  1 32  1  0  0  0
  2  3  2  0  0  0
  2 33  1  0  0  0
  3  4  1  0  0  0
  3 14  1  0  0  0
  4  5  2  0  0  0
  4 11  1  0  0  0
  5  6  1  0  0  0
  5 34  1  0  0  0
  6  7  1  0  0  0
  7  8  1  0  0  0
  7  9  1  0  0  0
  7 10  1  0  0  0
 11 12  2  0  0  0
 11 13  1  0  0  0
 14 19  1  0  0  0
 14 15  1  0  0  0
 15 16  1  0  0  0
 15 35  1  0  0  0
 15 36  1  0  0  0
 16 17  1  0  0  0
 16 37  1  0  0  0
 16 38  1  0  0  0
 17 18  1  0  0  0
 17 20  1  0  0  0
 18 19  1  0  0  0
 18 39  1  0  0  0
 18 40  1  0  0  0
 19 41  1  0  0  0
 19 42  1  0  0  0
 20 21  2  0  0  0
 20 22  2  0  0  0
 20 23  1  0  0  0
 23 28  2  0  0  0
 23 24  1  0  0  0
 24 25  2  0  0  0
 24 43  1  0  0  0
 25 26  1  0  0  0
 25 44  1  0  0  0
 26 27  2  0  0  0
 26 31  1  0  0  0
 27 28  1  0  0  0
 27 29  1  0  0  0
 28 45  1  0  0  0
 29 30  2  0  0  0
 29 47  1  0  0  0
 31 46  1  0  0  0
M  CHG  3  11   1  13  -1  47  -1
M  END
> <i_i_glide_confnum>
3

> <i_i_glide_lignum>
3300

> <i_i_glide_posenum>
324

> <i_i_glide_rotatable_bonds>
7

> <i_m_Source_File_Index>
3762

> <b_m_subgroup_collapsed>
0

> <r_i_docking_score>
-4.08795

> <r_i_glide_ecoul>
-1.9453

> <r_i_glide_eff_state_penalty>
0

> <r_i_glide_einternal>
9.07151

> <r_i_glide_emodel>
-41.4047

> <r_i_glide_energy>
-34.6288

> <r_i_glide_erotb>
0.269741

> <r_i_glide_esite>
-0.0718333

> <r_i_glide_evdw>
-32.6835

> <r_i_glide_gscore>
-4.08795

> <r_i_glide_hbond>
-0.0624452

> <r_i_glide_ligand_efficiency>
-0.127748

> <r_i_glide_ligand_efficiency_ln>
-0.915403

> <r_i_glide_ligand_efficiency_sa>
-0.405576

> <r_i_glide_lipo>
-1.48839

> <r_i_glide_metal>
0

> <r_i_glide_rewards>
-0.809055

> <s_i_glide_gridfile>
wee1_glide-grid

> <s_m_Source_File>
wee1_decoys_glide_SP.sdf

> <s_m_Source_Path>
/Users/zhangxujun/Desktop

> <s_m_entry_id>
4037

> <s_m_entry_name>
wee1_decoys_glide_SP.3762

> <s_m_subgroup_title>
wee1_decoys_glide_SP

> <s_m_subgroupid>
wee1_decoys_glide_SP


$$$$
