@<TRIPOS>MOLECULE
ZINC36218733_5405
65   69    1
SMALL
USER_CHARGES


@<TRIPOS>ATOM
      1 C1         -8.0205   54.4981   25.0389 C.3       1 UNK         0.0000 
      2 C2         -6.9323   53.6494   25.6700 C.ar      1 UNK         0.0000 
      3 C3         -7.1647   53.0200   26.8938 C.ar      1 UNK         0.0000 
      4 C4         -6.1755   52.2241   27.4678 C.ar      1 UNK         0.0000 
      5 C5         -4.9485   52.0576   26.8251 C.ar      1 UNK         0.0000 
      6 C6         -4.6939   52.6794   25.5886 C.ar      1 UNK         0.0000 
      7 C7         -5.7000   53.4848   25.0309 C.ar      1 UNK         0.0000 
      8 C8         -3.3776   52.4996   24.8583 C.2       1 UNK         0.0000 
      9 O9         -3.0462   53.2964   23.9771 O.2       1 UNK         0.0000 
     10 N10        -2.6590   51.4149   25.2249 N.am      1 UNK         0.0000 
     11 C11        -1.4068   50.9561   24.7775 C.ar      1 UNK         0.0000 
     12 C12        -0.9310   49.8003   25.4013 C.ar      1 UNK         0.0000 
     13 C13         0.3052   49.2664   25.0477 C.ar      1 UNK         0.0000 
     14 C14         1.0831   49.8919   24.0782 C.ar      1 UNK         0.0000 
     15 C15         0.6361   51.0584   23.4476 C.ar      1 UNK         0.0000 
     16 C16        -0.6206   51.5764   23.7895 C.ar      1 UNK         0.0000 
     17 C17         1.5063   51.7837   22.4103 C.3       1 UNK         0.0000 
     18 H18         0.9049   51.8053   21.4995 H         1 UNK         0.0000 
     19 C19         2.0201   53.2062   22.6798 C.3       1 UNK         0.0000 
     20 H20         1.2995   53.9415   22.3235 H         1 UNK         0.0000 
     21 N21         3.2254   53.2245   21.8512 N.am      1 UNK         0.0000 
     22 C22         3.6604   51.9198   21.6052 C.2       1 UNK         0.0000 
     23 O23         4.7043   51.5004   21.1134 O.2       1 UNK         0.0000 
     24 O24         2.7020   51.1007   22.0770 O.3       1 UNK         0.0000 
     25 C25         4.0497   54.4219   21.6377 C.3       1 UNK         0.0000 
     26 C26         4.8724   54.4980   20.3531 C.ar      1 UNK         0.0000 
     27 C27         4.3451   54.0648   19.1307 C.ar      1 UNK         0.0000 
     28 C28         5.1244   54.1204   17.9792 C.ar      1 UNK         0.0000 
     29 C29         6.4224   54.6240   18.0471 C.ar      1 UNK         0.0000 
     30 C30         6.9482   55.0730   19.2567 C.ar      1 UNK         0.0000 
     31 C31         6.1719   55.0102   20.4110 C.ar      1 UNK         0.0000 
     32 C32         2.2397   53.5463   24.1858 C.2       1 UNK         0.0000 
     33 O33         1.2402   53.6973   24.8821 O.2       1 UNK         0.0000 
     34 N34         3.5037   53.6967   24.6433 N.am      1 UNK         0.0000 
     35 C35         3.9775   53.9900   25.9384 C.ar      1 UNK         0.0000 
     36 C36         5.3578   54.1992   26.0512 C.ar      1 UNK         0.0000 
     37 C37         5.9404   54.4521   27.2932 C.ar      1 UNK         0.0000 
     38 C38         5.1469   54.4964   28.4374 C.ar      1 UNK         0.0000 
     39 C39         3.7720   54.2888   28.3420 C.ar      1 UNK         0.0000 
     40 C40         3.1858   54.0367   27.1002 C.ar      1 UNK         0.0000 
     41 F41         3.0086   54.3315   29.4583 F         1 UNK         0.0000 
     42 H42        -8.3846   55.2382   25.7542 H         1 UNK         0.0000 
     43 H43        -7.6686   55.0299   24.1530 H         1 UNK         0.0000 
     44 H44        -8.8670   53.8688   24.7547 H         1 UNK         0.0000 
     45 H45        -8.1129   53.1390   27.3982 H         1 UNK         0.0000 
     46 H46        -6.3590   51.7333   28.4139 H         1 UNK         0.0000 
     47 H47        -4.2074   51.4379   27.3126 H         1 UNK         0.0000 
     48 H48        -5.5368   53.9747   24.0818 H         1 UNK         0.0000 
     49 H49        -3.0725   50.8392   25.9416 H         1 UNK         0.0000 
     50 H50        -1.5071   49.3032   26.1728 H         1 UNK         0.0000 
     51 H51         0.6666   48.3749   25.5406 H         1 UNK         0.0000 
     52 H52         2.0461   49.4658   23.8318 H         1 UNK         0.0000 
     53 H53        -0.9451   52.4795   23.3001 H         1 UNK         0.0000 
     54 H54         4.7333   54.5176   22.4802 H         1 UNK         0.0000 
     55 H55         3.3930   55.2889   21.6816 H         1 UNK         0.0000 
     56 H56         3.3393   53.6710   19.0744 H         1 UNK         0.0000 
     57 H57         4.7261   53.7679   17.0387 H         1 UNK         0.0000 
     58 H58         7.0269   54.6622   17.1524 H         1 UNK         0.0000 
     59 H59         7.9562   55.4590   19.2982 H         1 UNK         0.0000 
     60 H60         6.5881   55.3497   21.3493 H         1 UNK         0.0000 
     61 H61         4.2305   53.5689   23.9580 H         1 UNK         0.0000 
     62 H62         5.9924   54.1594   25.1756 H         1 UNK         0.0000 
     63 H63         7.0064   54.6105   27.3754 H         1 UNK         0.0000 
     64 H64         5.5988   54.6982   29.3967 H         1 UNK         0.0000 
     65 H65         2.1213   53.8659   27.0743 H         1 UNK         0.0000 
@<TRIPOS>BOND
     1    1    2 1    
     2    1   42 1    
     3    1   43 1    
     4    1   44 1    
     5    2    7 ar   
     6    2    3 ar   
     7    3    4 ar   
     8    3   45 1    
     9    4    5 ar   
    10    4   46 1    
    11    5    6 ar   
    12    5   47 1    
    13    6    7 ar   
    14    6    8 1    
    15    7   48 1    
    16    8    9 2    
    17    8   10 am   BACKBONE|DICT|INTERRES
    18   10   11 1    
    19   10   49 1    
    20   11   16 ar   
    21   11   12 ar   
    22   12   13 ar   
    23   12   50 1    
    24   13   14 ar   
    25   13   51 1    
    26   14   15 ar   
    27   14   52 1    
    28   15   16 ar   
    29   15   17 1    
    30   16   53 1    
    31   17   18 1    
    32   17   24 1    
    33   17   19 1    
    34   19   20 1    
    35   19   21 1    
    36   19   32 1    
    37   21   22 am   BACKBONE|DICT|INTERRES
    38   21   25 1    
    39   22   23 2    
    40   22   24 1    
    41   25   26 1    
    42   25   54 1    
    43   25   55 1    
    44   26   31 ar   
    45   26   27 ar   
    46   27   28 ar   
    47   27   56 1    
    48   28   29 ar   
    49   28   57 1    
    50   29   30 ar   
    51   29   58 1    
    52   30   31 ar   
    53   30   59 1    
    54   31   60 1    
    55   32   33 2    
    56   32   34 am   BACKBONE|DICT|INTERRES
    57   34   35 1    
    58   34   61 1    
    59   35   40 ar   
    60   35   36 ar   
    61   36   37 ar   
    62   36   62 1    
    63   37   38 ar   
    64   37   63 1    
    65   38   39 ar   
    66   38   64 1    
    67   39   40 ar   
    68   39   41 1    
    69   40   65 1    
@<TRIPOS>SUBSTRUCTURE
     1 UNK         1 GROUP             0       ****    0 ROOT    
