ZINC18240539_2622
                    3D
 Schrodinger Suite 2024-2.
 29 30  0  0  1  0            999 V2000
   10.2239   55.7755   16.6639 C   0  0  0  0  0  0
    9.0469   55.4579   17.5533 C   0  0  0  0  0  0
    8.7058   56.0134   18.7923 C   0  0  0  0  0  0
    7.5592   55.3638   19.2244 C   0  0  0  0  0  0
    7.2848   54.4960   18.1919 N   0  0  0  0  0  0
    6.5033   53.8569   18.1607 H   0  0  0  0  0  0
    8.1736   54.5439   17.1940 N   0  0  0  0  0  0
    6.8155   55.5421   20.4456 C   0  0  0  0  0  0
    7.0651   56.4950   21.1882 O   0  0  0  0  0  0
    5.9041   54.5609   20.6959 N   0  0  0  0  0  0
    5.1922   54.2811   21.8427 N   0  0  0  0  0  0
    5.6937   54.4966   23.0050 C   0  0  0  0  0  0
    4.9426   54.2957   24.2656 C   0  0  0  0  0  0
    3.6083   53.8549   24.2023 C   0  0  0  0  0  0
    2.8715   53.5988   25.3527 C   0  0  0  0  0  0
    3.4461   53.7974   26.6013 C   0  0  0  0  0  0
    4.7584   54.2527   26.7048 C   0  0  0  0  0  0
    5.5117   54.5177   25.5456 C   0  0  0  0  0  0
    6.7042   54.9607   25.6829 O   0  5  0  0  0  0
    5.4820   54.4628   28.4609 Br  0  0  0  0  0  0
    1.1085   52.8968   25.2089 Br  0  0  0  0  0  0
   10.8604   56.5483   17.0951 H   0  0  0  0  0  0
   10.8525   54.8992   16.5026 H   0  0  0  0  0  0
    9.9053   56.1311   15.6840 H   0  0  0  0  0  0
    9.2536   56.7792   19.3233 H   0  0  0  0  0  0
    5.5263   54.0876   19.8891 H   0  0  0  0  0  0
    6.7167   54.8443   23.1326 H   0  0  0  0  0  0
    3.1301   53.6714   23.2494 H   0  0  0  0  0  0
    2.8776   53.5811   27.4938 H   0  0  0  0  0  0
  1  2  1  0  0  0
  1 22  1  0  0  0
  1 23  1  0  0  0
  1 24  1  0  0  0
  2  7  2  0  0  0
  2  3  1  0  0  0
  3  4  2  0  0  0
  3 25  1  0  0  0
  4  5  1  0  0  0
  4  8  1  0  0  0
  5  6  1  0  0  0
  5  7  1  0  0  0
  8  9  2  0  0  0
  8 10  1  0  0  0
 10 11  1  0  0  0
 10 26  1  0  0  0
 11 12  2  0  0  0
 12 13  1  0  0  0
 12 27  1  0  0  0
 13 18  2  0  0  0
 13 14  1  0  0  0
 14 15  2  0  0  0
 14 28  1  0  0  0
 15 16  1  0  0  0
 15 21  1  0  0  0
 16 17  2  0  0  0
 16 29  1  0  0  0
 17 18  1  0  0  0
 17 20  1  0  0  0
 18 19  1  0  0  0
M  CHG  1  19  -1
M  END
> <i_i_glide_confnum>
3

> <i_i_glide_lignum>
2623

> <i_i_glide_posenum>
240

> <i_i_glide_rotatable_bonds>
4

> <i_m_Source_File_Index>
1648

> <b_m_subgroup_collapsed>
0

> <r_i_docking_score>
-5.31277

> <r_i_glide_ecoul>
-4.02748

> <r_i_glide_eff_state_penalty>
0

> <r_i_glide_einternal>
6.92465

> <r_i_glide_emodel>
-45.5845

> <r_i_glide_energy>
-34.9911

> <r_i_glide_erotb>
0.365797

> <r_i_glide_esite>
0

> <r_i_glide_evdw>
-30.9636

> <r_i_glide_gscore>
-5.31277

> <r_i_glide_hbond>
-0.365947

> <r_i_glide_ligand_efficiency>
-0.265639

> <r_i_glide_ligand_efficiency_ln>
-1.32961

> <r_i_glide_ligand_efficiency_sa>
-0.721054

> <r_i_glide_lipo>
-1.96404

> <r_i_glide_metal>
0

> <r_i_glide_rewards>
-1.19628

> <s_i_glide_gridfile>
wee1_glide-grid

> <s_m_Source_File>
wee1_decoys_glide_SP.sdf

> <s_m_Source_Path>
/Users/zhangxujun/Desktop

> <s_m_entry_id>
1923

> <s_m_entry_name>
wee1_decoys_glide_SP.1648

> <s_m_subgroup_title>
wee1_decoys_glide_SP

> <s_m_subgroupid>
wee1_decoys_glide_SP


$$$$
