ZINC04869591_3813
                    3D
 Schrodinger Suite 2024-2.
 45 48  0  0  1  0            999 V2000
   -0.6388   51.5936   29.1171 C   0  0  0  0  0  0
    0.3721   52.5293   28.4778 C   0  0  0  0  0  0
    0.9654   53.5246   29.2612 C   0  0  0  0  0  0
    1.9011   54.3877   28.6905 C   0  0  0  0  0  0
    2.2994   54.3219   27.3959 N   0  0  0  0  0  0
    1.7037   53.3948   26.6429 C   0  0  0  0  0  0
    0.7401   52.4567   27.1124 C   0  0  0  0  0  0
    0.3292   51.5934   26.0529 C   0  0  0  0  0  0
    0.8970   51.8727   24.8181 C   0  0  0  0  0  0
    1.9943   53.2457   24.9145 S   0  0  0  0  0  0
    0.6073   51.0621   23.5335 C   0  0  2  0  0  0
    1.9386   50.4681   22.9696 C   0  0  0  0  0  0
    1.8698   49.9148   21.5274 C   0  0  0  0  0  0
    1.2997   50.9467   20.5302 C   0  0  1  0  0  0
   -0.0875   51.4169   21.0205 C   0  0  0  0  0  0
   -0.0492   51.9881   22.4594 C   0  0  0  0  0  0
    2.2689   52.1199   20.2661 C   0  0  0  0  0  0
   -0.3669   49.9247   23.9654 C   0  0  0  0  0  0
   -0.8318   49.7786   25.2318 C   0  0  0  0  0  0
   -0.5505   50.5703   26.2965 O   0  0  0  0  0  0
   -1.6662   48.7925   25.6817 N   0  0  0  0  0  0
   -0.8205   48.9725   22.9988 C   0  0  0  0  0  0
   -1.2374   48.1790   22.2646 N   0  0  0  0  0  0
    2.5354   55.5003   29.5034 C   0  0  0  0  0  0
   -0.7186   51.7175   30.1993 H   0  0  0  0  0  0
   -1.6251   51.7299   28.6730 H   0  0  0  0  0  0
   -0.3420   50.5642   28.9198 H   0  0  0  0  0  0
    0.6967   53.6270   30.3031 H   0  0  0  0  0  0
    2.3176   49.6970   23.6429 H   0  0  0  0  0  0
    2.7022   51.2433   22.9650 H   0  0  0  0  0  0
    2.8725   49.6182   21.2134 H   0  0  0  0  0  0
    1.2826   48.9982   21.4970 H   0  0  0  0  0  0
    1.1440   50.4216   19.5848 H   0  0  0  0  0  0
   -0.4714   52.1832   20.3456 H   0  0  0  0  0  0
   -0.7995   50.5956   20.9589 H   0  0  0  0  0  0
    0.4988   52.9296   22.4170 H   0  0  0  0  0  0
   -1.0577   52.2637   22.7708 H   0  0  0  0  0  0
    2.4734   52.7078   21.1606 H   0  0  0  0  0  0
    3.2253   51.7590   19.8842 H   0  0  0  0  0  0
    1.8644   52.8030   19.5183 H   0  0  0  0  0  0
   -2.0323   48.0975   25.0501 H   0  0  0  0  0  0
   -1.6792   48.5662   26.6797 H   0  0  0  0  0  0
    2.0546   55.6175   30.4766 H   0  0  0  0  0  0
    3.5952   55.2955   29.6623 H   0  0  0  0  0  0
    2.4491   56.4545   28.9808 H   0  0  0  0  0  0
  1  2  1  0  0  0
  1 25  1  0  0  0
  1 26  1  0  0  0
  1 27  1  0  0  0
  2  7  2  0  0  0
  2  3  1  0  0  0
  3  4  2  0  0  0
  3 28  1  0  0  0
  4  5  1  0  0  0
  4 24  1  0  0  0
  5  6  2  0  0  0
  6 10  1  0  0  0
  6  7  1  0  0  0
  7  8  1  0  0  0
  8 20  1  0  0  0
  8  9  2  0  0  0
  9 10  1  0  0  0
  9 11  1  0  0  0
 11 16  1  0  0  0
 11 12  1  0  0  0
 11 18  1  0  0  0
 12 13  1  0  0  0
 12 29  1  0  0  0
 12 30  1  0  0  0
 13 14  1  0  0  0
 13 31  1  0  0  0
 13 32  1  0  0  0
 14 15  1  0  0  0
 14 17  1  0  0  0
 14 33  1  0  0  0
 15 16  1  0  0  0
 15 34  1  0  0  0
 15 35  1  0  0  0
 16 36  1  0  0  0
 16 37  1  0  0  0
 17 38  1  0  0  0
 17 39  1  0  0  0
 17 40  1  0  0  0
 18 19  2  0  0  0
 18 22  1  0  0  0
 19 20  1  0  0  0
 19 21  1  0  0  0
 21 41  1  0  0  0
 21 42  1  0  0  0
 22 23  3  0  0  0
 24 43  1  0  0  0
 24 44  1  0  0  0
 24 45  1  0  0  0
M  END
> <i_i_glide_confnum>
2

> <i_i_glide_lignum>
3814

> <i_i_glide_posenum>
339

> <i_i_glide_rotatable_bonds>
1

> <i_m_Source_File_Index>
3378

> <b_m_subgroup_collapsed>
0

> <r_i_docking_score>
-4.81947

> <r_i_glide_ecoul>
-3.31728

> <r_i_glide_eff_state_penalty>
0

> <r_i_glide_einternal>
0.00453287

> <r_i_glide_emodel>
-40.7683

> <r_i_glide_energy>
-31.4279

> <r_i_glide_erotb>
0

> <r_i_glide_esite>
-0.1

> <r_i_glide_evdw>
-28.1107

> <r_i_glide_gscore>
-4.81947

> <r_i_glide_hbond>
-0.16

> <r_i_glide_ligand_efficiency>
-0.200811

> <r_i_glide_ligand_efficiency_ln>
-1.15352

> <r_i_glide_ligand_efficiency_sa>
-0.57924

> <r_i_glide_lipo>
-1.54354

> <r_i_glide_metal>
0

> <r_i_glide_rewards>
-1.1128

> <s_i_glide_gridfile>
wee1_glide-grid

> <s_m_Source_File>
wee1_decoys_glide_SP.sdf

> <s_m_Source_Path>
/Users/zhangxujun/Desktop

> <s_m_entry_id>
3653

> <s_m_entry_name>
wee1_decoys_glide_SP.3378

> <s_m_subgroup_title>
wee1_decoys_glide_SP

> <s_m_subgroupid>
wee1_decoys_glide_SP


$$$$
