@<TRIPOS>MOLECULE
ZINC38847398_5713
71   74    1
SMALL
USER_CHARGES


@<TRIPOS>ATOM
      1 C1          2.4741   47.4251   12.4293 C.3       1 UNK         0.0000 
      2 C2          1.9318   47.3244   13.8447 C.ar      1 UNK         0.0000 
      3 C3          0.6038   47.6628   14.1071 C.ar      1 UNK         0.0000 
      4 C4          0.1166   47.6088   15.4118 C.ar      1 UNK         0.0000 
      5 C5          0.9586   47.2097   16.4538 C.ar      1 UNK         0.0000 
      6 C6          2.2912   46.8842   16.1916 C.ar      1 UNK         0.0000 
      7 C7          2.7739   46.9351   14.8854 C.ar      1 UNK         0.0000 
      8 S8          0.3296   47.1368   18.1345 S.o2      1 UNK         0.0000 
      9 O9          1.1003   46.0961   18.8256 O.2       1 UNK         0.0000 
     10 O10        -1.1317   47.0641   18.0364 O.2       1 UNK         0.0000 
     11 N11         0.7627   48.7002   18.8453 N.pl3     1 UNK         0.0000 
     12 C12         2.1388   48.9910   19.2897 C.3       1 UNK         0.0000 
     13 C13         2.1055   49.3996   20.7758 C.3       1 UNK         0.0000 
     14 C14         1.0806   50.5479   21.0348 C.3       1 UNK         0.0000 
     15 C15        -0.3227   50.2567   20.4202 C.3       1 UNK         0.0000 
     16 C16        -0.1971   49.8183   18.9422 C.3       1 UNK         0.0000 
     17 C17         0.9481   50.7699   22.5753 C.2       1 UNK         0.0000 
     18 O18         0.6152   49.7762   23.2273 O.2       1 UNK         0.0000 
     19 N19         1.2179   51.9929   23.1570 N.am      1 UNK         0.0000 
     20 C20         1.6158   53.1547   22.3252 C.3       1 UNK         0.0000 
     21 C21         3.0882   53.1739   21.8398 C.3       1 UNK         0.0000 
     22 C22         4.0638   53.8374   22.8286 C.3       1 UNK         0.0000 
     23 N23         5.5032   53.8627   22.2670 N.4       1 UNK         0.0000 
     24 C24         5.6416   54.7567   21.0144 C.3       1 UNK         0.0000 
     25 C25         6.5150   54.2772   23.3578 C.3       1 UNK         0.0000 
     26 C26         1.0802   52.1988   24.5539 C.2       1 UNK         0.0000 
     27 N27         0.3135   51.4974   25.3626 N.2       1 UNK         0.0000 
     28 C28         0.4343   51.8785   26.6628 C.ar      1 UNK         0.0000 
     29 C29        -0.2421   51.2976   27.7417 C.ar      1 UNK         0.0000 
     30 C30        -0.0011   51.7903   29.0272 C.ar      1 UNK         0.0000 
     31 C31         0.9000   52.8456   29.2583 C.ar      1 UNK         0.0000 
     32 C32         1.5741   53.4331   28.1829 C.ar      1 UNK         0.0000 
     33 C33         1.3348   52.9459   26.8913 C.ar      1 UNK         0.0000 
     34 S34         1.9842   53.4796   25.3575 S.3       1 UNK         0.0000 
     35 O35         1.1772   53.3725   30.5078 O.3       1 UNK         0.0000 
     36 C36         0.4538   52.8947   31.6371 C.3       1 UNK         0.0000 
     37 H37         1.9777   48.2285   11.8811 H         1 UNK         0.0000 
     38 H38         3.5390   47.6671   12.4289 H         1 UNK         0.0000 
     39 H39         2.3176   46.4898   11.8854 H         1 UNK         0.0000 
     40 H40        -0.0511   47.9756   13.3064 H         1 UNK         0.0000 
     41 H41        -0.9103   47.8761   15.6091 H         1 UNK         0.0000 
     42 H42         2.9584   46.6064   16.9958 H         1 UNK         0.0000 
     43 H43         3.8133   46.6995   14.7026 H         1 UNK         0.0000 
     44 H44         2.5582   49.7709   18.6513 H         1 UNK         0.0000 
     45 H45         2.7592   48.1069   19.1423 H         1 UNK         0.0000 
     46 H46         3.1058   49.7217   21.0426 H         1 UNK         0.0000 
     47 H47         1.8390   48.4952   21.3204 H         1 UNK         0.0000 
     48 H48         1.4731   51.4314   20.5445 H         1 UNK         0.0000 
     49 H49        -0.8137   49.4267   20.9302 H         1 UNK         0.0000 
     50 H50        -0.9546   51.1455   20.4353 H         1 UNK         0.0000 
     51 H51         0.1524   50.6291   18.3021 H         1 UNK         0.0000 
     52 H52        -1.1634   49.5019   18.5475 H         1 UNK         0.0000 
     53 H53         0.9380   53.2316   21.4748 H         1 UNK         0.0000 
     54 H54         1.4083   54.0883   22.8520 H         1 UNK         0.0000 
     55 H55         3.4339   52.1704   21.5911 H         1 UNK         0.0000 
     56 H56         3.1038   53.7354   20.9067 H         1 UNK         0.0000 
     57 H57         3.7957   54.8710   23.0623 H         1 UNK         0.0000 
     58 H58         4.1377   53.2714   23.7578 H         1 UNK         0.0000 
     59 H59         5.1516   55.6980   21.2540 H         1 UNK         0.0000 
     60 H60         6.7017   54.8969   20.7979 H         1 UNK         0.0000 
     61 H61         5.1516   54.2556   20.1781 H         1 UNK         0.0000 
     62 H62         6.2963   55.3019   23.6624 H         1 UNK         0.0000 
     63 H63         6.4089   53.5871   24.1980 H         1 UNK         0.0000 
     64 H64         7.5127   54.2006   22.9262 H         1 UNK         0.0000 
     65 H65        -0.9327   50.4765   27.5907 H         1 UNK         0.0000 
     66 H66        -0.5307   51.3235   29.8475 H         1 UNK         0.0000 
     67 H67         2.2617   54.2482   28.3573 H         1 UNK         0.0000 
     68 H68         0.7054   53.4846   32.5187 H         1 UNK         0.0000 
     69 H69         0.6911   51.8546   31.8569 H         1 UNK         0.0000 
     70 H70        -0.6182   52.9911   31.4787 H         1 UNK         0.0000 
     71 H71         5.7302   52.9151   21.9956 H         1 UNK         0.0000 
@<TRIPOS>BOND
     1    1    2 1    
     2    1   37 1    
     3    1   38 1    
     4    1   39 1    
     5    2    7 ar   
     6    2    3 ar   
     7    3    4 ar   
     8    3   40 1    
     9    4    5 ar   
    10    4   41 1    
    11    5    6 ar   
    12    5    8 1    
    13    6    7 ar   
    14    6   42 1    
    15    7   43 1    
    16    8    9 2    
    17    8   10 2    
    18    8   11 1    
    19   11   16 1    
    20   11   12 1    
    21   12   13 1    
    22   12   44 1    
    23   12   45 1    
    24   13   14 1    
    25   13   46 1    
    26   13   47 1    
    27   14   15 1    
    28   14   17 1    
    29   14   48 1    
    30   15   16 1    
    31   15   49 1    
    32   15   50 1    
    33   16   51 1    
    34   16   52 1    
    35   17   18 2    
    36   17   19 am   BACKBONE|DICT|INTERRES
    37   19   20 1    
    38   19   26 am   BACKBONE|DICT|INTERRES
    39   20   21 1    
    40   20   53 1    
    41   20   54 1    
    42   21   22 1    
    43   21   55 1    
    44   21   56 1    
    45   22   23 1    
    46   22   57 1    
    47   22   58 1    
    48   23   24 1    
    49   23   25 1    
    50   23   71 1    
    51   24   59 1    
    52   24   60 1    
    53   24   61 1    
    54   25   62 1    
    55   25   63 1    
    56   25   64 1    
    57   26   34 1    
    58   26   27 2    
    59   27   28 1    
    60   28   33 ar   
    61   28   29 ar   
    62   29   30 ar   
    63   29   65 1    
    64   30   31 ar   
    65   30   66 1    
    66   31   32 ar   
    67   31   35 1    
    68   32   33 ar   
    69   32   67 1    
    70   33   34 1    
    71   35   36 1    
    72   36   68 1    
    73   36   69 1    
    74   36   70 1    
@<TRIPOS>SUBSTRUCTURE
     1 UNK         1 GROUP             0       ****    0 ROOT    
