@<TRIPOS>MOLECULE
ZINC15946859_1218
63   66    1
SMALL
USER_CHARGES


@<TRIPOS>ATOM
      1 C1          6.7270   53.0388   17.9354 C.3       1 UNK         0.0000 
      2 C2          5.5755   53.7810   17.2215 C.3       1 UNK         0.0000 
      3 H3          4.8108   53.0873   16.8611 H         1 UNK         0.0000 
      4 C4          6.1402   54.6436   16.0639 C.3       1 UNK         0.0000 
      5 C5          5.1391   55.6580   15.4832 C.3       1 UNK         0.0000 
      6 C6          4.5477   56.5422   16.5876 C.3       1 UNK         0.0000 
      7 C7          3.8628   55.6938   17.6634 C.3       1 UNK         0.0000 
      8 C8          4.1790   53.9019   19.4163 C.3       1 UNK         0.0000 
      9 C9          4.7995   54.2929   20.7684 C.2       1 UNK         0.0000 
     10 O10         5.8870   54.8713   20.8105 O.2       1 UNK         0.0000 
     11 N11         4.0566   53.9513   21.8394 N.am      1 UNK         0.0000 
     12 C12         4.3666   54.0506   23.2003 C.2       1 UNK         0.0000 
     13 C13         3.4944   53.7598   24.2748 C.2       1 UNK         0.0000 
     14 C14         4.0953   54.0493   25.5348 C.2       1 UNK         0.0000 
     15 C15         5.4505   54.3854   25.4145 C.2       1 UNK         0.0000 
     16 S16         5.9576   54.4979   23.7707 S.3       1 UNK         0.0000 
     17 C17         6.3993   54.6314   26.5747 C.3       1 UNK         0.0000 
     18 C18         5.8609   53.8782   27.8059 C.3       1 UNK         0.0000 
     19 C19         4.3899   54.2316   28.0750 C.3       1 UNK         0.0000 
     20 C20         3.4310   53.8777   26.9107 C.3       1 UNK         0.0000 
     21 C21         2.1193   53.3006   24.1331 C.2       1 UNK         0.0000 
     22 O22         1.2290   53.6966   24.8816 O.2       1 UNK         0.0000 
     23 N23         1.9139   52.3955   23.1516 N.am      1 UNK         0.0000 
     24 C24         0.6864   51.7641   22.8946 C.ar      1 UNK         0.0000 
     25 C25         0.1038   51.9859   21.6423 C.ar      1 UNK         0.0000 
     26 C26        -1.1221   51.4031   21.3249 C.ar      1 UNK         0.0000 
     27 C27        -1.7620   50.5847   22.2535 C.ar      1 UNK         0.0000 
     28 C28        -1.1749   50.3413   23.4932 C.ar      1 UNK         0.0000 
     29 C29         0.0622   50.9166   23.8345 C.ar      1 UNK         0.0000 
     30 O30         0.7031   50.6771   25.0387 O.3       1 UNK         0.0000 
     31 C31         0.1141   49.7992   25.9976 C.3       1 UNK         0.0000 
     32 Cl32       -1.8511   51.6966   19.7899 Cl        1 UNK         0.0000 
     33 H33         7.2496   52.3774   17.2441 H         1 UNK         0.0000 
     34 H34         6.3823   52.4093   18.7509 H         1 UNK         0.0000 
     35 H35         7.4600   53.7303   18.3536 H         1 UNK         0.0000 
     36 H36         7.0185   55.1939   16.4132 H         1 UNK         0.0000 
     37 H37         6.4899   53.9895   15.2624 H         1 UNK         0.0000 
     38 H38         5.6332   56.2776   14.7311 H         1 UNK         0.0000 
     39 H39         4.3382   55.1280   14.9642 H         1 UNK         0.0000 
     40 H40         5.3287   57.1596   17.0403 H         1 UNK         0.0000 
     41 H41         3.8265   57.2400   16.1549 H         1 UNK         0.0000 
     42 H42         3.5111   56.3304   18.4739 H         1 UNK         0.0000 
     43 H43         3.0280   55.1156   17.2637 H         1 UNK         0.0000 
     44 H44         3.1076   54.0954   19.3831 H         1 UNK         0.0000 
     45 H45         4.3156   52.8340   19.2369 H         1 UNK         0.0000 
     46 H46         3.1176   53.6424   21.6389 H         1 UNK         0.0000 
     47 H47         7.4110   54.2952   26.3458 H         1 UNK         0.0000 
     48 H48         6.4705   55.6963   26.7901 H         1 UNK         0.0000 
     49 H49         5.9597   52.8003   27.6590 H         1 UNK         0.0000 
     50 H50         6.4673   54.1191   28.6792 H         1 UNK         0.0000 
     51 H51         4.0478   53.7411   28.9868 H         1 UNK         0.0000 
     52 H52         4.3202   55.2964   28.2821 H         1 UNK         0.0000 
     53 H53         2.5383   54.4963   26.9937 H         1 UNK         0.0000 
     54 H54         3.0926   52.8465   27.0181 H         1 UNK         0.0000 
     55 H55         2.6955   52.1019   22.5899 H         1 UNK         0.0000 
     56 H56         0.5907   52.6271   20.9201 H         1 UNK         0.0000 
     57 H57        -2.7132   50.1328   22.0110 H         1 UNK         0.0000 
     58 H58        -1.6970   49.6918   24.1810 H         1 UNK         0.0000 
     59 H59         0.7527   49.7351   26.8780 H         1 UNK         0.0000 
     60 H60        -0.8596   50.1586   26.3306 H         1 UNK         0.0000 
     61 H61         0.0001   48.7893   25.6009 H         1 UNK         0.0000 
     62 N62         4.8800   54.6940   18.2742 N.4       1 UNK         0.0000 
     63 H63         5.6147   55.2483   18.6997 H         1 UNK         0.0000 
@<TRIPOS>BOND
     1    1    2 1    
     2    1   33 1    
     3    1   34 1    
     4    1   35 1    
     5    2    3 1    
     6    2    4 1    
     7    2   62 1    
     8    4    5 1    
     9    4   36 1    
    10    4   37 1    
    11    5    6 1    
    12    5   38 1    
    13    5   39 1    
    14    6    7 1    
    15    6   40 1    
    16    6   41 1    
    17    7   42 1    
    18    7   43 1    
    19    7   62 1    
    20    8    9 1    
    21    8   44 1    
    22    8   45 1    
    23    8   62 1    
    24    9   10 2    
    25    9   11 am   BACKBONE|DICT|INTERRES
    26   11   12 am   BACKBONE|DICT|INTERRES
    27   11   46 1    
    28   12   16 1    
    29   12   13 2    
    30   13   14 1    
    31   13   21 1    
    32   14   20 1    
    33   14   15 2    
    34   15   16 1    
    35   15   17 1    
    36   17   18 1    
    37   17   47 1    
    38   17   48 1    
    39   18   19 1    
    40   18   49 1    
    41   18   50 1    
    42   19   20 1    
    43   19   51 1    
    44   19   52 1    
    45   20   53 1    
    46   20   54 1    
    47   21   22 2    
    48   21   23 am   BACKBONE|DICT|INTERRES
    49   23   24 1    
    50   23   55 1    
    51   24   29 ar   
    52   24   25 ar   
    53   25   26 ar   
    54   25   56 1    
    55   26   27 ar   
    56   26   32 1    
    57   27   28 ar   
    58   27   57 1    
    59   28   29 ar   
    60   28   58 1    
    61   29   30 1    
    62   30   31 1    
    63   31   59 1    
    64   31   60 1    
    65   31   61 1    
    66   62   63 1    
@<TRIPOS>SUBSTRUCTURE
     1 UNK         1 GROUP             0       ****    0 ROOT    
