@<TRIPOS>MOLECULE
ZINC47309404_1695
39   41    1
SMALL
USER_CHARGES


@<TRIPOS>ATOM
      1 C1          2.8449   52.0967   31.7193 C.3       1 UNK         0.0000 
      2 O2          3.5038   52.8836   30.7302 O.3       1 UNK         0.0000 
      3 C3          4.2728   52.0984   29.8311 C.3       1 UNK         0.0000 
      4 C4          4.7232   52.9133   28.6335 C.ar      1 UNK         0.0000 
      5 C5          4.0710   53.2967   27.4695 C.ar      1 UNK         0.0000 
      6 C6          5.0655   53.9278   26.7051 C.ar      1 UNK         0.0000 
      7 N7          6.2182   54.0303   27.3151 N.2       1 UNK         0.0000 
      8 N8          5.9947   53.4164   28.4817 N.pl3     1 UNK         0.0000 
      9 H9          6.7227   53.3347   29.1770 H         1 UNK         0.0000 
     10 O10         4.9081   54.3937   25.4227 O.3       1 UNK         0.0000 
     11 C11         3.6912   54.1351   24.8676 C.2       1 UNK         0.0000 
     12 C12         2.6051   53.6214   25.4951 C.2       1 UNK         0.0000 
     13 C13         2.6324   53.1567   26.9656 C.3       1 UNK         0.0000 
     14 H14         2.3728   52.0969   26.9423 H         1 UNK         0.0000 
     15 C15         1.6067   53.9003   27.8771 C.3       1 UNK         0.0000 
     16 H16         0.7479   54.1778   27.2817 H         1 UNK         0.0000 
     17 C17         0.9014   52.9341   28.8617 C.3       1 UNK         0.0000 
     18 C18         0.1203   53.5605   30.0320 C.3       1 UNK         0.0000 
     19 C19         0.6714   54.8968   30.4819 C.2       1 UNK         0.0000 
     20 C20         1.5155   55.6583   29.7741 C.2       1 UNK         0.0000 
     21 C21         2.0963   55.2831   28.4280 C.3       1 UNK         0.0000 
     22 C22         1.4100   53.4169   24.7389 C.1       1 UNK         0.0000 
     23 N23         0.4668   53.2781   24.0826 N.1       1 UNK         0.0000 
     24 N24         3.7578   54.4966   23.5512 N.pl3     1 UNK         0.0000 
     25 H25         2.1306   52.6952   32.2796 H         1 UNK         0.0000 
     26 H26         2.2526   51.2989   31.2770 H         1 UNK         0.0000 
     27 H27         3.5551   51.6550   32.4194 H         1 UNK         0.0000 
     28 H28         3.7225   51.2276   29.4760 H         1 UNK         0.0000 
     29 H29         5.1046   51.6967   30.3968 H         1 UNK         0.0000 
     30 H30         1.6676   52.3268   29.3208 H         1 UNK         0.0000 
     31 H31         0.2910   52.2050   28.3253 H         1 UNK         0.0000 
     32 H32        -0.8956   53.7402   29.7021 H         1 UNK         0.0000 
     33 H33         0.0398   52.8572   30.8624 H         1 UNK         0.0000 
     34 H34         0.3375   55.2858   31.4320 H         1 UNK         0.0000 
     35 H35         1.8135   56.6025   30.2093 H         1 UNK         0.0000 
     36 H36         1.9041   56.0597   27.6899 H         1 UNK         0.0000 
     37 H37         3.1731   55.3159   28.5746 H         1 UNK         0.0000 
     38 H38         2.9855   54.3237   22.9236 H         1 UNK         0.0000 
     39 H39         4.5103   55.0815   23.2204 H         1 UNK         0.0000 
@<TRIPOS>BOND
     1    1    2 1    
     2    1   25 1    
     3    1   26 1    
     4    1   27 1    
     5    2    3 1    
     6    3    4 1    
     7    3   28 1    
     8    3   29 1    
     9    4    8 ar   
    10    4    5 ar   
    11    5   13 1    
    12    5    6 ar   
    13    6    7 ar   
    14    6   10 1    
    15    7    8 ar   
    16    8    9 1    
    17   10   11 1    
    18   11   12 2    
    19   11   24 1    
    20   12   13 1    
    21   12   22 1    
    22   13   14 1    
    23   13   15 1    
    24   15   16 1    
    25   15   21 1    
    26   15   17 1    
    27   17   18 1    
    28   17   30 1    
    29   17   31 1    
    30   18   19 1    
    31   18   32 1    
    32   18   33 1    
    33   19   20 2    
    34   19   34 1    
    35   20   21 1    
    36   20   35 1    
    37   21   36 1    
    38   21   37 1    
    39   22   23 3    
    40   24   38 1    
    41   24   39 1    
@<TRIPOS>SUBSTRUCTURE
     1 UNK         1 GROUP             0       ****    0 ROOT    
