@<TRIPOS>MOLECULE
ZINC02431986_2233
55   59    1
SMALL
USER_CHARGES


@<TRIPOS>ATOM
      1 C1          7.1048   55.5172   25.5955 C.3       1 UNK         0.0000 
      2 C2          5.9272   54.7694   25.0530 C.ar      1 UNK         0.0000 
      3 C3          5.7478   54.6289   23.6719 C.ar      1 UNK         0.0000 
      4 C4          4.5503   54.1080   23.1750 C.ar      1 UNK         0.0000 
      5 C5          3.5567   53.6967   24.0642 C.ar      1 UNK         0.0000 
      6 C6          3.8337   53.6967   25.4301 C.ar      1 UNK         0.0000 
      7 C7          4.9928   54.2442   25.9448 C.ar      1 UNK         0.0000 
      8 C8          5.1822   54.2796   27.4595 C.3       1 UNK         0.0000 
      9 S9          1.9217   53.2886   23.4605 S.o2      1 UNK         0.0000 
     10 O10         2.0736   52.6575   22.1442 O.2       1 UNK         0.0000 
     11 O11         1.1123   54.4952   23.6436 O.2       1 UNK         0.0000 
     12 C12         1.1921   52.0623   24.5681 C.ar      1 UNK         0.0000 
     13 C13         0.8540   52.2476   25.9440 C.ar      1 UNK         0.0000 
     14 C14         0.2699   51.0564   26.4183 C.ar      1 UNK         0.0000 
     15 N15        -0.1624   50.9255   27.6788 N.ar      1 UNK         0.0000 
     16 C16         0.0262   51.9714   28.5383 C.ar      1 UNK         0.0000 
     17 C17        -0.3816   51.8977   29.8897 C.ar      1 UNK         0.0000 
     18 C18        -0.0956   52.9529   30.7583 C.ar      1 UNK         0.0000 
     19 C19         0.5414   54.1045   30.3095 C.ar      1 UNK         0.0000 
     20 C20         0.9150   54.2264   28.9757 C.ar      1 UNK         0.0000 
     21 C21         0.6601   53.1624   28.0820 C.ar      1 UNK         0.0000 
     22 N22         1.0259   53.2713   26.7833 N.ar      1 UNK         0.0000 
     23 N23         0.2930   50.1388   25.3741 N.pl3     1 UNK         0.0000 
     24 C24         0.8480   50.7581   24.2583 C.ar      1 UNK         0.0000 
     25 N25         1.0157   50.0953   23.0752 N.pl3     1 UNK         0.0000 
     26 C26        -0.1664   48.7513   25.4394 C.3       1 UNK         0.0000 
     27 C27        -1.4980   48.5410   24.6916 C.3       1 UNK         0.0000 
     28 H28        -1.4087   48.7571   23.6260 H         1 UNK         0.0000 
     29 C29        -2.0747   47.1300   24.8832 C.3       1 UNK         0.0000 
     30 C30        -3.5530   47.3872   25.0602 C.3       1 UNK         0.0000 
     31 C31        -3.5351   48.6824   25.8583 C.3       1 UNK         0.0000 
     32 O32        -2.4821   49.4205   25.2478 O.3       1 UNK         0.0000 
     33 H33         6.7851   56.4963   25.9408 H         1 UNK         0.0000 
     34 H34         7.5045   54.9675   26.4455 H         1 UNK         0.0000 
     35 H35         7.9025   55.6291   24.8662 H         1 UNK         0.0000 
     36 H36         6.4901   55.0053   22.9828 H         1 UNK         0.0000 
     37 H37         4.3691   54.0906   22.1093 H         1 UNK         0.0000 
     38 H38         3.1873   53.2476   26.1381 H         1 UNK         0.0000 
     39 H39         5.9644   53.5812   27.7598 H         1 UNK         0.0000 
     40 H40         5.4787   55.2756   27.7912 H         1 UNK         0.0000 
     41 H41         4.2663   54.0281   27.9968 H         1 UNK         0.0000 
     42 H42        -0.8958   51.0147   30.2488 H         1 UNK         0.0000 
     43 H43        -0.3962   52.8967   31.7920 H         1 UNK         0.0000 
     44 H44         0.7300   54.9144   30.9994 H         1 UNK         0.0000 
     45 H45         1.3982   55.1248   28.6181 H         1 UNK         0.0000 
     46 H46         1.4148   50.5880   22.2840 H         1 UNK         0.0000 
     47 H47         0.8556   49.1058   22.9727 H         1 UNK         0.0000 
     48 H48         0.6184   48.1068   25.0419 H         1 UNK         0.0000 
     49 H49        -0.2795   48.4783   26.4818 H         1 UNK         0.0000 
     50 H50        -1.8488   46.4651   24.0490 H         1 UNK         0.0000 
     51 H51        -1.6926   46.6719   25.7992 H         1 UNK         0.0000 
     52 H52        -4.0446   47.5374   24.0974 H         1 UNK         0.0000 
     53 H53        -4.0654   46.5821   25.5874 H         1 UNK         0.0000 
     54 H54        -4.4782   49.2271   25.8106 H         1 UNK         0.0000 
     55 H55        -3.3039   48.5178   26.9116 H         1 UNK         0.0000 
@<TRIPOS>BOND
     1    1    2 1    
     2    1   33 1    
     3    1   34 1    
     4    1   35 1    
     5    2    7 ar   
     6    2    3 ar   
     7    3    4 ar   
     8    3   36 1    
     9    4    5 ar   
    10    4   37 1    
    11    5    6 ar   
    12    5    9 1    
    13    6    7 ar   
    14    6   38 1    
    15    7    8 1    
    16    8   39 1    
    17    8   40 1    
    18    8   41 1    
    19    9   10 2    
    20    9   11 2    
    21    9   12 1    
    22   12   24 ar   
    23   12   13 ar   
    24   13   22 ar   
    25   13   14 ar   
    26   14   15 ar   
    27   14   23 ar   
    28   15   16 ar   
    29   16   21 ar   
    30   16   17 ar   
    31   17   18 ar   
    32   17   42 1    
    33   18   19 ar   
    34   18   43 1    
    35   19   20 ar   
    36   19   44 1    
    37   20   21 ar   
    38   20   45 1    
    39   21   22 ar   
    40   23   24 ar   
    41   23   26 1    
    42   24   25 1    
    43   25   46 1    
    44   25   47 1    
    45   26   27 1    
    46   26   48 1    
    47   26   49 1    
    48   27   28 1    
    49   27   32 1    
    50   27   29 1    
    51   29   30 1    
    52   29   50 1    
    53   29   51 1    
    54   30   31 1    
    55   30   52 1    
    56   30   53 1    
    57   31   32 1    
    58   31   54 1    
    59   31   55 1    
@<TRIPOS>SUBSTRUCTURE
     1 UNK         1 GROUP             0       ****    0 ROOT    
