@<TRIPOS>MOLECULE
ZINC04143471_0
50   53    1
SMALL
USER_CHARGES


@<TRIPOS>ATOM
      1 C1          7.1521   54.4947   27.4162 C.3       1 UNK         0.0000 
      2 C2          6.4105   54.0461   28.6834 C.3       1 UNK         0.0000 
      3 C3          5.0271   53.5033   28.4275 C.2       1 UNK         0.0000 
      4 C4          4.2946   52.5749   29.1515 C.2       1 UNK         0.0000 
      5 C5          3.0007   52.3740   28.6680 C.2       1 UNK         0.0000 
      6 C6          2.6698   53.1440   27.5517 C.2       1 UNK         0.0000 
      7 S7          4.0537   54.0969   27.1250 S.3       1 UNK         0.0000 
      8 C8          1.3384   53.3227   26.8233 C.3       1 UNK         0.0000 
      9 H9          1.2287   54.4049   26.7860 H         1 UNK         0.0000 
     10 C10         0.1765   52.8209   27.6814 C.2       1 UNK         0.0000 
     11 C11        -0.6269   51.8148   27.2821 C.2       1 UNK         0.0000 
     12 N12        -0.5345   51.2610   25.9930 N.pl3     1 UNK         0.0000 
     13 C13         0.3441   51.7933   25.0311 C.2       1 UNK         0.0000 
     14 C14         1.2443   52.7700   25.3664 C.2       1 UNK         0.0000 
     15 C15         2.0936   53.4057   24.3190 C.2       1 UNK         0.0000 
     16 O16         2.6271   54.4965   24.4830 O.2       1 UNK         0.0000 
     17 C17         2.1045   52.7945   22.9110 C.3       1 UNK         0.0000 
     18 C18         1.6612   51.3306   22.9079 C.3       1 UNK         0.0000 
     19 C19         0.3014   51.2001   23.6006 C.3       1 UNK         0.0000 
     20 C20        -1.4505   50.2595   25.5808 C.ar      1 UNK         0.0000 
     21 C21        -1.0208   48.9306   25.6817 C.ar      1 UNK         0.0000 
     22 C22        -1.8358   47.8793   25.2796 C.ar      1 UNK         0.0000 
     23 C23        -3.0935   48.1452   24.7513 C.ar      1 UNK         0.0000 
     24 C24        -3.5271   49.4625   24.6200 C.ar      1 UNK         0.0000 
     25 C25        -2.7190   50.5454   25.0115 C.ar      1 UNK         0.0000 
     26 N26        -3.2528   51.9272   24.8476 N.pl3     1 UNK         0.0000 
     27 O27        -4.1989   52.0898   24.0822 O.co2     1 UNK         0.0000 
     28 O28        -2.7701   52.8596   25.4793 O.co2     1 UNK         0.0000 
     29 N29        -1.5903   51.2967   28.1197 N.pl3     1 UNK         0.0000 
     30 C30         0.0541   53.3687   28.9990 C.1       1 UNK         0.0000 
     31 N31        -0.0108   53.8021   30.0698 N.1       1 UNK         0.0000 
     32 H32         8.1259   54.8946   27.6825 H         1 UNK         0.0000 
     33 H33         6.6200   55.2872   26.8893 H         1 UNK         0.0000 
     34 H34         7.2957   53.6623   26.7266 H         1 UNK         0.0000 
     35 H35         7.0285   53.3289   29.2222 H         1 UNK         0.0000 
     36 H36         6.3040   54.8963   29.3534 H         1 UNK         0.0000 
     37 H37         4.6862   52.0698   30.0218 H         1 UNK         0.0000 
     38 H38         2.3032   51.6967   29.1387 H         1 UNK         0.0000 
     39 H39         3.0841   52.9399   22.4552 H         1 UNK         0.0000 
     40 H40         1.3862   53.3695   22.3259 H         1 UNK         0.0000 
     41 H41         2.3987   50.7056   23.4142 H         1 UNK         0.0000 
     42 H42         1.6007   50.9586   21.8837 H         1 UNK         0.0000 
     43 H43         0.1772   50.1183   23.6334 H         1 UNK         0.0000 
     44 H44        -0.5396   51.5836   23.0212 H         1 UNK         0.0000 
     45 H45        -0.0556   48.7038   26.1133 H         1 UNK         0.0000 
     46 H46        -1.4919   46.8634   25.4036 H         1 UNK         0.0000 
     47 H47        -3.7367   47.3323   24.4488 H         1 UNK         0.0000 
     48 H48        -4.5111   49.6359   24.2074 H         1 UNK         0.0000 
     49 H49        -1.6999   51.6939   29.0410 H         1 UNK         0.0000 
     50 H50        -1.7705   50.2962   28.0823 H         1 UNK         0.0000 
@<TRIPOS>BOND
     1    1    2 1    
     2    1   32 1    
     3    1   33 1    
     4    1   34 1    
     5    2    3 1    
     6    2   35 1    
     7    2   36 1    
     8    3    7 1    
     9    3    4 2    
    10    4    5 1    
    11    4   37 1    
    12    5    6 2    
    13    5   38 1    
    14    6    7 1    
    15    6    8 1    
    16    8    9 1    
    17    8   14 1    
    18    8   10 1    
    19   10   11 2    
    20   10   30 1    
    21   11   12 1    
    22   11   29 1    
    23   12   13 1    
    24   12   20 1    
    25   13   19 1    
    26   13   14 2    
    27   14   15 1    
    28   15   16 2    
    29   15   17 1    
    30   17   18 1    
    31   17   39 1    
    32   17   40 1    
    33   18   19 1    
    34   18   41 1    
    35   18   42 1    
    36   19   43 1    
    37   19   44 1    
    38   20   25 ar   
    39   20   21 ar   
    40   21   22 ar   
    41   21   45 1    
    42   22   23 ar   
    43   22   46 1    
    44   23   24 ar   
    45   23   47 1    
    46   24   25 ar   
    47   24   48 1    
    48   25   26 1    
    49   26   27 2    
    50   26   28 1    
    51   29   49 1    
    52   29   50 1    
    53   30   31 3    
@<TRIPOS>SUBSTRUCTURE
     1 UNK         1 GROUP             0       ****    0 ROOT    
