@<TRIPOS>MOLECULE
ZINC59466901_2534
52   54    1
SMALL
USER_CHARGES


@<TRIPOS>ATOM
      1 C1          1.1022   52.7600   30.5508 C.3       1 UNK         0.0000 
      2 C2          1.2850   52.8255   29.0383 C.2       1 UNK         0.0000 
      3 C3          2.4626   53.2731   28.3694 C.2       1 UNK         0.0000 
      4 C4          2.3456   53.2570   26.9638 C.2       1 UNK         0.0000 
      5 S5          0.8377   52.4967   26.5118 S.3       1 UNK         0.0000 
      6 C6          0.3249   52.3288   28.1498 C.2       1 UNK         0.0000 
      7 C7         -1.0189   51.6944   28.4225 C.3       1 UNK         0.0000 
      8 N8          3.2750   53.6965   26.0517 N.2       1 UNK         0.0000 
      9 C9          3.0754   53.6968   24.7912 C.2       1 UNK         0.0000 
     10 C10         4.0864   54.0983   23.8065 C.ar      1 UNK         0.0000 
     11 C11         5.3811   54.4968   24.1736 C.ar      1 UNK         0.0000 
     12 C12         6.3046   54.8926   23.2066 C.ar      1 UNK         0.0000 
     13 C13         5.9547   54.8967   21.8522 C.ar      1 UNK         0.0000 
     14 C14         4.6652   54.4860   21.4875 C.ar      1 UNK         0.0000 
     15 C15         3.7427   54.0965   22.4518 C.ar      1 UNK         0.0000 
     16 C16         6.9406   55.2972   20.8446 C.2       1 UNK         0.0000 
     17 N17         6.8618   54.8973   19.6374 N.2       1 UNK         0.0000 
     18 C18         7.8101   55.1696   18.6889 C.2       1 UNK         0.0000 
     19 S19         8.7530   56.6326   18.7124 S.3       1 UNK         0.0000 
     20 C20         9.6142   56.1989   17.2789 C.2       1 UNK         0.0000 
     21 C21         9.1826   54.9626   16.7792 C.2       1 UNK         0.0000 
     22 C22         8.1297   54.3930   17.5541 C.2       1 UNK         0.0000 
     23 C23         7.5686   53.0732   17.2815 C.2       1 UNK         0.0000 
     24 O24         8.2440   52.1510   16.8313 O.2       1 UNK         0.0000 
     25 N25         6.2887   52.8967   17.6149 N.am      1 UNK         0.0000 
     26 C26         9.7287   54.3775   15.4827 C.3       1 UNK         0.0000 
     27 C27        10.6798   57.1404   16.7588 C.3       1 UNK         0.0000 
     28 C28         3.6139   53.8030   29.0758 C.2       1 UNK         0.0000 
     29 O29         3.5052   54.4961   30.0816 O.2       1 UNK         0.0000 
     30 N30         4.8054   53.4528   28.5906 N.am      1 UNK         0.0000 
     31 H31         2.0247   52.4860   31.0638 H         1 UNK         0.0000 
     32 H32         0.7910   53.7217   30.9612 H         1 UNK         0.0000 
     33 H33         0.3756   52.0129   30.8678 H         1 UNK         0.0000 
     34 H34        -1.3563   51.8151   29.4509 H         1 UNK         0.0000 
     35 H35        -1.8013   52.0965   27.7804 H         1 UNK         0.0000 
     36 H36        -0.9865   50.6233   28.2243 H         1 UNK         0.0000 
     37 H37         2.1320   53.3834   24.3527 H         1 UNK         0.0000 
     38 H38         5.6799   54.5070   25.2125 H         1 UNK         0.0000 
     39 H39         7.2950   55.1911   23.5211 H         1 UNK         0.0000 
     40 H40         4.3606   54.4729   20.4495 H         1 UNK         0.0000 
     41 H41         2.7543   53.8004   22.1258 H         1 UNK         0.0000 
     42 H42         7.7571   55.9154   21.2110 H         1 UNK         0.0000 
     43 H43         5.7764   53.6501   18.0456 H         1 UNK         0.0000 
     44 H44         5.9047   51.9470   17.6458 H         1 UNK         0.0000 
     45 H45        10.1087   55.1365   14.7999 H         1 UNK         0.0000 
     46 H46        10.5272   53.6592   15.6688 H         1 UNK         0.0000 
     47 H47         8.9590   53.8565   14.9127 H         1 UNK         0.0000 
     48 H48        11.2673   56.7146   15.9456 H         1 UNK         0.0000 
     49 H49        10.2453   58.0691   16.3892 H         1 UNK         0.0000 
     50 H50        11.3875   57.4075   17.5438 H         1 UNK         0.0000 
     51 H51         4.8622   52.9559   27.7127 H         1 UNK         0.0000 
     52 H52         5.6435   53.7778   29.0481 H         1 UNK         0.0000 
@<TRIPOS>BOND
     1    1    2 1    
     2    1   31 1    
     3    1   32 1    
     4    1   33 1    
     5    2    6 2    
     6    2    3 1    
     7    3    4 2    
     8    3   28 1    
     9    4    5 1    
    10    4    8 1    
    11    5    6 1    
    12    6    7 1    
    13    7   34 1    
    14    7   35 1    
    15    7   36 1    
    16    8    9 2    
    17    9   10 1    
    18    9   37 1    
    19   10   15 ar   
    20   10   11 ar   
    21   11   12 ar   
    22   11   38 1    
    23   12   13 ar   
    24   12   39 1    
    25   13   14 ar   
    26   13   16 1    
    27   14   15 ar   
    28   14   40 1    
    29   15   41 1    
    30   16   17 2    
    31   16   42 1    
    32   17   18 1    
    33   18   22 2    
    34   18   19 1    
    35   19   20 1    
    36   20   21 2    
    37   20   27 1    
    38   21   22 1    
    39   21   26 1    
    40   22   23 1    
    41   23   24 2    
    42   23   25 am   BACKBONE|DICT|INTERRES
    43   25   43 1    
    44   25   44 1    
    45   26   45 1    
    46   26   46 1    
    47   26   47 1    
    48   27   48 1    
    49   27   49 1    
    50   27   50 1    
    51   28   29 2    
    52   28   30 am   BACKBONE|DICT|INTERRES
    53   30   51 1    
    54   30   52 1    
@<TRIPOS>SUBSTRUCTURE
     1 UNK         1 GROUP             0       ****    0 ROOT    
