@<TRIPOS>MOLECULE
ZINC13101844_3002
62   64    1
SMALL
USER_CHARGES


@<TRIPOS>ATOM
      1 C1         -8.7479   51.6431   29.6254 C.3       1 UNK         0.0000 
      2 C2         -7.3175   51.3099   29.2434 C.ar      1 UNK         0.0000 
      3 C3         -6.9299   51.3177   27.9047 C.ar      1 UNK         0.0000 
      4 C4         -5.6142   51.0253   27.5333 C.ar      1 UNK         0.0000 
      5 C5         -4.6548   50.7513   28.5365 C.ar      1 UNK         0.0000 
      6 C6         -5.0613   50.6956   29.8869 C.ar      1 UNK         0.0000 
      7 C7         -6.3837   50.9907   30.2268 C.ar      1 UNK         0.0000 
      8 C8         -4.0971   50.3224   31.0116 C.3       1 UNK         0.0000 
      9 N9         -3.2955   50.4999   28.2649 N.am      1 UNK         0.0000 
     10 C10        -2.4425   51.2880   27.5725 C.2       1 UNK         0.0000 
     11 O11        -2.7837   52.2501   26.8818 O.2       1 UNK         0.0000 
     12 C12        -0.9512   50.9376   27.7333 C.3       1 UNK         0.0000 
     13 O13        -0.0930   52.0443   27.4419 O.3       1 UNK         0.0000 
     14 C14         0.4220   52.2180   26.1693 C.ar      1 UNK         0.0000 
     15 C15        -0.0844   51.5675   25.0310 C.ar      1 UNK         0.0000 
     16 C16         0.4623   51.8051   23.7733 C.ar      1 UNK         0.0000 
     17 C17         1.5019   52.7236   23.6237 C.ar      1 UNK         0.0000 
     18 C18         2.0125   53.3660   24.7557 C.ar      1 UNK         0.0000 
     19 C19         1.5033   53.1031   26.0354 C.ar      1 UNK         0.0000 
     20 O20         2.0047   53.6793   27.1908 O.3       1 UNK         0.0000 
     21 C21         3.2416   54.3840   27.1448 C.3       1 UNK         0.0000 
     22 C22         2.0954   53.0330   22.3347 C.2       1 UNK         0.0000 
     23 N23         2.3932   52.1693   21.4420 N.2       1 UNK         0.0000 
     24 N24         3.2350   52.5189   20.3940 N.pl3     1 UNK         0.0000 
     25 C25         4.3769   53.2973   20.3409 C.2       1 UNK         0.0000 
     26 S26         5.1045   54.0967   21.6391 S.2       1 UNK         0.0000 
     27 N27         4.9019   53.2964   19.0746 N.pl3     1 UNK         0.0000 
     28 C28         5.9874   53.9995   18.5159 C.ar      1 UNK         0.0000 
     29 C29         6.8619   53.2968   17.6820 C.ar      1 UNK         0.0000 
     30 C30         7.9683   53.9385   17.1234 C.ar      1 UNK         0.0000 
     31 C31         8.1957   55.2909   17.3806 C.ar      1 UNK         0.0000 
     32 C32         7.3082   56.0076   18.1840 C.ar      1 UNK         0.0000 
     33 C33         6.1997   55.3684   18.7385 C.ar      1 UNK         0.0000 
     34 Cl34        7.5815   57.6822   18.5005 Cl        1 UNK         0.0000 
     35 C35        -5.3129   50.9397   26.0407 C.3       1 UNK         0.0000 
     36 H36        -9.1546   52.4095   28.9648 H         1 UNK         0.0000 
     37 H37        -8.8056   52.0406   30.6396 H         1 UNK         0.0000 
     38 H38        -9.3800   50.7571   29.5559 H         1 UNK         0.0000 
     39 H39        -7.6648   51.5342   27.1427 H         1 UNK         0.0000 
     40 H40        -6.6921   50.9579   31.2621 H         1 UNK         0.0000 
     41 H41        -3.1704   50.8923   30.9527 H         1 UNK         0.0000 
     42 H42        -4.5160   50.4964   32.0030 H         1 UNK         0.0000 
     43 H43        -3.8278   49.2710   30.9331 H         1 UNK         0.0000 
     44 H44        -2.8691   49.7301   28.7740 H         1 UNK         0.0000 
     45 H45        -0.7524   50.6740   28.7708 H         1 UNK         0.0000 
     46 H46        -0.6889   50.0742   27.1302 H         1 UNK         0.0000 
     47 H47        -0.9157   50.8830   25.0995 H         1 UNK         0.0000 
     48 H48         0.0562   51.2909   22.9134 H         1 UNK         0.0000 
     49 H49         2.8298   54.0621   24.6348 H         1 UNK         0.0000 
     50 H50         3.5210   54.6851   28.1541 H         1 UNK         0.0000 
     51 H51         4.0447   53.7560   26.7551 H         1 UNK         0.0000 
     52 H52         3.1731   55.2889   26.5420 H         1 UNK         0.0000 
     53 H53         2.3060   54.0913   22.2019 H         1 UNK         0.0000 
     54 H54         3.0740   51.9446   19.5785 H         1 UNK         0.0000 
     55 H55         4.5824   52.5421   18.4817 H         1 UNK         0.0000 
     56 H56         6.7049   52.2438   17.4873 H         1 UNK         0.0000 
     57 H57         8.6523   53.3847   16.4969 H         1 UNK         0.0000 
     58 H58         9.0568   55.7832   16.9529 H         1 UNK         0.0000 
     59 H59         5.5129   55.9397   19.3455 H         1 UNK         0.0000 
     60 H60        -5.0696   51.9220   25.6361 H         1 UNK         0.0000 
     61 H61        -4.4956   50.2494   25.8325 H         1 UNK         0.0000 
     62 H62        -6.1749   50.5536   25.4943 H         1 UNK         0.0000 
@<TRIPOS>BOND
     1    1    2 1    
     2    1   36 1    
     3    1   37 1    
     4    1   38 1    
     5    2    7 ar   
     6    2    3 ar   
     7    3    4 ar   
     8    3   39 1    
     9    4    5 ar   
    10    4   35 1    
    11    5    6 ar   
    12    5    9 1    
    13    6    7 ar   
    14    6    8 1    
    15    7   40 1    
    16    8   41 1    
    17    8   42 1    
    18    8   43 1    
    19    9   10 am   BACKBONE|DICT|INTERRES
    20    9   44 1    
    21   10   11 2    
    22   10   12 1    
    23   12   13 1    
    24   12   45 1    
    25   12   46 1    
    26   13   14 1    
    27   14   19 ar   
    28   14   15 ar   
    29   15   16 ar   
    30   15   47 1    
    31   16   17 ar   
    32   16   48 1    
    33   17   18 ar   
    34   17   22 1    
    35   18   19 ar   
    36   18   49 1    
    37   19   20 1    
    38   20   21 1    
    39   21   50 1    
    40   21   51 1    
    41   21   52 1    
    42   22   23 2    
    43   22   53 1    
    44   23   24 1    
    45   24   25 1    
    46   24   54 1    
    47   25   26 2    
    48   25   27 1    
    49   27   28 1    
    50   27   55 1    
    51   28   33 ar   
    52   28   29 ar   
    53   29   30 ar   
    54   29   56 1    
    55   30   31 ar   
    56   30   57 1    
    57   31   32 ar   
    58   31   58 1    
    59   32   33 ar   
    60   32   34 1    
    61   33   59 1    
    62   35   60 1    
    63   35   61 1    
    64   35   62 1    
@<TRIPOS>SUBSTRUCTURE
     1 UNK         1 GROUP             0       ****    0 ROOT    
