ZINC38688459_3993
                    3D
 Schrodinger Suite 2024-2.
 58 62  0  0  1  0            999 V2000
    6.6933   54.6470   27.0364 C   0  0  0  0  0  0
    5.3051   54.3032   26.5429 C   0  0  0  0  0  0
    4.1801   53.9475   27.3571 C   0  0  0  0  0  0
    3.9399   53.8073   28.7346 C   0  0  0  0  0  0
    2.6710   53.4086   29.1603 C   0  0  0  0  0  0
    1.6447   53.1578   28.2476 C   0  0  0  0  0  0
    1.8450   53.2971   26.8725 C   0  0  0  0  0  0
    3.1206   53.6954   26.4574 C   0  0  0  0  0  0
    3.5225   53.8676   25.1684 O   0  0  0  0  0  0
    4.8447   54.2145   25.2234 C   0  0  0  0  0  0
    5.5565   54.4282   23.9621 C   0  0  0  0  0  0
    6.7044   54.8708   23.9216 O   0  0  0  0  0  0
    4.8037   54.0530   22.8782 O   0  0  0  0  0  0
    5.2400   54.2289   21.5751 C   0  0  0  0  0  0
    4.9511   53.2300   20.6421 C   0  0  0  0  0  0
    5.3405   53.3631   19.3066 C   0  0  0  0  0  0
    6.0042   54.5154   18.8565 C   0  0  0  0  0  0
    6.2482   55.5333   19.7953 C   0  0  0  0  0  0
    5.9045   55.3814   21.1318 C   0  0  0  0  0  0
    6.7760   56.7574   19.4249 O   0  0  0  0  0  0
    6.6266   57.1299   18.1273 C   0  0  0  0  0  0
    6.4168   56.2591   17.1183 C   0  0  0  0  0  0
    6.4690   54.7520   17.4055 C   0  0  2  0  0  0
    7.5321   54.5109   17.4255 H   0  0  0  0  0  0
    5.7927   53.8510   16.3614 C   0  0  0  0  0  0
    4.4130   53.9671   16.1599 C   0  0  0  0  0  0
    3.7591   53.1417   15.2511 C   0  0  0  0  0  0
    4.4629   52.1833   14.5276 C   0  0  0  0  0  0
    5.8516   52.0876   14.7049 C   0  0  0  0  0  0
    6.5295   52.9120   15.6185 C   0  0  0  0  0  0
    7.8955   52.8463   15.8321 O   0  0  0  0  0  0
    8.6846   51.9134   15.1042 C   0  0  0  0  0  0
    3.7248   51.3847   13.6769 O   0  0  0  0  0  0
    4.3502   50.2568   13.0760 C   0  0  0  0  0  0
    6.2251   56.7279   15.7826 C   0  0  0  0  0  0
    6.0820   57.1247   14.7055 N   0  0  0  0  0  0
    6.6589   58.4967   18.0592 N   0  0  0  0  0  0
    2.4365   53.2582   30.4816 F   0  0  0  0  0  0
    6.7013   54.8970   28.0946 H   0  0  0  0  0  0
    7.3819   53.8130   26.9019 H   0  0  0  0  0  0
    7.1043   55.5057   26.5084 H   0  0  0  0  0  0
    4.7232   53.9924   29.4536 H   0  0  0  0  0  0
    0.6791   52.8435   28.6185 H   0  0  0  0  0  0
    1.0583   53.0975   26.1599 H   0  0  0  0  0  0
    4.4291   52.3368   20.9534 H   0  0  0  0  0  0
    5.1229   52.5535   18.6218 H   0  0  0  0  0  0
    6.1367   56.1842   21.8091 H   0  0  0  0  0  0
    3.8418   54.6906   16.7240 H   0  0  0  0  0  0
    2.6912   53.2303   15.1192 H   0  0  0  0  0  0
    6.4029   51.3559   14.1396 H   0  0  0  0  0  0
    9.7279   52.0146   15.4022 H   0  0  0  0  0  0
    8.3805   50.8898   15.3181 H   0  0  0  0  0  0
    8.6297   52.0904   14.0290 H   0  0  0  0  0  0
    3.6079   49.6927   12.5117 H   0  0  0  0  0  0
    4.7715   49.5859   13.8275 H   0  0  0  0  0  0
    5.1353   50.5566   12.3806 H   0  0  0  0  0  0
    6.5959   58.9723   17.1690 H   0  0  0  0  0  0
    6.4241   59.0567   18.8648 H   0  0  0  0  0  0
  1  2  1  0  0  0
  1 39  1  0  0  0
  1 40  1  0  0  0
  1 41  1  0  0  0
  2 10  2  0  0  0
  2  3  1  0  0  0
  3  8  2  0  0  0
  3  4  1  0  0  0
  4  5  2  0  0  0
  4 42  1  0  0  0
  5  6  1  0  0  0
  5 38  1  0  0  0
  6  7  2  0  0  0
  6 43  1  0  0  0
  7  8  1  0  0  0
  7 44  1  0  0  0
  8  9  1  0  0  0
  9 10  1  0  0  0
 10 11  1  0  0  0
 11 12  2  0  0  0
 11 13  1  0  0  0
 13 14  1  0  0  0
 14 19  2  0  0  0
 14 15  1  0  0  0
 15 16  2  0  0  0
 15 45  1  0  0  0
 16 17  1  0  0  0
 16 46  1  0  0  0
 17 23  1  0  0  0
 17 18  2  0  0  0
 18 19  1  0  0  0
 18 20  1  0  0  0
 19 47  1  0  0  0
 20 21  1  0  0  0
 21 22  2  0  0  0
 21 37  1  0  0  0
 22 23  1  0  0  0
 22 35  1  0  0  0
 23 24  1  0  0  0
 23 25  1  0  0  0
 25 30  2  0  0  0
 25 26  1  0  0  0
 26 27  2  0  0  0
 26 48  1  0  0  0
 27 28  1  0  0  0
 27 49  1  0  0  0
 28 29  2  0  0  0
 28 33  1  0  0  0
 29 30  1  0  0  0
 29 50  1  0  0  0
 30 31  1  0  0  0
 31 32  1  0  0  0
 32 51  1  0  0  0
 32 52  1  0  0  0
 32 53  1  0  0  0
 33 34  1  0  0  0
 34 54  1  0  0  0
 34 55  1  0  0  0
 34 56  1  0  0  0
 35 36  3  0  0  0
 37 57  1  0  0  0
 37 58  1  0  0  0
M  END
> <i_i_glide_confnum>
11

> <i_i_glide_lignum>
3994

> <i_i_glide_posenum>
395

> <i_i_glide_rotatable_bonds>
7

> <i_m_Source_File_Index>
5177

> <b_m_subgroup_collapsed>
0

> <r_i_docking_score>
-4.706

> <r_i_glide_ecoul>
-2.32768

> <r_i_glide_eff_state_penalty>
0

> <r_i_glide_einternal>
2.91632

> <r_i_glide_emodel>
-56.1232

> <r_i_glide_energy>
-44.0605

> <r_i_glide_erotb>
0.326099

> <r_i_glide_esite>
-0.0917632

> <r_i_glide_evdw>
-41.7329

> <r_i_glide_gscore>
-4.706

> <r_i_glide_hbond>
0

> <r_i_glide_ligand_efficiency>
-0.127189

> <r_i_glide_ligand_efficiency_ln>
-1.02062

> <r_i_glide_ligand_efficiency_sa>
-0.423823

> <r_i_glide_lipo>
-2.41141

> <r_i_glide_metal>
0

> <r_i_glide_rewards>
-0.093136

> <s_i_glide_gridfile>
wee1_glide-grid

> <s_m_Source_File>
wee1_decoys_glide_SP.sdf

> <s_m_Source_Path>
/Users/zhangxujun/Desktop

> <s_m_entry_id>
5452

> <s_m_entry_name>
wee1_decoys_glide_SP.5177

> <s_m_subgroup_title>
wee1_decoys_glide_SP

> <s_m_subgroupid>
wee1_decoys_glide_SP


$$$$
