@<TRIPOS>MOLECULE
ZINC04212966_4466
70   73    1
SMALL
USER_CHARGES


@<TRIPOS>ATOM
      1 C1          0.1214   53.2819   31.0277 C.3       1 UNK         0.0000 
      2 C2          1.5806   53.3023   30.5541 C.3       1 UNK         0.0000 
      3 C3          1.8324   52.3006   29.4188 C.3       1 UNK         0.0000 
      4 C4          3.2818   52.3871   28.8976 C.3       1 UNK         0.0000 
      5 N5          3.5809   53.7524   28.4440 N.pl3     1 UNK         0.0000 
      6 C6          3.4856   54.6976   29.5610 C.3       1 UNK         0.0000 
      7 C7          2.0290   54.7047   30.0815 C.3       1 UNK         0.0000 
      8 C8          4.3496   53.9893   27.3121 C.ar      1 UNK         0.0000 
      9 C9          5.6825   54.3967   27.4552 C.ar      1 UNK         0.0000 
     10 C10         6.4814   54.6436   26.3377 C.ar      1 UNK         0.0000 
     11 C11         5.9584   54.5277   25.0470 C.ar      1 UNK         0.0000 
     12 C12         4.6392   54.1044   24.9067 C.ar      1 UNK         0.0000 
     13 C13         3.8404   53.7859   26.0077 C.ar      1 UNK         0.0000 
     14 C14         2.4259   53.3430   25.7286 C.2       1 UNK         0.0000 
     15 O15         1.5042   53.6969   26.4444 O.2       1 UNK         0.0000 
     16 N16         2.2720   52.5939   24.6233 N.am      1 UNK         0.0000 
     17 C17         1.0455   52.1197   23.9942 C.3       1 UNK         0.0000 
     18 H18         0.5198   51.5052   24.7287 H         1 UNK         0.0000 
     19 C19         0.1446   53.2913   23.5749 C.3       1 UNK         0.0000 
     20 C20         1.3574   51.2478   22.7715 C.ar      1 UNK         0.0000 
     21 C21         2.4084   51.5704   21.8978 C.ar      1 UNK         0.0000 
     22 C22         2.6869   50.7579   20.8013 C.ar      1 UNK         0.0000 
     23 C23         1.9137   49.6238   20.5709 C.ar      1 UNK         0.0000 
     24 C24         0.8616   49.2965   21.4251 C.ar      1 UNK         0.0000 
     25 C25         0.5886   50.1039   22.5279 C.ar      1 UNK         0.0000 
     26 N26         6.7786   54.8625   23.9522 N.am      1 UNK         0.0000 
     27 C27         6.4899   54.8804   22.6308 C.2       1 UNK         0.0000 
     28 O28         5.4450   54.4975   22.1056 O.2       1 UNK         0.0000 
     29 N29         7.5045   55.4191   21.9376 N.am      1 UNK         0.0000 
     30 C30         7.4834   55.8512   20.6038 C.ar      1 UNK         0.0000 
     31 C31         6.3759   56.5110   20.0677 C.ar      1 UNK         0.0000 
     32 C32         6.4115   57.0027   18.7673 C.ar      1 UNK         0.0000 
     33 C33         7.5689   56.8464   18.0019 C.ar      1 UNK         0.0000 
     34 C34         8.6789   56.1876   18.5316 C.ar      1 UNK         0.0000 
     35 C35         8.6361   55.6974   19.8340 C.ar      1 UNK         0.0000 
     36 S36         7.6678   57.4888   16.3545 S.3       1 UNK         0.0000 
     37 C37         6.2355   58.5720   16.0737 C.3       1 UNK         0.0000 
     38 H38        -0.5447   53.6432   30.2445 H         1 UNK         0.0000 
     39 H39        -0.1930   52.2702   31.2817 H         1 UNK         0.0000 
     40 H40        -0.0226   53.9056   31.9111 H         1 UNK         0.0000 
     41 H41         2.2277   52.9832   31.3722 H         1 UNK         0.0000 
     42 H42         1.1389   52.4640   28.5939 H         1 UNK         0.0000 
     43 H43         1.5984   51.2957   29.7581 H         1 UNK         0.0000 
     44 H44         3.3795   51.6978   28.0687 H         1 UNK         0.0000 
     45 H45         4.0033   52.0829   29.6578 H         1 UNK         0.0000 
     46 H46         4.1992   54.4191   30.3401 H         1 UNK         0.0000 
     47 H47         3.7429   55.6979   29.2187 H         1 UNK         0.0000 
     48 H48         1.8989   55.4357   30.8813 H         1 UNK         0.0000 
     49 H49         1.3697   55.0700   29.2913 H         1 UNK         0.0000 
     50 H50         6.1089   54.5190   28.4399 H         1 UNK         0.0000 
     51 H51         7.5042   54.9359   26.4980 H         1 UNK         0.0000 
     52 H52         4.1984   54.0212   23.9289 H         1 UNK         0.0000 
     53 H53         3.1118   52.1778   24.2572 H         1 UNK         0.0000 
     54 H54        -0.7309   52.9298   23.0342 H         1 UNK         0.0000 
     55 H55        -0.2145   53.8526   24.4336 H         1 UNK         0.0000 
     56 H56         0.7046   53.9731   22.9311 H         1 UNK         0.0000 
     57 H57         3.0077   52.4552   22.0579 H         1 UNK         0.0000 
     58 H58         3.4932   51.0092   20.1269 H         1 UNK         0.0000 
     59 H59         2.1326   48.9965   19.7175 H         1 UNK         0.0000 
     60 H60         0.2620   48.4190   21.2326 H         1 UNK         0.0000 
     61 H61        -0.2269   49.8381   23.1859 H         1 UNK         0.0000 
     62 H62         7.7182   55.1475   24.1858 H         1 UNK         0.0000 
     63 H63         8.4068   55.4404   22.3957 H         1 UNK         0.0000 
     64 H64         5.5048   56.6685   20.6752 H         1 UNK         0.0000 
     65 H65         5.5445   57.5129   18.3779 H         1 UNK         0.0000 
     66 H66         9.5753   56.0654   17.9408 H         1 UNK         0.0000 
     67 H67         9.5043   55.2014   20.2382 H         1 UNK         0.0000 
     68 H68         6.3539   59.1161   15.1377 H         1 UNK         0.0000 
     69 H69         5.3201   57.9862   16.0103 H         1 UNK         0.0000 
     70 H70         6.1326   59.2972   16.8784 H         1 UNK         0.0000 
@<TRIPOS>BOND
     1    1    2 1    
     2    1   38 1    
     3    1   39 1    
     4    1   40 1    
     5    2    7 1    
     6    2    3 1    
     7    2   41 1    
     8    3    4 1    
     9    3   42 1    
    10    3   43 1    
    11    4    5 1    
    12    4   44 1    
    13    4   45 1    
    14    5    6 1    
    15    5    8 1    
    16    6    7 1    
    17    6   46 1    
    18    6   47 1    
    19    7   48 1    
    20    7   49 1    
    21    8   13 ar   
    22    8    9 ar   
    23    9   10 ar   
    24    9   50 1    
    25   10   11 ar   
    26   10   51 1    
    27   11   12 ar   
    28   11   26 1    
    29   12   13 ar   
    30   12   52 1    
    31   13   14 1    
    32   14   15 2    
    33   14   16 am   BACKBONE|DICT|INTERRES
    34   16   17 1    
    35   16   53 1    
    36   17   18 1    
    37   17   19 1    
    38   17   20 1    
    39   19   54 1    
    40   19   55 1    
    41   19   56 1    
    42   20   25 ar   
    43   20   21 ar   
    44   21   22 ar   
    45   21   57 1    
    46   22   23 ar   
    47   22   58 1    
    48   23   24 ar   
    49   23   59 1    
    50   24   25 ar   
    51   24   60 1    
    52   25   61 1    
    53   26   27 am   BACKBONE|DICT|INTERRES
    54   26   62 1    
    55   27   28 2    
    56   27   29 am   BACKBONE|DICT|INTERRES
    57   29   30 1    
    58   29   63 1    
    59   30   35 ar   
    60   30   31 ar   
    61   31   32 ar   
    62   31   64 1    
    63   32   33 ar   
    64   32   65 1    
    65   33   34 ar   
    66   33   36 1    
    67   34   35 ar   
    68   34   66 1    
    69   35   67 1    
    70   36   37 1    
    71   37   68 1    
    72   37   69 1    
    73   37   70 1    
@<TRIPOS>SUBSTRUCTURE
     1 UNK         1 GROUP             0       ****    0 ROOT    
