ZINC12329302_209
                    3D
 Schrodinger Suite 2024-2.
 60 64  0  0  1  0            999 V2000
    6.5900   54.8700   24.0847 C   0  0  0  0  0  0
    5.2229   54.4967   24.2353 O   0  0  0  0  0  0
    4.7237   54.2541   25.5001 C   0  0  0  0  0  0
    5.4634   54.3914   26.6837 C   0  0  0  0  0  0
    4.8801   54.1141   27.9183 C   0  0  0  0  0  0
    3.5478   53.6963   28.0127 C   0  0  0  0  0  0
    2.8133   53.5454   26.8199 C   0  0  0  0  0  0
    3.3933   53.8411   25.5863 C   0  0  0  0  0  0
    1.4662   53.2141   26.7833 O   0  0  0  0  0  0
    0.9154   52.5442   27.9316 C   0  0  2  0  0  0
    1.2294   51.0334   27.8589 C   0  0  0  0  0  0
    0.7044   50.3652   26.5649 C   0  0  0  0  0  0
   -1.1990   52.0353   26.5389 C   0  0  0  0  0  0
   -0.6211   52.6462   27.8293 C   0  0  0  0  0  0
   -1.3554   49.8622   25.1770 C   0  0  0  0  0  0
   -2.7048   49.1330   25.3802 C   0  0  2  0  0  0
   -3.0551   48.8061   24.3993 H   0  0  0  0  0  0
   -3.8019   50.0277   25.9621 C   0  0  0  0  0  0
   -4.1605   49.9714   27.3221 C   0  0  0  0  0  0
   -5.1006   50.8620   27.8475 C   0  0  0  0  0  0
   -5.6885   51.7871   26.9908 C   0  0  0  0  0  0
   -5.3689   51.8478   25.6478 C   0  0  0  0  0  0
   -4.4162   50.9742   25.1258 C   0  0  0  0  0  0
   -6.1107   52.9984   25.0481 C   0  0  0  0  0  0
   -7.0618   53.3833   26.1906 C   0  0  0  0  0  0
   -6.5836   52.7501   27.3797 O   0  0  0  0  0  0
   -2.4956   47.9199   26.0817 O   0  0  0  0  0  0
    1.4088   53.2586   29.2211 C   0  0  0  0  0  0
    2.9403   53.2929   29.3469 C   0  0  1  0  0  0
    3.2147   54.0364   30.0961 H   0  0  0  0  0  0
    3.4551   52.0708   29.8318 O   0  0  0  0  0  0
    6.8157   54.9983   23.0261 H   0  0  0  0  0  0
    6.8051   55.8170   24.5817 H   0  0  0  0  0  0
    7.2615   54.1013   24.4711 H   0  0  0  0  0  0
    6.4950   54.7059   26.6671 H   0  0  0  0  0  0
    5.4790   54.2194   28.8123 H   0  0  0  0  0  0
    2.8084   53.7453   24.6840 H   0  0  0  0  0  0
    0.7948   50.5527   28.7323 H   0  0  0  0  0  0
    2.3015   50.8675   27.9306 H   0  0  0  0  0  0
    0.9066   49.2911   26.5766 H   0  0  0  0  0  0
    1.1044   50.8172   25.6560 H   0  0  0  0  0  0
   -0.8086   52.5178   25.6407 H   0  0  0  0  0  0
   -2.2848   52.1098   26.5539 H   0  0  0  0  0  0
   -0.8956   53.6980   27.8676 H   0  0  0  0  0  0
   -1.0906   52.1810   28.6984 H   0  0  0  0  0  0
   -0.6069   49.1416   24.8389 H   0  0  0  0  0  0
   -1.4097   50.6330   24.4067 H   0  0  0  0  0  0
   -3.6955   49.2567   27.9873 H   0  0  0  0  0  0
   -5.3539   50.8265   28.8964 H   0  0  0  0  0  0
   -4.1334   51.0395   24.0850 H   0  0  0  0  0  0
   -6.6614   52.7527   24.1384 H   0  0  0  0  0  0
   -5.4413   53.8290   24.8215 H   0  0  0  0  0  0
   -7.1844   54.4604   26.3093 H   0  0  0  0  0  0
   -8.0495   52.9697   25.9777 H   0  0  0  0  0  0
   -2.1085   48.0967   26.9714 H   0  0  0  0  0  0
    1.0679   54.2949   29.1958 H   0  0  0  0  0  0
    0.9548   52.8416   30.1215 H   0  0  0  0  0  0
    4.3846   52.0345   29.5909 H   0  0  0  0  0  0
   -0.8265   50.5282   26.4817 N   0  3  1  0  0  0
   -1.2231   50.0328   27.2782 H   0  0  0  0  0  0
  1  2  1  0  0  0
  1 32  1  0  0  0
  1 33  1  0  0  0
  1 34  1  0  0  0
  2  3  1  0  0  0
  3  8  2  0  0  0
  3  4  1  0  0  0
  4  5  2  0  0  0
  4 35  1  0  0  0
  5  6  1  0  0  0
  5 36  1  0  0  0
  6 29  1  0  0  0
  6  7  2  0  0  0
  7  8  1  0  0  0
  7  9  1  0  0  0
  8 37  1  0  0  0
  9 10  1  0  0  0
 10 14  1  0  0  0
 10 11  1  0  0  0
 10 28  1  0  0  0
 11 12  1  0  0  0
 11 38  1  0  0  0
 11 39  1  0  0  0
 12 40  1  0  0  0
 12 41  1  0  0  0
 12 59  1  0  0  0
 13 14  1  0  0  0
 13 42  1  0  0  0
 13 43  1  0  0  0
 13 59  1  0  0  0
 14 44  1  0  0  0
 14 45  1  0  0  0
 15 16  1  0  0  0
 15 46  1  0  0  0
 15 47  1  0  0  0
 15 59  1  0  0  0
 16 17  1  0  0  0
 16 18  1  0  0  0
 16 27  1  0  0  0
 18 23  2  0  0  0
 18 19  1  0  0  0
 19 20  2  0  0  0
 19 48  1  0  0  0
 20 21  1  0  0  0
 20 49  1  0  0  0
 21 26  1  0  0  0
 21 22  2  0  0  0
 22 23  1  0  0  0
 22 24  1  0  0  0
 23 50  1  0  0  0
 24 25  1  0  0  0
 24 51  1  0  0  0
 24 52  1  0  0  0
 25 26  1  0  0  0
 25 53  1  0  0  0
 25 54  1  0  0  0
 27 55  1  0  0  0
 28 29  1  0  0  0
 28 56  1  0  0  0
 28 57  1  0  0  0
 29 30  1  0  0  0
 29 31  1  0  0  0
 31 58  1  0  0  0
 59 60  1  0  0  0
M  CHG  1  59   1
M  END
> <i_i_glide_confnum>
39

> <i_i_glide_lignum>
210

> <i_i_glide_posenum>
337

> <i_i_glide_rotatable_bonds>
6

> <i_m_Source_File_Index>
802

> <b_m_subgroup_collapsed>
0

> <r_i_docking_score>
-5.9681

> <r_i_glide_ecoul>
-8.39849

> <r_i_glide_eff_state_penalty>
0

> <r_i_glide_einternal>
5.39487

> <r_i_glide_emodel>
-53.192

> <r_i_glide_energy>
-38.4692

> <r_i_glide_erotb>
0.347674

> <r_i_glide_esite>
-0.0831026

> <r_i_glide_evdw>
-30.0707

> <r_i_glide_gscore>
-5.9681

> <r_i_glide_hbond>
-0.518733

> <r_i_glide_ligand_efficiency>
-0.198937

> <r_i_glide_ligand_efficiency_ln>
-1.35602

> <r_i_glide_ligand_efficiency_sa>
-0.618143

> <r_i_glide_lipo>
-2.30404

> <r_i_glide_metal>
0

> <r_i_glide_rewards>
-0.646594

> <s_i_glide_gridfile>
wee1_glide-grid

> <s_m_Source_File>
wee1_decoys_glide_SP.sdf

> <s_m_Source_Path>
/Users/zhangxujun/Desktop

> <s_m_entry_id>
1077

> <s_m_entry_name>
wee1_decoys_glide_SP.802

> <s_m_subgroup_title>
wee1_decoys_glide_SP

> <s_m_subgroupid>
wee1_decoys_glide_SP


$$$$
