@<TRIPOS>MOLECULE
ZINC36698263_5758
73   75    1
SMALL
USER_CHARGES


@<TRIPOS>ATOM
      1 C1         14.0246   54.0866   17.0917 C.3       1 UNK         0.0000 
      2 C2         12.8198   55.0336   16.9964 C.3       1 UNK         0.0000 
      3 C3         11.4930   54.3551   17.3755 C.3       1 UNK         0.0000 
      4 C4         10.2757   55.2542   17.1113 C.3       1 UNK         0.0000 
      5 N5          9.0020   54.6857   17.6324 N.pl3     1 UNK         0.0000 
      6 C6          8.6521   53.2868   17.2484 C.3       1 UNK         0.0000 
      7 C7          8.5376   53.0655   15.7248 C.3       1 UNK         0.0000 
      8 C8          8.2259   51.6038   15.3481 C.3       1 UNK         0.0000 
      9 C9          9.3371   50.6052   15.7200 C.3       1 UNK         0.0000 
     10 S10         7.6756   55.8553   17.7785 S.o2      1 UNK         0.0000 
     11 O11         8.2214   57.0897   18.3589 O.2       1 UNK         0.0000 
     12 O12         6.9638   55.8979   16.4958 O.2       1 UNK         0.0000 
     13 C13         6.5552   55.1745   18.9974 C.ar      1 UNK         0.0000 
     14 C14         6.7911   55.3963   20.3527 C.ar      1 UNK         0.0000 
     15 C15         5.9015   54.8991   21.3006 C.ar      1 UNK         0.0000 
     16 C16         4.7635   54.1729   20.9024 C.ar      1 UNK         0.0000 
     17 C17         4.5582   53.9374   19.5359 C.ar      1 UNK         0.0000 
     18 C18         5.4445   54.4372   18.5881 C.ar      1 UNK         0.0000 
     19 C19         3.7626   53.6325   21.9086 C.2       1 UNK         0.0000 
     20 O20         2.9182   52.7998   21.5644 O.2       1 UNK         0.0000 
     21 N21         3.9592   54.0730   23.2125 N.am      1 UNK         0.0000 
     22 C22         3.1653   53.8489   24.1940 C.2       1 UNK         0.0000 
     23 N23         3.4507   54.1240   25.5292 N.pl3     1 UNK         0.0000 
     24 C24         2.5788   53.6042   26.4999 C.ar      1 UNK         0.0000 
     25 C25         2.7174   53.6080   27.8948 C.ar      1 UNK         0.0000 
     26 C26         1.7360   53.0242   28.7065 C.ar      1 UNK         0.0000 
     27 C27         0.6093   52.4229   28.1174 C.ar      1 UNK         0.0000 
     28 C28         0.4870   52.4070   26.7254 C.ar      1 UNK         0.0000 
     29 C29         1.4681   52.9989   25.9317 C.ar      1 UNK         0.0000 
     30 S30         1.5061   53.1111   24.1883 S.3       1 UNK         0.0000 
     31 C31        -0.4906   51.7927   28.9614 C.3       1 UNK         0.0000 
     32 C32         1.9269   53.0334   30.2181 C.3       1 UNK         0.0000 
     33 C33         4.6987   54.7954   25.9211 C.3       1 UNK         0.0000 
     34 C34         5.9166   53.8519   25.8663 C.3       1 UNK         0.0000 
     35 O35         7.0753   54.4904   26.3766 O.3       1 UNK         0.0000 
     36 C36         7.1790   54.4069   27.7870 C.3       1 UNK         0.0000 
     37 H37        14.9556   54.6109   16.8615 H         1 UNK         0.0000 
     38 H38        13.9284   53.2569   16.3896 H         1 UNK         0.0000 
     39 H39        14.1245   53.6641   18.0898 H         1 UNK         0.0000 
     40 H40        12.9846   55.8943   17.6459 H         1 UNK         0.0000 
     41 H41        12.7560   55.4202   15.9788 H         1 UNK         0.0000 
     42 H42        11.3959   53.4206   16.8176 H         1 UNK         0.0000 
     43 H43        11.5043   54.0965   18.4351 H         1 UNK         0.0000 
     44 H44        10.4297   56.2241   17.5852 H         1 UNK         0.0000 
     45 H45        10.1546   55.4498   16.0451 H         1 UNK         0.0000 
     46 H46         9.4039   52.6285   17.6848 H         1 UNK         0.0000 
     47 H47         7.7056   53.0242   17.7211 H         1 UNK         0.0000 
     48 H48         7.7490   53.7000   15.3221 H         1 UNK         0.0000 
     49 H49         9.4622   53.3630   15.2279 H         1 UNK         0.0000 
     50 H50         7.2910   51.2982   15.8185 H         1 UNK         0.0000 
     51 H51         8.0498   51.5439   14.2737 H         1 UNK         0.0000 
     52 H52         9.1059   49.6071   15.3457 H         1 UNK         0.0000 
     53 H53        10.2975   50.9003   15.2946 H         1 UNK         0.0000 
     54 H54         9.4624   50.5234   16.7999 H         1 UNK         0.0000 
     55 H55         7.6587   55.9561   20.6713 H         1 UNK         0.0000 
     56 H56         6.1115   55.0856   22.3447 H         1 UNK         0.0000 
     57 H57         3.6987   53.3771   19.1936 H         1 UNK         0.0000 
     58 H58         5.2587   54.2556   17.5378 H         1 UNK         0.0000 
     59 H59         3.5811   54.0538   28.3664 H         1 UNK         0.0000 
     60 H60        -0.3721   51.9400   26.2649 H         1 UNK         0.0000 
     61 H61        -0.8288   52.4832   29.7350 H         1 UNK         0.0000 
     62 H62        -1.3616   51.5143   28.3673 H         1 UNK         0.0000 
     63 H63        -0.1183   50.8968   29.4551 H         1 UNK         0.0000 
     64 H64         2.9516   53.2814   30.4939 H         1 UNK         0.0000 
     65 H65         1.2466   53.7441   30.6858 H         1 UNK         0.0000 
     66 H66         1.7157   52.0512   30.6376 H         1 UNK         0.0000 
     67 H67         4.8660   55.6282   25.2399 H         1 UNK         0.0000 
     68 H68         4.5977   55.2294   26.9113 H         1 UNK         0.0000 
     69 H69         5.7208   52.9090   26.3856 H         1 UNK         0.0000 
     70 H70         6.1324   53.6026   24.8274 H         1 UNK         0.0000 
     71 H71         8.1040   54.8963   28.0814 H         1 UNK         0.0000 
     72 H72         6.3450   54.8951   28.2925 H         1 UNK         0.0000 
     73 H73         7.2358   53.3719   28.1244 H         1 UNK         0.0000 
@<TRIPOS>BOND
     1    1    2 1    
     2    1   37 1    
     3    1   38 1    
     4    1   39 1    
     5    2    3 1    
     6    2   40 1    
     7    2   41 1    
     8    3    4 1    
     9    3   42 1    
    10    3   43 1    
    11    4    5 1    
    12    4   44 1    
    13    4   45 1    
    14    5    6 1    
    15    5   10 1    
    16    6    7 1    
    17    6   46 1    
    18    6   47 1    
    19    7    8 1    
    20    7   48 1    
    21    7   49 1    
    22    8    9 1    
    23    8   50 1    
    24    8   51 1    
    25    9   52 1    
    26    9   53 1    
    27    9   54 1    
    28   10   11 2    
    29   10   12 2    
    30   10   13 1    
    31   13   18 ar   
    32   13   14 ar   
    33   14   15 ar   
    34   14   55 1    
    35   15   16 ar   
    36   15   56 1    
    37   16   17 ar   
    38   16   19 1    
    39   17   18 ar   
    40   17   57 1    
    41   18   58 1    
    42   19   20 2    
    43   19   21 am   BACKBONE|DICT|INTERRES
    44   21   22 2    BACKBONE|DICT|INTERRES
    45   22   30 1    
    46   22   23 1    
    47   23   24 1    
    48   23   33 1    
    49   24   29 ar   
    50   24   25 ar   
    51   25   26 ar   
    52   25   59 1    
    53   26   27 ar   
    54   26   32 1    
    55   27   28 ar   
    56   27   31 1    
    57   28   29 ar   
    58   28   60 1    
    59   29   30 1    
    60   31   61 1    
    61   31   62 1    
    62   31   63 1    
    63   32   64 1    
    64   32   65 1    
    65   32   66 1    
    66   33   34 1    
    67   33   67 1    
    68   33   68 1    
    69   34   35 1    
    70   34   69 1    
    71   34   70 1    
    72   35   36 1    
    73   36   71 1    
    74   36   72 1    
    75   36   73 1    
@<TRIPOS>SUBSTRUCTURE
     1 UNK         1 GROUP             0       ****    0 ROOT    
