@<TRIPOS>MOLECULE
ZINC02520403_4463
62   66    1
SMALL
USER_CHARGES


@<TRIPOS>ATOM
      1 C1          6.7816   55.2052   22.9281 C.3       1 UNK         0.0000 
      2 C2          6.3761   55.0501   21.4789 C.ar      1 UNK         0.0000 
      3 C3          7.1023   55.6918   20.4735 C.ar      1 UNK         0.0000 
      4 C4          6.7451   55.5161   19.1386 C.ar      1 UNK         0.0000 
      5 C5          5.6688   54.6937   18.8056 C.ar      1 UNK         0.0000 
      6 C6          4.9327   54.0439   19.8017 C.ar      1 UNK         0.0000 
      7 C7          5.2860   54.2406   21.1468 C.ar      1 UNK         0.0000 
      8 N8          3.8844   53.2194   19.3545 N.am      1 UNK         0.0000 
      9 C9          2.9888   52.4829   20.0502 C.2       1 UNK         0.0000 
     10 O10         2.9459   52.4072   21.2827 O.2       1 UNK         0.0000 
     11 C11         1.9446   51.7686   19.1989 C.ar      1 UNK         0.0000 
     12 C12         2.3040   51.2979   17.9234 C.ar      1 UNK         0.0000 
     13 C13         1.3871   50.6545   17.0993 C.ar      1 UNK         0.0000 
     14 C14         0.0809   50.4646   17.5305 C.ar      1 UNK         0.0000 
     15 C15        -0.3051   50.9089   18.7911 C.ar      1 UNK         0.0000 
     16 C16         0.6095   51.5614   19.6376 C.ar      1 UNK         0.0000 
     17 N17         0.2591   51.9882   20.9341 N.am      1 UNK         0.0000 
     18 C18        -0.9462   52.0967   21.5458 C.2       1 UNK         0.0000 
     19 O19        -2.0281   51.9343   20.9752 O.2       1 UNK         0.0000 
     20 C20        -0.9079   52.4967   22.9914 C.2       1 UNK         0.0000 
     21 O21        -1.9541   52.8110   23.5729 O.2       1 UNK         0.0000 
     22 N22         0.3141   52.5120   23.5863 N.am      1 UNK         0.0000 
     23 N23         0.4764   52.8965   24.8659 N.2       1 UNK         0.0000 
     24 C24         1.6650   52.7911   25.3044 C.2       1 UNK         0.0000 
     25 C25         2.0524   53.0489   26.7193 C.ar      1 UNK         0.0000 
     26 C26         1.1739   52.6952   27.8205 C.ar      1 UNK         0.0000 
     27 C27        -0.0714   51.9953   27.6792 C.ar      1 UNK         0.0000 
     28 C28        -0.8743   51.6976   28.7730 C.ar      1 UNK         0.0000 
     29 C29        -0.4949   52.0874   30.0459 C.ar      1 UNK         0.0000 
     30 C30         0.7181   52.7280   30.2515 C.ar      1 UNK         0.0000 
     31 C31         1.5724   53.0132   29.1559 C.ar      1 UNK         0.0000 
     32 C32         2.8342   53.5774   29.3767 C.ar      1 UNK         0.0000 
     33 C33         3.7406   53.8535   28.3479 C.ar      1 UNK         0.0000 
     34 C34         3.3553   53.6206   26.9921 C.ar      1 UNK         0.0000 
     35 C35         4.3216   53.9590   25.9856 C.ar      1 UNK         0.0000 
     36 C36         5.5995   54.3966   26.3233 C.ar      1 UNK         0.0000 
     37 C37         5.9567   54.5738   27.6479 C.ar      1 UNK         0.0000 
     38 C38         5.0337   54.3425   28.6547 C.ar      1 UNK         0.0000 
     39 H39         7.3396   54.3294   23.2612 H         1 UNK         0.0000 
     40 H40         5.8911   55.2969   23.5466 H         1 UNK         0.0000 
     41 H41         7.3873   56.0965   23.0912 H         1 UNK         0.0000 
     42 H42         7.9595   56.3012   20.7192 H         1 UNK         0.0000 
     43 H43         7.3116   56.0042   18.3587 H         1 UNK         0.0000 
     44 H44         5.4192   54.5595   17.7626 H         1 UNK         0.0000 
     45 H45         4.7526   53.7570   21.9485 H         1 UNK         0.0000 
     46 H46         3.7881   53.1732   18.3525 H         1 UNK         0.0000 
     47 H47         3.3180   51.3901   17.5564 H         1 UNK         0.0000 
     48 H48         1.7047   50.2869   16.1336 H         1 UNK         0.0000 
     49 H49        -0.6288   49.9570   16.8944 H         1 UNK         0.0000 
     50 H50        -1.3207   50.7100   19.0921 H         1 UNK         0.0000 
     51 H51         1.0856   52.2585   21.4506 H         1 UNK         0.0000 
     52 H52         1.1566   52.2195   23.1142 H         1 UNK         0.0000 
     53 H53         2.4841   52.4659   24.6663 H         1 UNK         0.0000 
     54 H54        -0.4160   51.6437   26.7214 H         1 UNK         0.0000 
     55 H55        -1.7939   51.1461   28.6335 H         1 UNK         0.0000 
     56 H56        -1.1281   51.8329   30.8817 H         1 UNK         0.0000 
     57 H57         1.0231   52.9796   31.2571 H         1 UNK         0.0000 
     58 H58         3.1444   53.7656   30.3928 H         1 UNK         0.0000 
     59 H59         4.0975   53.8333   24.9378 H         1 UNK         0.0000 
     60 H60         6.3342   54.5860   25.5584 H         1 UNK         0.0000 
     61 H61         6.9554   54.8966   27.8999 H         1 UNK         0.0000 
     62 H62         5.3164   54.5129   29.6818 H         1 UNK         0.0000 
@<TRIPOS>BOND
     1    1    2 1    
     2    1   39 1    
     3    1   40 1    
     4    1   41 1    
     5    2    7 ar   
     6    2    3 ar   
     7    3    4 ar   
     8    3   42 1    
     9    4    5 ar   
    10    4   43 1    
    11    5    6 ar   
    12    5   44 1    
    13    6    7 ar   
    14    6    8 1    
    15    7   45 1    
    16    8    9 am   BACKBONE|DICT|INTERRES
    17    8   46 1    
    18    9   10 2    
    19    9   11 1    
    20   11   16 ar   
    21   11   12 ar   
    22   12   13 ar   
    23   12   47 1    
    24   13   14 ar   
    25   13   48 1    
    26   14   15 ar   
    27   14   49 1    
    28   15   16 ar   
    29   15   50 1    
    30   16   17 1    
    31   17   18 am   BACKBONE|DICT|INTERRES
    32   17   51 1    
    33   18   19 2    
    34   18   20 1    
    35   20   21 2    
    36   20   22 am   BACKBONE|DICT|INTERRES
    37   22   23 1    
    38   22   52 1    
    39   23   24 2    
    40   24   25 1    
    41   24   53 1    
    42   25   34 ar   
    43   25   26 ar   
    44   26   31 ar   
    45   26   27 ar   
    46   27   28 ar   
    47   27   54 1    
    48   28   29 ar   
    49   28   55 1    
    50   29   30 ar   
    51   29   56 1    
    52   30   31 ar   
    53   30   57 1    
    54   31   32 ar   
    55   32   33 ar   
    56   32   58 1    
    57   33   38 ar   
    58   33   34 ar   
    59   34   35 ar   
    60   35   36 ar   
    61   35   59 1    
    62   36   37 ar   
    63   36   60 1    
    64   37   38 ar   
    65   37   61 1    
    66   38   62 1    
@<TRIPOS>SUBSTRUCTURE
     1 UNK         1 GROUP             0       ****    0 ROOT    
