ZINC13094789_1929
                    3D
 Schrodinger Suite 2024-2.
 49 51  0  0  1  0            999 V2000
    4.8483   59.7016   14.4820 C   0  0  0  0  0  0
    4.8536   58.3652   15.1995 C   0  0  0  0  0  0
    5.4163   57.2473   14.5827 C   0  0  0  0  0  0
    5.3810   56.0129   15.2235 C   0  0  0  0  0  0
    4.7667   55.8960   16.4710 C   0  0  0  0  0  0
    4.2341   57.0190   17.1043 C   0  0  0  0  0  0
    4.2666   58.2550   16.4610 C   0  0  0  0  0  0
    4.6918   54.3002   17.2818 S   0  0  0  0  0  0
    4.9036   53.2897   16.2393 O   0  0  0  0  0  0
    3.4812   54.2989   18.1086 O   0  0  0  0  0  0
    6.1307   54.2465   18.3556 N   0  0  0  0  0  0
    7.4207   54.3728   17.6758 C   0  0  0  0  0  0
    6.0733   54.5017   19.7496 C   0  0  0  0  0  0
    7.0362   55.2982   20.3879 C   0  0  0  0  0  0
    7.0557   55.4202   21.7738 C   0  0  0  0  0  0
    6.1061   54.7638   22.5679 C   0  0  0  0  0  0
    5.1150   54.0016   21.9254 C   0  0  0  0  0  0
    5.1043   53.8706   20.5382 C   0  0  0  0  0  0
    6.1736   54.8955   24.0821 C   0  0  0  0  0  0
    7.1026   55.5100   24.6097 O   0  0  0  0  0  0
    5.1590   54.3483   24.7935 N   0  0  0  0  0  0
    5.0608   54.2923   26.1960 C   0  0  0  0  0  0
    6.1824   54.1151   27.0166 C   0  0  0  0  0  0
    6.0444   54.0921   28.3972 C   0  0  0  0  0  0
    4.7860   54.2363   28.9732 C   0  0  0  0  0  0
    3.6407   54.3844   28.1826 C   0  0  0  0  0  0
    3.7942   54.3925   26.7830 C   0  0  0  0  0  0
    2.2956   54.5412   28.8291 C   0  0  0  0  0  0
    2.2438   54.4943   30.0817 O   0  0  0  0  0  0
    4.9953   59.5876   13.4065 H   0  0  0  0  0  0
    3.8871   60.1986   14.6191 H   0  0  0  0  0  0
    5.6195   60.3591   14.8834 H   0  0  0  0  0  0
    5.8745   57.3325   13.6073 H   0  0  0  0  0  0
    5.8086   55.1478   14.7364 H   0  0  0  0  0  0
    3.7762   56.9317   18.0776 H   0  0  0  0  0  0
    3.8373   59.1267   16.9382 H   0  0  0  0  0  0
    8.2158   53.8971   18.2539 H   0  0  0  0  0  0
    7.3977   53.8890   16.7001 H   0  0  0  0  0  0
    7.6773   55.4219   17.5246 H   0  0  0  0  0  0
    7.8058   55.8015   19.8182 H   0  0  0  0  0  0
    7.8377   56.0146   22.2288 H   0  0  0  0  0  0
    4.3576   53.4694   22.4808 H   0  0  0  0  0  0
    4.3679   53.2211   20.0872 H   0  0  0  0  0  0
    4.3621   54.0044   24.2821 H   0  0  0  0  0  0
    7.1688   53.9924   26.5937 H   0  0  0  0  0  0
    6.9191   53.9760   29.0201 H   0  0  0  0  0  0
    4.7049   54.2350   30.0508 H   0  0  0  0  0  0
    2.9221   54.5016   26.1510 H   0  0  0  0  0  0
    1.3048   54.7157   28.0832 O   0  5  0  0  0  0
  1  2  1  0  0  0
  1 30  1  0  0  0
  1 31  1  0  0  0
  1 32  1  0  0  0
  2  7  2  0  0  0
  2  3  1  0  0  0
  3  4  2  0  0  0
  3 33  1  0  0  0
  4  5  1  0  0  0
  4 34  1  0  0  0
  5  6  2  0  0  0
  5  8  1  0  0  0
  6  7  1  0  0  0
  6 35  1  0  0  0
  7 36  1  0  0  0
  8  9  2  0  0  0
  8 10  2  0  0  0
  8 11  1  0  0  0
 11 12  1  0  0  0
 11 13  1  0  0  0
 12 37  1  0  0  0
 12 38  1  0  0  0
 12 39  1  0  0  0
 13 18  2  0  0  0
 13 14  1  0  0  0
 14 15  2  0  0  0
 14 40  1  0  0  0
 15 16  1  0  0  0
 15 41  1  0  0  0
 16 17  2  0  0  0
 16 19  1  0  0  0
 17 18  1  0  0  0
 17 42  1  0  0  0
 18 43  1  0  0  0
 19 20  2  0  0  0
 19 21  1  0  0  0
 21 22  1  0  0  0
 21 44  1  0  0  0
 22 27  2  0  0  0
 22 23  1  0  0  0
 23 24  2  0  0  0
 23 45  1  0  0  0
 24 25  1  0  0  0
 24 46  1  0  0  0
 25 26  2  0  0  0
 25 47  1  0  0  0
 26 27  1  0  0  0
 26 28  1  0  0  0
 27 48  1  0  0  0
 28 29  2  0  0  0
 28 49  1  0  0  0
M  CHG  1  49  -1
M  END
> <i_i_glide_confnum>
2

> <i_i_glide_lignum>
1930

> <i_i_glide_posenum>
17

> <i_i_glide_rotatable_bonds>
7

> <i_m_Source_File_Index>
307

> <b_m_subgroup_collapsed>
0

> <r_i_docking_score>
-5.76012

> <r_i_glide_ecoul>
-3.49088

> <r_i_glide_eff_state_penalty>
0

> <r_i_glide_einternal>
2.33674

> <r_i_glide_emodel>
-61.3425

> <r_i_glide_energy>
-42.5102

> <r_i_glide_erotb>
0.663157

> <r_i_glide_esite>
-0.0651222

> <r_i_glide_evdw>
-39.0193

> <r_i_glide_gscore>
-5.76012

> <r_i_glide_hbond>
-0.343313

> <r_i_glide_ligand_efficiency>
-0.192004

> <r_i_glide_ligand_efficiency_ln>
-1.30876

> <r_i_glide_ligand_efficiency_sa>
-0.596601

> <r_i_glide_lipo>
-2.39938

> <r_i_glide_metal>
0

> <r_i_glide_rewards>
-1.14087

> <s_i_glide_gridfile>
wee1_glide-grid

> <s_m_Source_File>
wee1_decoys_glide_SP.sdf

> <s_m_Source_Path>
/Users/zhangxujun/Desktop

> <s_m_entry_id>
582

> <s_m_entry_name>
wee1_decoys_glide_SP.307

> <s_m_subgroup_title>
wee1_decoys_glide_SP

> <s_m_subgroupid>
wee1_decoys_glide_SP


$$$$
