@<TRIPOS>MOLECULE
ZINC11782799_5228
63   67    1
SMALL
USER_CHARGES


@<TRIPOS>ATOM
      1 C1          0.8209   50.6744   27.2824 C.3       1 UNK         0.0000 
      2 O2          0.1779   51.4800   26.3050 O.3       1 UNK         0.0000 
      3 C3         -0.7489   50.8057   25.4443 C.3       1 UNK         0.0000 
      4 H4         -0.2432   49.8995   25.1092 H         1 UNK         0.0000 
      5 C5         -2.0448   50.5064   26.2354 C.3       1 UNK         0.0000 
      6 H6         -1.8630   50.6360   27.3019 H         1 UNK         0.0000 
      7 C7         -3.0098   51.6047   25.8365 C.ar      1 UNK         0.0000 
      8 C8         -4.2387   51.9519   26.4036 C.ar      1 UNK         0.0000 
      9 C9         -4.9833   52.9989   25.8596 C.ar      1 UNK         0.0000 
     10 C10        -4.5100   53.6826   24.7395 C.ar      1 UNK         0.0000 
     11 C11        -3.2951   53.3156   24.1596 C.ar      1 UNK         0.0000 
     12 C12        -2.5243   52.2978   24.7240 C.ar      1 UNK         0.0000 
     13 C13        -1.1703   51.7537   24.2808 C.3       1 UNK         0.0000 
     14 C14        -0.1205   52.8670   24.0007 C.3       1 UNK         0.0000 
     15 C15         1.2441   52.3298   23.5219 C.3       1 UNK         0.0000 
     16 C16         0.0016   50.3662   22.4208 C.3       1 UNK         0.0000 
     17 C17        -1.3157   50.9921   22.9299 C.3       1 UNK         0.0000 
     18 C18         2.3652   50.9947   21.6520 C.3       1 UNK         0.0000 
     19 C19         3.0862   52.0335   20.8065 C.ar      1 UNK         0.0000 
     20 C20         4.0109   52.9148   21.3832 C.ar      1 UNK         0.0000 
     21 C21         4.6768   53.8519   20.5922 C.ar      1 UNK         0.0000 
     22 C22         4.4299   53.9107   19.2215 C.ar      1 UNK         0.0000 
     23 C23         3.5068   53.0398   18.6416 C.ar      1 UNK         0.0000 
     24 C24         2.8332   52.1074   19.4300 C.ar      1 UNK         0.0000 
     25 F25         1.9257   51.2824   18.8583 F         1 UNK         0.0000 
     26 F26         5.5585   54.7066   21.1575 F         1 UNK         0.0000 
     27 N27        -2.5137   49.1221   26.0817 N.am      1 UNK         0.0000 
     28 C28        -3.3302   48.5858   25.1600 C.2       1 UNK         0.0000 
     29 O29        -3.9193   49.2406   24.3001 O.2       1 UNK         0.0000 
     30 C30        -3.4919   47.0640   25.2089 C.3       1 UNK         0.0000 
     31 C31        -3.3718   46.4349   23.8341 C.2       1 UNK         0.0000 
     32 C32        -2.2653   46.3811   22.9857 C.2       1 UNK         0.0000 
     33 C33        -2.4947   45.7147   21.7791 C.2       1 UNK         0.0000 
     34 C34        -3.7920   45.2479   21.6753 C.2       1 UNK         0.0000 
     35 S35        -4.7296   45.6513   23.0725 S.3       1 UNK         0.0000 
     36 H36         1.6964   51.1950   27.6704 H         1 UNK         0.0000 
     37 H37         0.1591   50.4968   28.1280 H         1 UNK         0.0000 
     38 H38         1.1484   49.7136   26.8819 H         1 UNK         0.0000 
     39 H39        -4.6199   51.4096   27.2572 H         1 UNK         0.0000 
     40 H40        -5.9326   53.2705   26.2984 H         1 UNK         0.0000 
     41 H41        -5.0899   54.4884   24.3100 H         1 UNK         0.0000 
     42 H42        -2.9495   53.8372   23.2832 H         1 UNK         0.0000 
     43 H43        -0.5178   53.5694   23.2817 H         1 UNK         0.0000 
     44 H44         0.0254   53.4844   24.8817 H         1 UNK         0.0000 
     45 H45         1.7355   51.6832   24.2512 H         1 UNK         0.0000 
     46 H46         1.8983   53.1639   23.2636 H         1 UNK         0.0000 
     47 H47         0.4447   49.6199   23.0815 H         1 UNK         0.0000 
     48 H48        -0.1613   49.9268   21.4342 H         1 UNK         0.0000 
     49 H49        -2.0867   50.2270   22.9946 H         1 UNK         0.0000 
     50 H50        -1.6908   51.6759   22.1664 H         1 UNK         0.0000 
     51 H51         2.9700   50.6280   22.4818 H         1 UNK         0.0000 
     52 H52         2.1214   50.1269   21.0345 H         1 UNK         0.0000 
     53 H53         4.2177   52.8966   22.4427 H         1 UNK         0.0000 
     54 H54         4.9524   54.6307   18.6105 H         1 UNK         0.0000 
     55 H55         3.3147   53.0780   17.5795 H         1 UNK         0.0000 
     56 H56        -2.1533   48.5013   26.8091 H         1 UNK         0.0000 
     57 H57        -4.4503   46.8438   25.6799 H         1 UNK         0.0000 
     58 H58        -2.7291   46.6457   25.8681 H         1 UNK         0.0000 
     59 H59        -1.3140   46.8272   23.2406 H         1 UNK         0.0000 
     60 H60        -1.7440   45.5870   21.0124 H         1 UNK         0.0000 
     61 H61        -4.2441   44.7123   20.8530 H         1 UNK         0.0000 
     62 N62         1.0238   51.5129   22.2242 N.4       1 UNK         0.0000 
     63 H63         0.6359   52.1436   21.5349 H         1 UNK         0.0000 
@<TRIPOS>BOND
     1    1    2 1    
     2    1   36 1    
     3    1   37 1    
     4    1   38 1    
     5    2    3 1    
     6    3    4 1    
     7    3   13 1    
     8    3    5 1    
     9    5    6 1    
    10    5    7 1    
    11    5   27 1    
    12    7   12 ar   
    13    7    8 ar   
    14    8    9 ar   
    15    8   39 1    
    16    9   10 ar   
    17    9   40 1    
    18   10   11 ar   
    19   10   41 1    
    20   11   12 ar   
    21   11   42 1    
    22   12   13 1    
    23   13   17 1    
    24   13   14 1    
    25   14   15 1    
    26   14   43 1    
    27   14   44 1    
    28   15   45 1    
    29   15   46 1    
    30   15   62 1    
    31   16   17 1    
    32   16   47 1    
    33   16   48 1    
    34   16   62 1    
    35   17   49 1    
    36   17   50 1    
    37   18   19 1    
    38   18   51 1    
    39   18   52 1    
    40   18   62 1    
    41   19   24 ar   
    42   19   20 ar   
    43   20   21 ar   
    44   20   53 1    
    45   21   22 ar   
    46   21   26 1    
    47   22   23 ar   
    48   22   54 1    
    49   23   24 ar   
    50   23   55 1    
    51   24   25 1    
    52   27   28 am   BACKBONE|DICT|INTERRES
    53   27   56 1    
    54   28   29 2    
    55   28   30 1    
    56   30   31 1    
    57   30   57 1    
    58   30   58 1    
    59   31   35 1    
    60   31   32 2    
    61   32   33 1    
    62   32   59 1    
    63   33   34 2    
    64   33   60 1    
    65   34   35 1    
    66   34   61 1    
    67   62   63 1    
@<TRIPOS>SUBSTRUCTURE
     1 UNK         1 GROUP             0       ****    0 ROOT    
