@<TRIPOS>MOLECULE
ZINC33219318_732
49   51    1
SMALL
USER_CHARGES


@<TRIPOS>ATOM
      1 C1          3.5928   53.3974   28.4514 C.3       1 UNK         0.0000 
      2 C2          2.4405   52.9434   27.5663 C.ar      1 UNK         0.0000 
      3 C3          1.4369   52.1491   28.1281 C.ar      1 UNK         0.0000 
      4 C4          0.3741   51.7000   27.3507 C.ar      1 UNK         0.0000 
      5 C5          0.3070   52.0492   26.0058 C.ar      1 UNK         0.0000 
      6 C6          1.3050   52.8353   25.4120 C.ar      1 UNK         0.0000 
      7 C7          2.3832   53.2949   26.2036 C.ar      1 UNK         0.0000 
      8 I8          3.9344   54.4683   25.3834 I         1 UNK         0.0000 
      9 C9          1.1742   53.2055   23.9526 C.2       1 UNK         0.0000 
     10 O10         1.1056   54.4048   23.6802 O.2       1 UNK         0.0000 
     11 N11         1.0769   52.2286   23.0005 N.am      1 UNK         0.0000 
     12 C12         1.2198   50.7747   23.2691 C.3       1 UNK         0.0000 
     13 C13         2.1295   50.1158   22.1958 C.3       1 UNK         0.0000 
     14 N14         1.6545   50.4943   20.7712 N.4       1 UNK         0.0000 
     15 C15         1.7234   52.0243   20.6357 C.3       1 UNK         0.0000 
     16 C16         0.7121   52.6211   21.6203 C.3       1 UNK         0.0000 
     17 C17         2.4919   49.8143   19.6524 C.3       1 UNK         0.0000 
     18 C18         1.8684   48.4680   19.2624 C.2       1 UNK         0.0000 
     19 O19         1.0479   47.9307   20.0076 O.2       1 UNK         0.0000 
     20 N20         2.2841   47.9661   18.0813 N.am      1 UNK         0.0000 
     21 C21         1.8231   46.8328   17.3822 C.ar      1 UNK         0.0000 
     22 C22         0.7063   46.0628   17.7550 C.ar      1 UNK         0.0000 
     23 C23         0.3312   44.9614   16.9908 C.ar      1 UNK         0.0000 
     24 C24         1.0573   44.6303   15.8521 C.ar      1 UNK         0.0000 
     25 C25         2.1558   45.3948   15.4658 C.ar      1 UNK         0.0000 
     26 C26         2.5384   46.4949   16.2292 C.ar      1 UNK         0.0000 
     27 F27         0.6933   43.5580   15.1135 F         1 UNK         0.0000 
     28 H28         3.4952   53.0402   29.4774 H         1 UNK         0.0000 
     29 H29         4.5419   53.0293   28.0570 H         1 UNK         0.0000 
     30 H30         3.6475   54.4870   28.4744 H         1 UNK         0.0000 
     31 H31         1.4764   51.8708   29.1718 H         1 UNK         0.0000 
     32 H32        -0.3978   51.0840   27.7941 H         1 UNK         0.0000 
     33 H33        -0.5357   51.6967   25.4270 H         1 UNK         0.0000 
     34 H34         0.2426   50.2879   23.2590 H         1 UNK         0.0000 
     35 H35         1.6808   50.5936   24.2414 H         1 UNK         0.0000 
     36 H36         2.0570   49.0289   22.2687 H         1 UNK         0.0000 
     37 H37         3.1747   50.4025   22.3052 H         1 UNK         0.0000 
     38 H38         2.7509   52.3687   20.7886 H         1 UNK         0.0000 
     39 H39         1.4134   52.2738   19.6183 H         1 UNK         0.0000 
     40 H40         0.7176   53.6968   21.4721 H         1 UNK         0.0000 
     41 H41        -0.2926   52.2647   21.3888 H         1 UNK         0.0000 
     42 H42         3.5051   49.7070   20.0163 H         1 UNK         0.0000 
     43 H43         2.5106   50.4746   18.7815 H         1 UNK         0.0000 
     44 H44         3.0140   48.4865   17.5839 H         1 UNK         0.0000 
     45 H45         0.1072   46.2930   18.6209 H         1 UNK         0.0000 
     46 H46        -0.5264   44.3666   17.2739 H         1 UNK         0.0000 
     47 H47         2.7042   45.1306   14.5756 H         1 UNK         0.0000 
     48 H48         3.3959   47.0800   15.9198 H         1 UNK         0.0000 
     49 H49         0.6963   50.1962   20.6332 H         1 UNK         0.0000 
@<TRIPOS>BOND
     1    1    2 1    
     2    1   28 1    
     3    1   29 1    
     4    1   30 1    
     5    2    7 ar   
     6    2    3 ar   
     7    3    4 ar   
     8    3   31 1    
     9    4    5 ar   
    10    4   32 1    
    11    5    6 ar   
    12    5   33 1    
    13    6    7 ar   
    14    6    9 1    
    15    7    8 1    
    16    9   10 2    
    17    9   11 am   BACKBONE|DICT|INTERRES
    18   11   16 1    
    19   11   12 1    
    20   12   13 1    
    21   12   34 1    
    22   12   35 1    
    23   13   14 1    
    24   13   36 1    
    25   13   37 1    
    26   14   15 1    
    27   14   17 1    
    28   14   49 1    
    29   15   16 1    
    30   15   38 1    
    31   15   39 1    
    32   16   40 1    
    33   16   41 1    
    34   17   18 1    
    35   17   42 1    
    36   17   43 1    
    37   18   19 2    
    38   18   20 am   BACKBONE|DICT|INTERRES
    39   20   21 1    
    40   20   44 1    
    41   21   26 ar   
    42   21   22 ar   
    43   22   23 ar   
    44   22   45 1    
    45   23   24 ar   
    46   23   46 1    
    47   24   25 ar   
    48   24   27 1    
    49   25   26 ar   
    50   25   47 1    
    51   26   48 1    
@<TRIPOS>SUBSTRUCTURE
     1 UNK         1 GROUP             0       ****    0 ROOT    
