@<TRIPOS>MOLECULE
ZINC08645049_3603
47   49    1
SMALL
USER_CHARGES


@<TRIPOS>ATOM
      1 C1          6.6840   54.6373   27.3074 C.3       1 UNK         0.0000 
      2 C2          5.4404   53.9738   26.6735 C.3       1 UNK         0.0000 
      3 H3          5.5904   52.8961   26.7594 H         1 UNK         0.0000 
      4 C4          5.2965   54.1775   25.1502 C.ar      1 UNK         0.0000 
      5 C5          4.0399   54.0753   24.5305 C.ar      1 UNK         0.0000 
      6 C6          3.9238   54.1373   23.1434 C.ar      1 UNK         0.0000 
      7 C7          5.0591   54.3456   22.3653 C.ar      1 UNK         0.0000 
      8 C8          6.3047   54.4968   22.9641 C.ar      1 UNK         0.0000 
      9 C9          6.4242   54.4112   24.3481 C.ar      1 UNK         0.0000 
     10 F10         4.9508   54.4175   21.0203 F         1 UNK         0.0000 
     11 N11         4.2200   54.2663   27.4367 N.am      1 UNK         0.0000 
     12 C12         3.9276   53.7681   28.6535 C.2       1 UNK         0.0000 
     13 O13         4.7035   53.0426   29.2775 O.2       1 UNK         0.0000 
     14 C14         2.5671   54.1076   29.2938 C.3       1 UNK         0.0000 
     15 H15         2.8298   54.5152   30.2662 H         1 UNK         0.0000 
     16 C16         1.7475   55.2261   28.6041 C.3       1 UNK         0.0000 
     17 S17         1.6266   52.5776   29.6609 S.3       1 UNK         0.0000 
     18 C18         0.8947   52.2432   28.0858 C.ar      1 UNK         0.0000 
     19 N19         1.5041   52.3640   26.9343 N.2       1 UNK         0.0000 
     20 N20         0.5756   52.0958   25.9395 N.2       1 UNK         0.0000 
     21 C21        -0.5736   51.8323   26.5175 C.ar      1 UNK         0.0000 
     22 N22        -0.4190   51.8879   27.8922 N.pl3     1 UNK         0.0000 
     23 N23        -1.3617   51.6957   28.8821 N.3       1 UNK         0.0000 
     24 C24        -1.8317   51.4931   25.7603 C.ar      1 UNK         0.0000 
     25 C25        -2.6941   50.5230   26.2959 C.ar      1 UNK         0.0000 
     26 C26        -3.8551   50.1390   25.6298 C.ar      1 UNK         0.0000 
     27 C27        -4.1720   50.7106   24.4013 C.ar      1 UNK         0.0000 
     28 C28        -3.3281   51.6678   23.8453 C.ar      1 UNK         0.0000 
     29 C29        -2.1707   52.0690   24.5159 C.ar      1 UNK         0.0000 
     30 Cl30       -1.2132   53.2964   23.7609 Cl        1 UNK         0.0000 
     31 Cl31       -5.6041   50.2335   23.5656 Cl        1 UNK         0.0000 
     32 H32         7.6066   54.1988   26.9332 H         1 UNK         0.0000 
     33 H33         6.7040   55.7077   27.1158 H         1 UNK         0.0000 
     34 H34         6.7098   54.4968   28.3892 H         1 UNK         0.0000 
     35 H35         3.1490   53.8826   25.1094 H         1 UNK         0.0000 
     36 H36         2.9602   54.0291   22.6676 H         1 UNK         0.0000 
     37 H37         7.1824   54.6652   22.3558 H         1 UNK         0.0000 
     38 H38         7.4134   54.4969   24.7702 H         1 UNK         0.0000 
     39 H39         3.5311   54.8348   26.9714 H         1 UNK         0.0000 
     40 H40         2.3270   56.1410   28.4821 H         1 UNK         0.0000 
     41 H41         1.3822   54.9240   27.6233 H         1 UNK         0.0000 
     42 H42         0.8765   55.4840   29.2061 H         1 UNK         0.0000 
     43 H43        -1.2828   50.7699   29.2900 H         1 UNK         0.0000 
     44 H44        -1.3023   52.4215   29.5798 H         1 UNK         0.0000 
     45 H45        -2.4620   50.0382   27.2321 H         1 UNK         0.0000 
     46 H46        -4.4992   49.3890   26.0637 H         1 UNK         0.0000 
     47 H47        -3.5720   52.0987   22.8858 H         1 UNK         0.0000 
@<TRIPOS>BOND
     1    1    2 1    
     2    1   32 1    
     3    1   33 1    
     4    1   34 1    
     5    2    3 1    
     6    2    4 1    
     7    2   11 1    
     8    4    9 ar   
     9    4    5 ar   
    10    5    6 ar   
    11    5   35 1    
    12    6    7 ar   
    13    6   36 1    
    14    7    8 ar   
    15    7   10 1    
    16    8    9 ar   
    17    8   37 1    
    18    9   38 1    
    19   11   12 am   BACKBONE|DICT|INTERRES
    20   11   39 1    
    21   12   13 2    
    22   12   14 1    
    23   14   15 1    
    24   14   16 1    
    25   14   17 1    
    26   16   40 1    
    27   16   41 1    
    28   16   42 1    
    29   17   18 1    
    30   18   22 ar   
    31   18   19 ar   
    32   19   20 ar   
    33   20   21 ar   
    34   21   22 ar   
    35   21   24 1    
    36   22   23 1    
    37   23   43 1    
    38   23   44 1    
    39   24   29 ar   
    40   24   25 ar   
    41   25   26 ar   
    42   25   45 1    
    43   26   27 ar   
    44   26   46 1    
    45   27   28 ar   
    46   27   31 1    
    47   28   29 ar   
    48   28   47 1    
    49   29   30 1    
@<TRIPOS>SUBSTRUCTURE
     1 UNK         1 GROUP             0       ****    0 ROOT    
