ZINC59041396_1765
                    3D
 Schrodinger Suite 2024-2.
 39 40  0  0  1  0            999 V2000
   -4.0390   51.4732   26.6964 C   0  0  0  0  0  0
   -2.6299   51.2343   26.2045 C   0  0  0  0  0  0
   -1.9775   52.0824   25.5188 N   0  0  0  0  0  0
   -0.6831   51.5042   25.2330 C   0  0  2  0  0  0
   -0.6592   50.2038   25.9691 C   0  0  0  0  0  0
   -1.8664   50.0968   26.4817 N   0  3  0  0  0  0
    0.3043   49.2934   26.0758 N   0  0  0  0  0  0
    0.4581   52.3969   25.5354 N   0  0  0  0  0  0
    1.4538   52.2714   24.4658 C   0  0  0  0  0  0
    1.0200   52.3550   26.9094 C   0  0  1  0  0  0
    2.3049   53.2176   27.1257 C   0  0  0  0  0  0
    2.8749   53.1386   28.5590 C   0  0  0  0  0  0
    1.8316   53.5245   29.6268 C   0  0  2  0  0  0
    0.6101   52.5996   29.4654 C   0  0  0  0  0  0
    0.0020   52.6707   28.0481 C   0  0  0  0  0  0
    1.4696   55.0266   29.6090 C   0  0  0  0  0  0
   -4.6594   50.5904   26.5394 H   0  0  0  0  0  0
   -4.5102   52.3095   26.1771 H   0  0  0  0  0  0
   -4.0407   51.6977   27.7643 H   0  0  0  0  0  0
    0.1370   48.4613   26.6361 H   0  0  0  0  0  0
    1.1871   49.4110   25.6001 H   0  0  0  0  0  0
    0.9936   52.3985   23.4845 H   0  0  0  0  0  0
    2.2193   53.0442   24.5249 H   0  0  0  0  0  0
    1.9379   51.2965   24.4809 H   0  0  0  0  0  0
    1.3502   51.3370   27.1150 H   0  0  0  0  0  0
    3.1034   52.8965   26.4583 H   0  0  0  0  0  0
    2.0890   54.2585   26.8830 H   0  0  0  0  0  0
    3.2399   52.1263   28.7447 H   0  0  0  0  0  0
    3.7440   53.7940   28.6336 H   0  0  0  0  0  0
    2.2720   53.2956   30.5975 H   0  0  0  0  0  0
   -0.1573   52.8605   30.1976 H   0  0  0  0  0  0
    0.8941   51.5681   29.6813 H   0  0  0  0  0  0
   -0.4301   53.6596   27.8949 H   0  0  0  0  0  0
   -0.8207   51.9647   28.0398 H   0  0  0  0  0  0
    1.0266   55.3387   28.6639 H   0  0  0  0  0  0
    0.7556   55.2682   30.3981 H   0  0  0  0  0  0
    2.3528   55.6450   29.7722 H   0  0  0  0  0  0
   -0.7190   51.2662   24.1650 H   0  0  0  0  0  0
   -2.1189   49.3175   27.0889 H   0  0  0  0  0  0
  1 17  1  0  0  0
  1 18  1  0  0  0
  1 19  1  0  0  0
  1  2  1  0  0  0
  2  3  2  0  0  0
  2  6  1  0  0  0
  3  4  1  0  0  0
  4  8  1  0  0  0
  4 38  1  0  0  0
  4  5  1  0  0  0
  5  6  2  0  0  0
  5  7  1  0  0  0
  6 39  1  0  0  0
  7 20  1  0  0  0
  7 21  1  0  0  0
  8  9  1  0  0  0
  8 10  1  0  0  0
  9 22  1  0  0  0
  9 23  1  0  0  0
  9 24  1  0  0  0
 10 15  1  0  0  0
 10 11  1  0  0  0
 10 25  1  0  0  0
 11 12  1  0  0  0
 11 26  1  0  0  0
 11 27  1  0  0  0
 12 13  1  0  0  0
 12 28  1  0  0  0
 12 29  1  0  0  0
 13 14  1  0  0  0
 13 16  1  0  0  0
 13 30  1  0  0  0
 14 15  1  0  0  0
 14 31  1  0  0  0
 14 32  1  0  0  0
 15 33  1  0  0  0
 15 34  1  0  0  0
 16 35  1  0  0  0
 16 36  1  0  0  0
 16 37  1  0  0  0
M  CHG  1   6   1
M  END
> <i_i_glide_confnum>
20

> <i_i_glide_lignum>
1766

> <i_i_glide_posenum>
320

> <i_i_glide_rotatable_bonds>
2

> <i_m_Source_File_Index>
5452

> <b_m_subgroup_collapsed>
0

> <r_i_docking_score>
-4.46371

> <r_i_glide_ecoul>
-5.0118

> <r_i_glide_eff_state_penalty>
0

> <r_i_glide_einternal>
6.76944

> <r_i_glide_emodel>
-25.4987

> <r_i_glide_energy>
-20.231

> <r_i_glide_erotb>
0.678543

> <r_i_glide_esite>
-0.299152

> <r_i_glide_evdw>
-15.2192

> <r_i_glide_gscore>
-4.46371

> <r_i_glide_hbond>
-0.186118

> <r_i_glide_ligand_efficiency>
-0.278982

> <r_i_glide_ligand_efficiency_ln>
-1.1832

> <r_i_glide_ligand_efficiency_sa>
-0.702991

> <r_i_glide_lipo>
-1.25792

> <r_i_glide_metal>
0

> <r_i_glide_rewards>
-1.88633

> <s_i_glide_gridfile>
wee1_glide-grid

> <s_m_Source_File>
wee1_decoys_glide_SP.sdf

> <s_m_Source_Path>
/Users/zhangxujun/Desktop

> <s_m_entry_id>
5727

> <s_m_entry_name>
wee1_decoys_glide_SP.5452

> <s_m_subgroup_title>
wee1_decoys_glide_SP

> <s_m_subgroupid>
wee1_decoys_glide_SP


$$$$
