@<TRIPOS>MOLECULE
ZINC39676577_3080
74   77    1
SMALL
USER_CHARGES


@<TRIPOS>ATOM
      1 C1          1.8547   48.4324   19.2907 C.3       1 UNK         0.0000 
      2 O2          1.6529   49.1438   20.5118 O.3       1 UNK         0.0000 
      3 C3          2.2745   50.3670   20.6784 C.ar      1 UNK         0.0000 
      4 C4          3.0018   51.0233   19.6817 C.ar      1 UNK         0.0000 
      5 C5          3.6547   52.2225   19.9490 C.ar      1 UNK         0.0000 
      6 C6          3.5982   52.8152   21.2216 C.ar      1 UNK         0.0000 
      7 C7          2.8084   52.1773   22.1943 C.ar      1 UNK         0.0000 
      8 C8          2.1665   50.9690   21.9266 C.ar      1 UNK         0.0000 
      9 C9          4.3946   54.1133   21.5440 C.3       1 UNK         0.0000 
     10 C10         4.9408   54.2006   22.9939 C.ar      1 UNK         0.0000 
     11 C11         4.0752   54.4966   24.0574 C.ar      1 UNK         0.0000 
     12 C12         4.5519   54.5993   25.3653 C.ar      1 UNK         0.0000 
     13 C13         5.9235   54.4767   25.6239 C.ar      1 UNK         0.0000 
     14 C14         6.7879   54.2597   24.5587 C.ar      1 UNK         0.0000 
     15 C15         6.3093   54.1103   23.2662 C.ar      1 UNK         0.0000 
     16 O16         6.5068   54.5662   26.8721 O.3       1 UNK         0.0000 
     17 C17         5.6762   54.4640   28.0233 C.3       1 UNK         0.0000 
     18 N18         5.3788   54.4152   20.4769 N.am      1 UNK         0.0000 
     19 C19         6.2040   55.4696   20.2905 C.2       1 UNK         0.0000 
     20 O20         6.3044   56.3990   21.0859 O.2       1 UNK         0.0000 
     21 C21         7.0521   55.5319   18.9875 C.3       1 UNK         0.0000 
     22 H22         8.0391   55.8891   19.2851 H         1 UNK         0.0000 
     23 C23         7.3089   54.1159   18.4068 C.3       1 UNK         0.0000 
     24 N24         7.4881   54.3741   16.9796 N.am      1 UNK         0.0000 
     25 C25         7.1261   55.7346   16.5985 C.3       1 UNK         0.0000 
     26 C26         6.4408   56.3740   17.8279 C.3       1 UNK         0.0000 
     27 C27         4.8830   56.2814   17.7216 C.3       1 UNK         0.0000 
     28 C28         4.3166   57.0348   16.4911 C.3       1 UNK         0.0000 
     29 N29         4.8258   58.4971   16.4985 N.4       1 UNK         0.0000 
     30 C30         6.3541   58.6328   16.6818 C.3       1 UNK         0.0000 
     31 C31         6.7436   57.8812   17.9700 C.3       1 UNK         0.0000 
     32 C32         8.0814   53.5329   16.0976 C.2       1 UNK         0.0000 
     33 O33         8.2441   53.8524   14.9172 O.2       1 UNK         0.0000 
     34 C34         8.5475   52.1413   16.5724 C.3       1 UNK         0.0000 
     35 C35         9.1975   51.2564   15.4806 C.3       1 UNK         0.0000 
     36 S36        10.3024   49.9519   16.0864 S.3       1 UNK         0.0000 
     37 C37        10.8439   49.2516   14.4990 C.3       1 UNK         0.0000 
     38 H38         1.3655   47.4626   19.3521 H         1 UNK         0.0000 
     39 H39         1.4268   48.9667   18.4419 H         1 UNK         0.0000 
     40 H40         2.9148   48.2530   19.0996 H         1 UNK         0.0000 
     41 H41         3.1042   50.6023   18.6906 H         1 UNK         0.0000 
     42 H42         4.2175   52.6581   19.1383 H         1 UNK         0.0000 
     43 H43         2.6992   52.5729   23.1879 H         1 UNK         0.0000 
     44 H44         1.5986   50.4759   22.7011 H         1 UNK         0.0000 
     45 H45         3.6410   54.8963   21.4596 H         1 UNK         0.0000 
     46 H46         3.0190   54.6403   23.8694 H         1 UNK         0.0000 
     47 H47         3.8462   54.7943   26.1583 H         1 UNK         0.0000 
     48 H48         7.8506   54.2033   24.7299 H         1 UNK         0.0000 
     49 H49         7.0337   53.9670   22.4817 H         1 UNK         0.0000 
     50 H50         6.2999   54.4906   28.9149 H         1 UNK         0.0000 
     51 H51         4.9708   55.2878   28.0923 H         1 UNK         0.0000 
     52 H52         5.1246   53.5241   28.0336 H         1 UNK         0.0000 
     53 H53         5.3221   53.7728   19.7033 H         1 UNK         0.0000 
     54 H54         6.4315   53.4718   18.4707 H         1 UNK         0.0000 
     55 H55         8.1990   53.6971   18.8733 H         1 UNK         0.0000 
     56 H56         8.0776   56.2491   16.4504 H         1 UNK         0.0000 
     57 H57         6.5895   55.8397   15.6572 H         1 UNK         0.0000 
     58 H58         4.5878   55.2342   17.6342 H         1 UNK         0.0000 
     59 H59         4.3951   56.6430   18.6266 H         1 UNK         0.0000 
     60 H60         4.6172   56.6037   15.5360 H         1 UNK         0.0000 
     61 H61         3.2261   57.0956   16.5109 H         1 UNK         0.0000 
     62 H62         4.5463   58.9843   15.6549 H         1 UNK         0.0000 
     63 H63         6.8211   58.2441   15.7757 H         1 UNK         0.0000 
     64 H64         6.5656   59.6967   16.7416 H         1 UNK         0.0000 
     65 H65         6.2798   58.3148   18.8584 H         1 UNK         0.0000 
     66 H66         7.8170   58.0227   18.1025 H         1 UNK         0.0000 
     67 H67         7.8183   51.5849   17.1614 H         1 UNK         0.0000 
     68 H68         9.3436   52.3551   17.2878 H         1 UNK         0.0000 
     69 H69         9.7817   51.8642   14.7869 H         1 UNK         0.0000 
     70 H70         8.4155   50.8032   14.8702 H         1 UNK         0.0000 
     71 H71        11.6018   48.4876   14.6615 H         1 UNK         0.0000 
     72 H72        11.2755   50.0194   13.8551 H         1 UNK         0.0000 
     73 H73        10.0017   48.7951   13.9768 H         1 UNK         0.0000 
     74 H74         4.3828   59.0172   17.2439 H         1 UNK         0.0000 
@<TRIPOS>BOND
     1    1    2 1    
     2    1   38 1    
     3    1   39 1    
     4    1   40 1    
     5    2    3 1    
     6    3    8 ar   
     7    3    4 ar   
     8    4    5 ar   
     9    4   41 1    
    10    5    6 ar   
    11    5   42 1    
    12    6    7 ar   
    13    6    9 1    
    14    7    8 ar   
    15    7   43 1    
    16    8   44 1    
    17    9   10 1    
    18    9   18 1    
    19    9   45 1    
    20   10   15 ar   
    21   10   11 ar   
    22   11   12 ar   
    23   11   46 1    
    24   12   13 ar   
    25   12   47 1    
    26   13   14 ar   
    27   13   16 1    
    28   14   15 ar   
    29   14   48 1    
    30   15   49 1    
    31   16   17 1    
    32   17   50 1    
    33   17   51 1    
    34   17   52 1    
    35   18   19 am   BACKBONE|DICT|INTERRES
    36   18   53 1    
    37   19   20 2    
    38   19   21 1    
    39   21   22 1    
    40   21   26 1    
    41   21   23 1    
    42   23   24 1    
    43   23   54 1    
    44   23   55 1    
    45   24   25 1    
    46   24   32 am   BACKBONE|DICT|INTERRES
    47   25   26 1    
    48   25   56 1    
    49   25   57 1    
    50   26   31 1    
    51   26   27 1    
    52   27   28 1    
    53   27   58 1    
    54   27   59 1    
    55   28   29 1    
    56   28   60 1    
    57   28   61 1    
    58   29   30 1    
    59   29   62 1    
    60   29   74 1    
    61   30   31 1    
    62   30   63 1    
    63   30   64 1    
    64   31   65 1    
    65   31   66 1    
    66   32   33 2    
    67   32   34 1    
    68   34   35 1    
    69   34   67 1    
    70   34   68 1    
    71   35   36 1    
    72   35   69 1    
    73   35   70 1    
    74   36   37 1    
    75   37   71 1    
    76   37   72 1    
    77   37   73 1    
@<TRIPOS>SUBSTRUCTURE
     1 UNK         1 GROUP             0       ****    0 ROOT    
