@<TRIPOS>MOLECULE
ZINC00465328_4668
39   41    1
SMALL
USER_CHARGES


@<TRIPOS>ATOM
      1 C1          3.4114   52.7608   20.5766 C.3       1 UNK         0.0000 
      2 C2          3.8436   53.3582   21.9044 C.ar      1 UNK         0.0000 
      3 C3          2.9021   53.9578   22.7371 C.ar      1 UNK         0.0000 
      4 C4          3.3033   54.4966   23.9543 C.ar      1 UNK         0.0000 
      5 C5          4.6414   54.4485   24.3650 C.ar      1 UNK         0.0000 
      6 C6          5.5795   53.8405   23.5174 C.ar      1 UNK         0.0000 
      7 C7          5.1781   53.2964   22.3012 C.ar      1 UNK         0.0000 
      8 C8          5.0356   55.0986   25.7137 C.3       1 UNK         0.0000 
      9 H9          4.6976   56.1306   25.6811 H         1 UNK         0.0000 
     10 C10         4.4680   54.5039   27.0267 C.3       1 UNK         0.0000 
     11 H11         4.2951   55.2967   27.7543 H         1 UNK         0.0000 
     12 C12         5.6519   53.6963   27.5547 C.2       1 UNK         0.0000 
     13 O13         5.6150   52.8964   28.4818 O.2       1 UNK         0.0000 
     14 N14         6.7036   54.0561   26.8139 N.am      1 UNK         0.0000 
     15 N15         6.4656   55.1349   25.9687 N.3       1 UNK         0.0000 
     16 N16         3.2815   53.6558   26.8564 N.am      1 UNK         0.0000 
     17 C17         2.2663   53.5231   27.7327 C.2       1 UNK         0.0000 
     18 O18         2.2586   54.0736   28.8365 O.2       1 UNK         0.0000 
     19 C19         1.1048   52.6636   27.2835 C.ar      1 UNK         0.0000 
     20 C20         0.2357   52.1127   28.2376 C.ar      1 UNK         0.0000 
     21 C21        -0.8700   51.3648   27.8352 C.ar      1 UNK         0.0000 
     22 C22        -1.1184   51.1678   26.4798 C.ar      1 UNK         0.0000 
     23 C23        -0.2599   51.6972   25.5221 C.ar      1 UNK         0.0000 
     24 C24         0.8464   52.4400   25.9201 C.ar      1 UNK         0.0000 
     25 F25        -2.2063   50.4692   26.0850 F         1 UNK         0.0000 
     26 H26         2.4311   52.2931   20.6677 H         1 UNK         0.0000 
     27 H27         3.3486   53.5365   19.8119 H         1 UNK         0.0000 
     28 H28         4.0998   51.9845   20.2374 H         1 UNK         0.0000 
     29 H29         1.8657   54.0205   22.4350 H         1 UNK         0.0000 
     30 H30         2.5644   54.9804   24.5708 H         1 UNK         0.0000 
     31 H31         6.6227   53.7651   23.7856 H         1 UNK         0.0000 
     32 H32         5.9042   52.8104   21.6732 H         1 UNK         0.0000 
     33 H33         7.6676   53.7752   26.9189 H         1 UNK         0.0000 
     34 H34         6.9354   54.9211   25.0988 H         1 UNK         0.0000 
     35 H35         3.2673   53.1041   26.0116 H         1 UNK         0.0000 
     36 H36         0.4046   52.2650   29.2951 H         1 UNK         0.0000 
     37 H37        -1.5337   50.9304   28.5700 H         1 UNK         0.0000 
     38 H38        -0.4580   51.5373   24.4728 H         1 UNK         0.0000 
     39 H39         1.4805   52.8490   25.1488 H         1 UNK         0.0000 
@<TRIPOS>BOND
     1    1    2 1    
     2    1   26 1    
     3    1   27 1    
     4    1   28 1    
     5    2    7 ar   
     6    2    3 ar   
     7    3    4 ar   
     8    3   29 1    
     9    4    5 ar   
    10    4   30 1    
    11    5    6 ar   
    12    5    8 1    
    13    6    7 ar   
    14    6   31 1    
    15    7   32 1    
    16    8    9 1    
    17    8   15 1    
    18    8   10 1    
    19   10   11 1    
    20   10   12 1    
    21   10   16 1    
    22   12   13 2    
    23   12   14 am   BACKBONE|DICT|INTERRES
    24   14   15 1    
    25   14   33 1    
    26   15   34 1    
    27   16   17 am   BACKBONE|DICT|INTERRES
    28   16   35 1    
    29   17   18 2    
    30   17   19 1    
    31   19   24 ar   
    32   19   20 ar   
    33   20   21 ar   
    34   20   36 1    
    35   21   22 ar   
    36   21   37 1    
    37   22   23 ar   
    38   22   25 1    
    39   23   24 ar   
    40   23   38 1    
    41   24   39 1    
@<TRIPOS>SUBSTRUCTURE
     1 UNK         1 GROUP             0       ****    0 ROOT    
