@<TRIPOS>MOLECULE
ZINC65074669_151
61   64    1
SMALL
USER_CHARGES


@<TRIPOS>ATOM
      1 C1         -0.1506   51.7141   27.9651 C.3       1 UNK         0.0000 
      2 C2         -0.3795   51.1272   26.5846 C.ar      1 UNK         0.0000 
      3 C3          0.3042   49.9713   26.2039 C.ar      1 UNK         0.0000 
      4 C4          0.0664   49.3946   24.9618 C.ar      1 UNK         0.0000 
      5 C5         -0.8584   49.9811   24.0960 C.ar      1 UNK         0.0000 
      6 C6         -1.5180   51.1586   24.4581 C.ar      1 UNK         0.0000 
      7 C7         -1.2765   51.7322   25.7031 C.ar      1 UNK         0.0000 
      8 S8         -1.2135   49.2024   22.5229 S.o2      1 UNK         0.0000 
      9 O9         -2.5544   49.6464   22.1254 O.2       1 UNK         0.0000 
     10 O10        -0.8978   47.7788   22.6779 O.2       1 UNK         0.0000 
     11 N11        -0.0475   49.9130   21.3887 N.pl3     1 UNK         0.0000 
     12 C12         1.3750   49.4745   21.4097 C.3       1 UNK         0.0000 
     13 C13         2.3142   50.5339   22.0360 C.3       1 UNK         0.0000 
     14 C14         2.1094   51.9642   21.4687 C.3       1 UNK         0.0000 
     15 C15         0.5986   52.3117   21.5666 C.3       1 UNK         0.0000 
     16 C16        -0.3073   51.2758   20.8743 C.3       1 UNK         0.0000 
     17 C17         2.9712   53.0106   22.2162 C.2       1 UNK         0.0000 
     18 N18         4.0620   53.5809   21.6865 N.pl3     1 UNK         0.0000 
     19 C19         4.5220   53.3997   20.3204 C.3       1 UNK         0.0000 
     20 C20         3.9041   52.1219   19.7678 C.3       1 UNK         0.0000 
     21 N21         2.4769   52.0962   20.0479 N.3       1 UNK         0.0000 
     22 N22         2.5914   53.3430   23.4601 N.pl3     1 UNK         0.0000 
     23 C23         3.0574   54.5119   24.2197 C.3       1 UNK         0.0000 
     24 C24         4.2951   54.3017   25.0855 C.ar      1 UNK         0.0000 
     25 C25         5.5556   54.5802   24.5422 C.ar      1 UNK         0.0000 
     26 C26         6.7043   54.4797   25.3233 C.ar      1 UNK         0.0000 
     27 C27         6.6098   54.0969   26.6600 C.ar      1 UNK         0.0000 
     28 C28         5.3611   53.8105   27.2106 C.ar      1 UNK         0.0000 
     29 C29         4.1995   53.9123   26.4345 C.ar      1 UNK         0.0000 
     30 C30         2.8585   53.5830   27.0757 C.3       1 UNK         0.0000 
     31 H31         0.9059   51.6631   28.2359 H         1 UNK         0.0000 
     32 H32        -0.4494   52.7640   28.0161 H         1 UNK         0.0000 
     33 H33        -0.7135   51.1442   28.7085 H         1 UNK         0.0000 
     34 H34         0.9964   49.4932   26.8814 H         1 UNK         0.0000 
     35 H35         0.5822   48.4828   24.6946 H         1 UNK         0.0000 
     36 H36        -2.2333   51.6157   23.7905 H         1 UNK         0.0000 
     37 H37        -1.8062   52.6277   25.9912 H         1 UNK         0.0000 
     38 H38         1.6678   49.2296   20.3890 H         1 UNK         0.0000 
     39 H39         1.4492   48.5458   21.9734 H         1 UNK         0.0000 
     40 H40         3.3506   50.2236   21.9078 H         1 UNK         0.0000 
     41 H41         2.1523   50.5483   23.1137 H         1 UNK         0.0000 
     42 H42         0.2909   52.4001   22.6070 H         1 UNK         0.0000 
     43 H43         0.4312   53.2920   21.1260 H         1 UNK         0.0000 
     44 H44        -0.1635   51.2679   19.7924 H         1 UNK         0.0000 
     45 H45        -1.3555   51.5269   21.0383 H         1 UNK         0.0000 
     46 H46         4.1907   54.2685   19.7496 H         1 UNK         0.0000 
     47 H47         5.6090   53.3622   20.3005 H         1 UNK         0.0000 
     48 H48         4.0484   52.0943   18.6862 H         1 UNK         0.0000 
     49 H49         4.3941   51.2297   20.1555 H         1 UNK         0.0000 
     50 H50         2.0412   51.3534   19.5169 H         1 UNK         0.0000 
     51 H51         1.8018   52.8413   23.8422 H         1 UNK         0.0000 
     52 H52         2.2273   54.8513   24.8380 H         1 UNK         0.0000 
     53 H53         3.2264   55.2968   23.4886 H         1 UNK         0.0000 
     54 H54         5.6604   54.8979   23.5158 H         1 UNK         0.0000 
     55 H55         7.6650   54.6960   24.8823 H         1 UNK         0.0000 
     56 H56         7.4986   54.0150   27.2692 H         1 UNK         0.0000 
     57 H57         5.2972   53.5077   28.2454 H         1 UNK         0.0000 
     58 H58         2.2802   54.4899   27.2505 H         1 UNK         0.0000 
     59 H59         2.2771   52.9294   26.4267 H         1 UNK         0.0000 
     60 H60         2.9809   53.0562   28.0213 H         1 UNK         0.0000 
     61 H61         4.5385   54.2513   22.2711 H         1 UNK         0.0000 
@<TRIPOS>BOND
     1    1    2 1    
     2    1   31 1    
     3    1   32 1    
     4    1   33 1    
     5    2    7 ar   
     6    2    3 ar   
     7    3    4 ar   
     8    3   34 1    
     9    4    5 ar   
    10    4   35 1    
    11    5    6 ar   
    12    5    8 1    
    13    6    7 ar   
    14    6   36 1    
    15    7   37 1    
    16    8    9 2    
    17    8   10 2    
    18    8   11 1    
    19   11   16 1    
    20   11   12 1    
    21   12   13 1    
    22   12   38 1    
    23   12   39 1    
    24   13   14 1    
    25   13   40 1    
    26   13   41 1    
    27   14   21 1    
    28   14   15 1    
    29   14   17 1    
    30   15   16 1    
    31   15   42 1    
    32   15   43 1    
    33   16   44 1    
    34   16   45 1    
    35   17   18 2    
    36   17   22 1    
    37   18   19 1    
    38   18   61 1    
    39   19   20 1    
    40   19   46 1    
    41   19   47 1    
    42   20   21 1    
    43   20   48 1    
    44   20   49 1    
    45   21   50 1    
    46   22   23 1    
    47   22   51 1    
    48   23   24 1    
    49   23   52 1    
    50   23   53 1    
    51   24   29 ar   
    52   24   25 ar   
    53   25   26 ar   
    54   25   54 1    
    55   26   27 ar   
    56   26   55 1    
    57   27   28 ar   
    58   27   56 1    
    59   28   29 ar   
    60   28   57 1    
    61   29   30 1    
    62   30   58 1    
    63   30   59 1    
    64   30   60 1    
@<TRIPOS>SUBSTRUCTURE
     1 UNK         1 GROUP             0       ****    0 ROOT    
