ZINC13499858_3215
                    3D
 Schrodinger Suite 2024-2.
 60 64  0  0  1  0            999 V2000
    4.5691   54.7462   19.2827 C   0  0  0  0  0  0
    4.8314   53.4581   20.0746 C   0  0  0  0  0  0
    4.3097   53.5126   21.5081 C   0  0  0  0  0  0
    5.1838   54.0367   22.4215 N   0  0  0  0  0  0
    4.7804   54.0971   23.6968 C   0  0  0  0  0  0
    3.5090   53.6968   24.1646 C   0  0  0  0  0  0
    3.3463   53.7637   25.5822 C   0  0  0  0  0  0
    4.5059   54.2658   26.1812 C   0  0  0  0  0  0
    5.7786   54.6564   25.0279 S   0  0  0  0  0  0
    4.7269   54.3564   27.6937 C   0  0  0  0  0  0
    3.3834   54.1665   28.4525 C   0  0  2  0  0  0
    3.6483   53.8309   29.4570 H   0  0  0  0  0  0
    2.5748   53.0084   27.8335 C   0  0  0  0  0  0
    2.1282   53.3187   26.3885 C   0  0  0  0  0  0
    2.5633   55.4581   28.6376 C   0  0  0  0  0  0
    2.6222   53.1994   23.1737 C   0  0  0  0  0  0
    3.0377   53.0778   21.8430 N   0  0  0  0  0  0
    1.9444   52.4968   21.2046 C   0  0  0  0  0  0
    0.9573   52.3441   22.0688 N   0  0  0  0  0  0
    1.3579   52.7559   23.3261 N   0  0  0  0  0  0
    1.7748   52.0791   19.4977 S   0  0  0  0  0  0
    2.7044   50.5083   19.4877 C   0  0  0  0  0  0
    1.8390   49.3029   19.8633 C   0  0  0  0  0  0
    1.4728   49.1781   21.0330 O   0  0  0  0  0  0
    1.5529   48.4204   18.8801 N   0  0  0  0  0  0
    0.7274   47.2828   18.9814 C   0  0  0  0  0  0
   -0.3900   47.2183   19.8297 C   0  0  0  0  0  0
   -1.1462   46.0496   19.9128 C   0  0  0  0  0  0
   -0.7962   44.9334   19.1542 C   0  0  0  0  0  0
    0.3043   44.9905   18.2884 C   0  0  0  0  0  0
    1.0375   46.1792   18.1810 C   0  0  0  0  0  0
    0.7051   43.9073   17.4898 N   0  0  0  0  0  0
    0.6821   42.5953   17.8056 C   0  0  0  0  0  0
    0.3044   42.1247   18.8813 O   0  0  0  0  0  0
    1.1981   41.6463   16.7299 C   0  0  0  0  0  0
    4.9483   54.6585   18.2640 H   0  0  0  0  0  0
    3.5046   54.9645   19.2194 H   0  0  0  0  0  0
    5.0644   55.6010   19.7447 H   0  0  0  0  0  0
    5.9044   53.2861   20.0968 H   0  0  0  0  0  0
    4.4441   52.5968   19.5396 H   0  0  0  0  0  0
    5.4203   53.5744   28.0076 H   0  0  0  0  0  0
    5.1994   55.2967   27.9714 H   0  0  0  0  0  0
    3.1726   52.0971   27.8449 H   0  0  0  0  0  0
    1.6875   52.8051   28.4348 H   0  0  0  0  0  0
    1.3666   54.0946   26.3731 H   0  0  0  0  0  0
    1.6731   52.4248   25.9624 H   0  0  0  0  0  0
    2.3042   55.9093   27.6820 H   0  0  0  0  0  0
    1.6311   55.2586   29.1673 H   0  0  0  0  0  0
    3.1079   56.1983   29.2222 H   0  0  0  0  0  0
    3.5594   50.5547   20.1607 H   0  0  0  0  0  0
    3.1037   50.3761   18.4819 H   0  0  0  0  0  0
    2.0608   48.5302   18.0118 H   0  0  0  0  0  0
   -0.6780   48.0675   20.4323 H   0  0  0  0  0  0
   -1.9999   46.0085   20.5729 H   0  0  0  0  0  0
   -1.3916   44.0364   19.2325 H   0  0  0  0  0  0
    1.8862   46.2300   17.5127 H   0  0  0  0  0  0
    1.1611   44.1584   16.6261 H   0  0  0  0  0  0
    2.1374   41.1946   17.0514 H   0  0  0  0  0  0
    1.3723   42.1591   15.7830 H   0  0  0  0  0  0
    0.4768   40.8475   16.5527 H   0  0  0  0  0  0
  1  2  1  0  0  0
  1 36  1  0  0  0
  1 37  1  0  0  0
  1 38  1  0  0  0
  2  3  1  0  0  0
  2 39  1  0  0  0
  2 40  1  0  0  0
  3 17  1  0  0  0
  3  4  2  0  0  0
  4  5  1  0  0  0
  5  9  1  0  0  0
  5  6  2  0  0  0
  6  7  1  0  0  0
  6 16  1  0  0  0
  7 14  1  0  0  0
  7  8  2  0  0  0
  8  9  1  0  0  0
  8 10  1  0  0  0
 10 11  1  0  0  0
 10 41  1  0  0  0
 10 42  1  0  0  0
 11 12  1  0  0  0
 11 13  1  0  0  0
 11 15  1  0  0  0
 13 14  1  0  0  0
 13 43  1  0  0  0
 13 44  1  0  0  0
 14 45  1  0  0  0
 14 46  1  0  0  0
 15 47  1  0  0  0
 15 48  1  0  0  0
 15 49  1  0  0  0
 16 20  2  0  0  0
 16 17  1  0  0  0
 17 18  1  0  0  0
 18 19  2  0  0  0
 18 21  1  0  0  0
 19 20  1  0  0  0
 21 22  1  0  0  0
 22 23  1  0  0  0
 22 50  1  0  0  0
 22 51  1  0  0  0
 23 24  2  0  0  0
 23 25  1  0  0  0
 25 26  1  0  0  0
 25 52  1  0  0  0
 26 31  2  0  0  0
 26 27  1  0  0  0
 27 28  2  0  0  0
 27 53  1  0  0  0
 28 29  1  0  0  0
 28 54  1  0  0  0
 29 30  2  0  0  0
 29 55  1  0  0  0
 30 31  1  0  0  0
 30 32  1  0  0  0
 31 56  1  0  0  0
 32 33  1  0  0  0
 32 57  1  0  0  0
 33 34  2  0  0  0
 33 35  1  0  0  0
 35 58  1  0  0  0
 35 59  1  0  0  0
 35 60  1  0  0  0
M  END
> <i_i_glide_confnum>
142

> <i_i_glide_lignum>
3216

> <i_i_glide_posenum>
339

> <i_i_glide_rotatable_bonds>
8

> <i_m_Source_File_Index>
1379

> <b_m_subgroup_collapsed>
0

> <r_i_docking_score>
-5.85228

> <r_i_glide_ecoul>
-7.32775

> <r_i_glide_eff_state_penalty>
0

> <r_i_glide_einternal>
4.27387

> <r_i_glide_emodel>
-66.6792

> <r_i_glide_energy>
-49.9138

> <r_i_glide_erotb>
0.499785

> <r_i_glide_esite>
-0.143841

> <r_i_glide_evdw>
-42.5861

> <r_i_glide_gscore>
-5.85228

> <r_i_glide_hbond>
-0.16

> <r_i_glide_ligand_efficiency>
-0.172126

> <r_i_glide_ligand_efficiency_ln>
-1.29293

> <r_i_glide_ligand_efficiency_sa>
-0.557621

> <r_i_glide_lipo>
-2.37591

> <r_i_glide_metal>
0

> <r_i_glide_rewards>
-0.443852

> <s_i_glide_gridfile>
wee1_glide-grid

> <s_m_Source_File>
wee1_decoys_glide_SP.sdf

> <s_m_Source_Path>
/Users/zhangxujun/Desktop

> <s_m_entry_id>
1654

> <s_m_entry_name>
wee1_decoys_glide_SP.1379

> <s_m_subgroup_title>
wee1_decoys_glide_SP

> <s_m_subgroupid>
wee1_decoys_glide_SP


$$$$
