@<TRIPOS>MOLECULE
ZINC39665044_3066
66   69    1
SMALL
USER_CHARGES


@<TRIPOS>ATOM
      1 C1          0.8880   51.3591   17.0023 C.3       1 UNK         0.0000 
      2 C2          0.5889   51.9577   18.3915 C.3       1 UNK         0.0000 
      3 H3          1.3036   52.7517   18.6095 H         1 UNK         0.0000 
      4 C4          0.7369   50.9066   19.5138 C.3       1 UNK         0.0000 
      5 N5          0.8614   51.4914   20.8521 N.am      1 UNK         0.0000 
      6 C6         -0.1299   51.6903   21.7413 C.2       1 UNK         0.0000 
      7 O7         -1.3023   51.4212   21.4868 O.2       1 UNK         0.0000 
      8 C8          0.1932   52.3595   23.1081 C.3       1 UNK         0.0000 
      9 H9         -0.4090   53.2685   23.1438 H         1 UNK         0.0000 
     10 C10         1.6613   52.8265   23.1838 C.3       1 UNK         0.0000 
     11 N11         1.9301   52.9221   24.6190 N.am      1 UNK         0.0000 
     12 C12         0.8204   52.3330   25.3824 C.3       1 UNK         0.0000 
     13 C13        -0.0139   51.5028   24.3759 C.3       1 UNK         0.0000 
     14 C14         0.5239   50.0419   24.2458 C.3       1 UNK         0.0000 
     15 C15         0.4465   49.2686   25.5825 C.3       1 UNK         0.0000 
     16 N16        -1.0173   49.2969   26.0817 N.4       1 UNK         0.0000 
     17 C17        -1.6599   50.6988   26.1457 C.3       1 UNK         0.0000 
     18 C18        -1.5052   51.3597   24.7643 C.3       1 UNK         0.0000 
     19 C19         2.8659   53.7057   25.2336 C.2       1 UNK         0.0000 
     20 O20         2.6641   54.0960   26.3847 O.2       1 UNK         0.0000 
     21 C21         4.2222   54.0228   24.5831 C.ar      1 UNK         0.0000 
     22 C22         4.3401   54.2062   23.1878 C.ar      1 UNK         0.0000 
     23 C23         5.5486   54.4964   22.5692 C.ar      1 UNK         0.0000 
     24 C24         6.6889   54.6538   23.3317 C.ar      1 UNK         0.0000 
     25 C25         6.6187   54.4963   24.7078 C.ar      1 UNK         0.0000 
     26 C26         5.4180   54.1683   25.3601 C.ar      1 UNK         0.0000 
     27 C27         5.5465   53.8826   26.8788 C.3       1 UNK         0.0000 
     28 F28         5.2696   54.9645   27.5908 F         1 UNK         0.0000 
     29 F29         4.7705   52.8967   27.3050 F         1 UNK         0.0000 
     30 F30         6.7797   53.4783   27.1946 F         1 UNK         0.0000 
     31 O31        -0.7487   52.4689   18.4290 O.3       1 UNK         0.0000 
     32 C32        -1.0956   53.5789   17.6816 C.ar      1 UNK         0.0000 
     33 C33        -2.4462   53.7157   17.3598 C.ar      1 UNK         0.0000 
     34 C34        -2.8905   54.8135   16.6274 C.ar      1 UNK         0.0000 
     35 C35        -1.9828   55.7943   16.2373 C.ar      1 UNK         0.0000 
     36 C36        -0.6339   55.6789   16.5620 C.ar      1 UNK         0.0000 
     37 C37        -0.1889   54.5714   17.2789 C.ar      1 UNK         0.0000 
     38 H38         1.8922   50.9335   16.9613 H         1 UNK         0.0000 
     39 H39         0.1808   50.5676   16.7531 H         1 UNK         0.0000 
     40 H40         0.8283   52.1125   16.2173 H         1 UNK         0.0000 
     41 H41        -0.0914   50.1959   19.4718 H         1 UNK         0.0000 
     42 H42         1.6412   50.3198   19.3429 H         1 UNK         0.0000 
     43 H43         1.7941   51.7719   21.1104 H         1 UNK         0.0000 
     44 H44         2.3260   52.0568   22.7888 H         1 UNK         0.0000 
     45 H45         1.6659   53.7802   22.6562 H         1 UNK         0.0000 
     46 H46         0.2086   53.1693   25.7190 H         1 UNK         0.0000 
     47 H47         1.1044   51.8200   26.3009 H         1 UNK         0.0000 
     48 H48         0.0080   49.4916   23.4572 H         1 UNK         0.0000 
     49 H49         1.5717   50.0573   23.9409 H         1 UNK         0.0000 
     50 H50         0.7050   48.2147   25.4651 H         1 UNK         0.0000 
     51 H51         1.0656   49.6822   26.3794 H         1 UNK         0.0000 
     52 H52        -1.5786   48.7078   25.4846 H         1 UNK         0.0000 
     53 H53        -2.7028   50.5387   26.4243 H         1 UNK         0.0000 
     54 H54        -1.1588   51.2349   26.9533 H         1 UNK         0.0000 
     55 H55        -1.9580   52.3505   24.8275 H         1 UNK         0.0000 
     56 H56        -2.0740   50.8333   23.9958 H         1 UNK         0.0000 
     57 H57         3.5196   54.1891   22.5040 H         1 UNK         0.0000 
     58 H58         5.5903   54.6335   21.4979 H         1 UNK         0.0000 
     59 H59         7.6216   54.9022   22.8506 H         1 UNK         0.0000 
     60 H60         7.5300   54.6198   25.2685 H         1 UNK         0.0000 
     61 H61        -3.1488   52.9567   17.6706 H         1 UNK         0.0000 
     62 H62        -3.9358   54.9078   16.3711 H         1 UNK         0.0000 
     63 H63        -2.3259   56.6503   15.6747 H         1 UNK         0.0000 
     64 H64         0.0655   56.4448   16.2597 H         1 UNK         0.0000 
     65 H65         0.8587   54.5149   17.5280 H         1 UNK         0.0000 
     66 H66        -1.0954   48.8744   27.0237 H         1 UNK         0.0000 
@<TRIPOS>BOND
     1    1    2 1    
     2    1   38 1    
     3    1   39 1    
     4    1   40 1    
     5    2    3 1    
     6    2    4 1    
     7    2   31 1    
     8    4    5 1    
     9    4   41 1    
    10    4   42 1    
    11    5    6 am   BACKBONE|DICT|INTERRES
    12    5   43 1    
    13    6    7 2    
    14    6    8 1    
    15    8    9 1    
    16    8   13 1    
    17    8   10 1    
    18   10   11 1    
    19   10   44 1    
    20   10   45 1    
    21   11   12 1    
    22   11   19 am   BACKBONE|DICT|INTERRES
    23   12   13 1    
    24   12   46 1    
    25   12   47 1    
    26   13   18 1    
    27   13   14 1    
    28   14   15 1    
    29   14   48 1    
    30   14   49 1    
    31   15   16 1    
    32   15   50 1    
    33   15   51 1    
    34   16   17 1    
    35   16   52 1    
    36   16   66 1    
    37   17   18 1    
    38   17   53 1    
    39   17   54 1    
    40   18   55 1    
    41   18   56 1    
    42   19   20 2    
    43   19   21 1    
    44   21   26 ar   
    45   21   22 ar   
    46   22   23 ar   
    47   22   57 1    
    48   23   24 ar   
    49   23   58 1    
    50   24   25 ar   
    51   24   59 1    
    52   25   26 ar   
    53   25   60 1    
    54   26   27 1    
    55   27   28 1    
    56   27   29 1    
    57   27   30 1    
    58   31   32 1    
    59   32   37 ar   
    60   32   33 ar   
    61   33   34 ar   
    62   33   61 1    
    63   34   35 ar   
    64   34   62 1    
    65   35   36 ar   
    66   35   63 1    
    67   36   37 ar   
    68   36   64 1    
    69   37   65 1    
@<TRIPOS>SUBSTRUCTURE
     1 UNK         1 GROUP             0       ****    0 ROOT    
