@<TRIPOS>MOLECULE
ZINC13175295_1008
68   72    1
SMALL
USER_CHARGES


@<TRIPOS>ATOM
      1 C1          6.0759   53.5801   28.3081 C.3       1 UNK         0.0000 
      2 C2          5.4067   54.3918   27.1780 C.3       1 UNK         0.0000 
      3 H3          5.4073   55.4440   27.4642 H         1 UNK         0.0000 
      4 C4          6.1606   54.2715   25.8593 C.3       1 UNK         0.0000 
      5 C5          5.0691   54.2594   24.8404 C.ar      1 UNK         0.0000 
      6 C6          5.1905   54.2541   23.4496 C.ar      1 UNK         0.0000 
      7 C7          4.0574   54.0945   22.6548 C.ar      1 UNK         0.0000 
      8 C8          2.8140   53.8974   23.2508 C.ar      1 UNK         0.0000 
      9 C9          2.6980   53.8704   24.6412 C.ar      1 UNK         0.0000 
     10 C10         3.8248   54.0830   25.4557 C.ar      1 UNK         0.0000 
     11 N11         3.9922   54.0759   26.8694 N.am      1 UNK         0.0000 
     12 C12         3.0460   54.0957   27.8607 C.2       1 UNK         0.0000 
     13 O13         3.2801   54.5412   28.9878 O.2       1 UNK         0.0000 
     14 C14         1.6531   53.4837   27.6497 C.3       1 UNK         0.0000 
     15 S15         1.7575   51.7050   27.2824 S.3       1 UNK         0.0000 
     16 C16         0.3062   51.3481   26.3211 C.2       1 UNK         0.0000 
     17 C17        -0.9484   51.2395   26.7938 C.2       1 UNK         0.0000 
     18 C18        -2.1191   50.7929   25.9009 C.3       1 UNK         0.0000 
     19 H19        -2.5088   49.8623   26.3215 H         1 UNK         0.0000 
     20 C20        -1.6243   50.4176   24.4688 C.2       1 UNK         0.0000 
     21 C21        -0.3068   50.5099   24.1288 C.2       1 UNK         0.0000 
     22 N22         0.6079   51.0154   25.0245 N.pl3     1 UNK         0.0000 
     23 C23         0.2350   50.2146   22.7283 C.3       1 UNK         0.0000 
     24 C24        -0.8608   50.4311   21.6443 C.3       1 UNK         0.0000 
     25 C25        -2.1150   49.6179   22.0687 C.3       1 UNK         0.0000 
     26 C26        -2.6167   49.9078   23.4961 C.2       1 UNK         0.0000 
     27 O27        -3.7496   49.5645   23.8292 O.2       1 UNK         0.0000 
     28 C28        -1.2119   51.9360   21.5097 C.3       1 UNK         0.0000 
     29 C29        -0.3486   49.8343   20.3169 C.3       1 UNK         0.0000 
     30 C30        -3.3117   51.7553   25.9604 C.ar      1 UNK         0.0000 
     31 C31        -4.3842   51.5034   26.8210 C.ar      1 UNK         0.0000 
     32 C32        -5.4577   52.3893   26.8785 C.ar      1 UNK         0.0000 
     33 C33        -5.4637   53.5447   26.0811 C.ar      1 UNK         0.0000 
     34 C34        -4.3961   53.7830   25.2183 C.ar      1 UNK         0.0000 
     35 C35        -3.3250   52.8975   25.1576 C.ar      1 UNK         0.0000 
     36 O36        -6.4637   54.4965   26.0895 O.3       1 UNK         0.0000 
     37 C37        -7.5928   54.3088   26.9346 C.3       1 UNK         0.0000 
     38 C38        -1.1787   51.4823   28.1770 C.1       1 UNK         0.0000 
     39 N39        -1.2832   51.6968   29.3064 N.1       1 UNK         0.0000 
     40 H40         7.1391   53.8132   28.3727 H         1 UNK         0.0000 
     41 H41         5.6555   53.8192   29.2815 H         1 UNK         0.0000 
     42 H42         5.9930   52.5063   28.1311 H         1 UNK         0.0000 
     43 H43         6.8923   55.0678   25.7284 H         1 UNK         0.0000 
     44 H44         6.6763   53.3100   25.7997 H         1 UNK         0.0000 
     45 H45         6.1564   54.3614   22.9781 H         1 UNK         0.0000 
     46 H46         4.1439   54.0995   21.5778 H         1 UNK         0.0000 
     47 H47         1.9399   53.7534   22.6319 H         1 UNK         0.0000 
     48 H48         1.7119   53.6854   25.0216 H         1 UNK         0.0000 
     49 H49         1.1048   54.0470   26.9066 H         1 UNK         0.0000 
     50 H50         1.0683   53.5851   28.5653 H         1 UNK         0.0000 
     51 H51         1.5803   51.0176   24.7538 H         1 UNK         0.0000 
     52 H52         1.0450   50.9030   22.4788 H         1 UNK         0.0000 
     53 H53         0.6384   49.2004   22.7428 H         1 UNK         0.0000 
     54 H54        -2.9436   49.7232   21.3685 H         1 UNK         0.0000 
     55 H55        -1.8462   48.5610   22.0805 H         1 UNK         0.0000 
     56 H56        -2.0138   52.0884   20.7871 H         1 UNK         0.0000 
     57 H57        -1.5300   52.3897   22.4477 H         1 UNK         0.0000 
     58 H58        -0.3479   52.4990   21.1569 H         1 UNK         0.0000 
     59 H59        -1.0834   49.9527   19.5197 H         1 UNK         0.0000 
     60 H60         0.5672   50.3265   19.9867 H         1 UNK         0.0000 
     61 H61        -0.1336   48.7681   20.4034 H         1 UNK         0.0000 
     62 H62        -4.3853   50.6238   27.4498 H         1 UNK         0.0000 
     63 H63        -6.2690   52.1678   27.5545 H         1 UNK         0.0000 
     64 H64        -4.3942   54.6664   24.5975 H         1 UNK         0.0000 
     65 H65        -2.4993   53.1065   24.4940 H         1 UNK         0.0000 
     66 H66        -8.2709   55.1544   26.8212 H         1 UNK         0.0000 
     67 H67        -7.3043   54.2575   27.9854 H         1 UNK         0.0000 
     68 H68        -8.1439   53.4054   26.6697 H         1 UNK         0.0000 
@<TRIPOS>BOND
     1    1    2 1    
     2    1   40 1    
     3    1   41 1    
     4    1   42 1    
     5    2    3 1    
     6    2   11 1    
     7    2    4 1    
     8    4    5 1    
     9    4   43 1    
    10    4   44 1    
    11    5   10 ar   
    12    5    6 ar   
    13    6    7 ar   
    14    6   45 1    
    15    7    8 ar   
    16    7   46 1    
    17    8    9 ar   
    18    8   47 1    
    19    9   10 ar   
    20    9   48 1    
    21   10   11 1    
    22   11   12 am   BACKBONE|DICT|INTERRES
    23   12   13 2    
    24   12   14 1    
    25   14   15 1    
    26   14   49 1    
    27   14   50 1    
    28   15   16 1    
    29   16   22 1    
    30   16   17 2    
    31   17   18 1    
    32   17   38 1    
    33   18   19 1    
    34   18   20 1    
    35   18   30 1    
    36   20   26 1    
    37   20   21 2    
    38   21   22 1    
    39   21   23 1    
    40   22   51 1    
    41   23   24 1    
    42   23   52 1    
    43   23   53 1    
    44   24   25 1    
    45   24   28 1    
    46   24   29 1    
    47   25   26 1    
    48   25   54 1    
    49   25   55 1    
    50   26   27 2    
    51   28   56 1    
    52   28   57 1    
    53   28   58 1    
    54   29   59 1    
    55   29   60 1    
    56   29   61 1    
    57   30   35 ar   
    58   30   31 ar   
    59   31   32 ar   
    60   31   62 1    
    61   32   33 ar   
    62   32   63 1    
    63   33   34 ar   
    64   33   36 1    
    65   34   35 ar   
    66   34   64 1    
    67   35   65 1    
    68   36   37 1    
    69   37   66 1    
    70   37   67 1    
    71   37   68 1    
    72   38   39 3    
@<TRIPOS>SUBSTRUCTURE
     1 UNK         1 GROUP             0       ****    0 ROOT    
