@<TRIPOS>MOLECULE
ZINC35379185_3275
59   62    1
SMALL
USER_CHARGES


@<TRIPOS>ATOM
      1 C1          3.1962   53.5735   22.7229 C.3       1 UNK         0.0000 
      2 C2          4.5896   54.1664   22.5517 C.ar      1 UNK         0.0000 
      3 C3          5.0088   54.4963   21.2578 C.ar      1 UNK         0.0000 
      4 C4          6.2554   55.0770   21.0424 C.ar      1 UNK         0.0000 
      5 C5          7.1043   55.3107   22.1188 C.ar      1 UNK         0.0000 
      6 C6          6.7044   54.9867   23.4132 C.ar      1 UNK         0.0000 
      7 C7          5.4385   54.4286   23.6511 C.ar      1 UNK         0.0000 
      8 N8          4.9639   54.0962   24.9369 N.am      1 UNK         0.0000 
      9 C9          5.4983   54.2872   26.1638 C.2       1 UNK         0.0000 
     10 O10         6.5587   54.8730   26.3909 O.2       1 UNK         0.0000 
     11 C11         4.6499   53.7196   27.3284 C.3       1 UNK         0.0000 
     12 H12         3.9480   53.0103   26.8850 H         1 UNK         0.0000 
     13 C13         5.5375   52.9901   28.3585 C.3       1 UNK         0.0000 
     14 C14         4.5789   52.3657   29.3942 C.3       1 UNK         0.0000 
     15 C15         3.7373   53.4267   30.1234 C.3       1 UNK         0.0000 
     16 N16         3.1671   54.4699   29.2317 N.pl3     1 UNK         0.0000 
     17 C17         3.9420   54.8960   28.0315 C.3       1 UNK         0.0000 
     18 S18         1.4243   54.7329   29.2915 S.o2      1 UNK         0.0000 
     19 O19         1.0194   54.6705   30.6969 O.2       1 UNK         0.0000 
     20 O20         1.1061   55.9093   28.4833 O.2       1 UNK         0.0000 
     21 C21         0.7536   53.3177   28.4036 C.ar      1 UNK         0.0000 
     22 C22         1.1058   53.2093   27.0471 C.ar      1 UNK         0.0000 
     23 C23         0.6629   52.1309   26.2872 C.ar      1 UNK         0.0000 
     24 C24        -0.1479   51.1589   26.8628 C.ar      1 UNK         0.0000 
     25 C25        -0.5338   51.2827   28.1915 C.ar      1 UNK         0.0000 
     26 C26        -0.0582   52.3218   28.9884 C.ar      1 UNK         0.0000 
     27 C27        -0.4183   52.2752   30.4644 C.3       1 UNK         0.0000 
     28 N28        -0.5024   50.0448   26.1060 N.am      1 UNK         0.0000 
     29 C29        -0.3325   49.9040   24.7779 C.2       1 UNK         0.0000 
     30 O30        -0.5812   48.8613   24.1743 O.2       1 UNK         0.0000 
     31 C31         0.1738   51.2426   24.1325 C.3       1 UNK         0.0000 
     32 H32        -0.7234   51.8559   24.0251 H         1 UNK         0.0000 
     33 O33         1.0999   51.9705   24.9835 O.3       1 UNK         0.0000 
     34 C34         0.7652   50.9873   22.7344 C.3       1 UNK         0.0000 
     35 F35         6.6427   55.4083   19.7912 F         1 UNK         0.0000 
     36 H36         3.2576   52.4979   22.8813 H         1 UNK         0.0000 
     37 H37         2.6741   54.0231   23.5678 H         1 UNK         0.0000 
     38 H38         2.5710   53.7596   21.8489 H         1 UNK         0.0000 
     39 H39         4.3641   54.3160   20.4094 H         1 UNK         0.0000 
     40 H40         8.0796   55.7438   21.9494 H         1 UNK         0.0000 
     41 H41         7.4061   55.1818   24.2079 H         1 UNK         0.0000 
     42 H42         4.0783   53.6128   24.9221 H         1 UNK         0.0000 
     43 H43         6.0970   52.1686   27.9192 H         1 UNK         0.0000 
     44 H44         6.2053   53.6753   28.8827 H         1 UNK         0.0000 
     45 H45         3.8892   51.6947   28.8816 H         1 UNK         0.0000 
     46 H46         5.1040   51.7460   30.1181 H         1 UNK         0.0000 
     47 H47         2.9254   52.9368   30.6620 H         1 UNK         0.0000 
     48 H48         4.3046   53.9443   30.8876 H         1 UNK         0.0000 
     49 H49         4.6551   55.6251   28.3953 H         1 UNK         0.0000 
     50 H50         3.2452   55.3752   27.3471 H         1 UNK         0.0000 
     51 H51         1.7290   53.9519   26.5739 H         1 UNK         0.0000 
     52 H52        -1.1523   50.5038   28.6181 H         1 UNK         0.0000 
     53 H53        -1.1021   51.4584   30.7076 H         1 UNK         0.0000 
     54 H54         0.4796   52.1488   31.0705 H         1 UNK         0.0000 
     55 H55        -0.8952   53.1977   30.7750 H         1 UNK         0.0000 
     56 H56        -0.8953   49.2430   26.5913 H         1 UNK         0.0000 
     57 H57         0.0845   50.4182   22.0987 H         1 UNK         0.0000 
     58 H58         0.9583   51.9292   22.2233 H         1 UNK         0.0000 
     59 H59         1.7057   50.4379   22.7950 H         1 UNK         0.0000 
@<TRIPOS>BOND
     1    1    2 1    
     2    1   36 1    
     3    1   37 1    
     4    1   38 1    
     5    2    7 ar   
     6    2    3 ar   
     7    3    4 ar   
     8    3   39 1    
     9    4    5 ar   
    10    4   35 1    
    11    5    6 ar   
    12    5   40 1    
    13    6    7 ar   
    14    6   41 1    
    15    7    8 1    
    16    8    9 am   BACKBONE|DICT|INTERRES
    17    8   42 1    
    18    9   10 2    
    19    9   11 1    
    20   11   12 1    
    21   11   17 1    
    22   11   13 1    
    23   13   14 1    
    24   13   43 1    
    25   13   44 1    
    26   14   15 1    
    27   14   45 1    
    28   14   46 1    
    29   15   16 1    
    30   15   47 1    
    31   15   48 1    
    32   16   17 1    
    33   16   18 1    
    34   17   49 1    
    35   17   50 1    
    36   18   19 2    
    37   18   20 2    
    38   18   21 1    
    39   21   26 ar   
    40   21   22 ar   
    41   22   23 ar   
    42   22   51 1    
    43   23   33 1    
    44   23   24 ar   
    45   24   25 ar   
    46   24   28 1    
    47   25   26 ar   
    48   25   52 1    
    49   26   27 1    
    50   27   53 1    
    51   27   54 1    
    52   27   55 1    
    53   28   29 am   BACKBONE|DICT|INTERRES
    54   28   56 1    
    55   29   30 2    
    56   29   31 1    
    57   31   32 1    
    58   31   33 1    
    59   31   34 1    
    60   34   57 1    
    61   34   58 1    
    62   34   59 1    
@<TRIPOS>SUBSTRUCTURE
     1 UNK         1 GROUP             0       ****    0 ROOT    
