ZINC63515228_6070
                    3D
 Schrodinger Suite 2024-2.
 54 56  0  0  1  0            999 V2000
    3.0851   54.2774   23.6263 C   0  0  0  0  0  0
    3.4647   54.1481   25.0951 C   0  0  0  0  0  0
    2.5029   53.6960   25.9929 C   0  0  0  0  0  0
    2.7758   53.5595   27.3552 C   0  0  0  0  0  0
    4.0406   53.9562   27.8457 C   0  0  0  0  0  0
    5.0235   54.4105   26.9369 C   0  0  0  0  0  0
    4.7371   54.4932   25.5643 C   0  0  0  0  0  0
    5.6872   54.9696   24.6898 O   0  0  0  0  0  0
    6.4525   53.9631   24.0385 C   0  0  0  0  0  0
    6.4075   54.8274   27.4294 C   0  0  0  0  0  0
    4.3345   53.9509   29.3452 C   0  0  0  0  0  0
    1.4289   52.8687   28.3622 S   0  0  0  0  0  0
    0.2336   53.6684   28.0816 O   0  0  0  0  0  0
    1.8827   52.6656   29.7401 O   0  0  0  0  0  0
    1.1436   51.2557   27.7199 N   0  0  0  0  0  0
    0.3112   50.9863   26.5305 C   0  0  0  0  0  0
    0.3840   49.5049   26.1272 C   0  0  0  0  0  0
   -0.2432   49.2147   24.7774 C   0  0  0  0  0  0
    0.2415   49.4118   23.5376 C   0  0  0  0  0  0
    1.5146   49.9896   23.0822 C   0  0  0  0  0  0
    1.8001   50.1114   21.7705 C   0  0  0  0  0  0
    0.7956   49.6488   20.8213 C   0  0  0  0  0  0
   -0.3919   49.1176   21.2195 C   0  0  0  0  0  0
   -0.6882   48.9908   22.5844 C   0  0  0  0  0  0
   -1.7606   48.5140   23.1709 N   0  3  0  0  0  0
   -1.6152   48.5752   24.6386 C   0  0  1  0  0  0
   -2.3990   49.2348   25.0164 H   0  0  0  0  0  0
   -1.7247   47.1783   25.2817 C   0  0  0  0  0  0
    3.5028   50.8967   21.1563 Br  0  0  0  0  0  0
    3.7848   54.8956   23.0653 H   0  0  0  0  0  0
    3.0291   53.2952   23.1581 H   0  0  0  0  0  0
    2.1063   54.7475   23.5304 H   0  0  0  0  0  0
    1.5199   53.4637   25.6180 H   0  0  0  0  0  0
    7.1695   54.4342   23.3645 H   0  0  0  0  0  0
    7.0189   53.3692   24.7573 H   0  0  0  0  0  0
    5.8274   53.2946   23.4449 H   0  0  0  0  0  0
    7.1039   55.0849   26.6344 H   0  0  0  0  0  0
    6.3042   55.6969   28.0759 H   0  0  0  0  0  0
    6.8646   54.0271   28.0117 H   0  0  0  0  0  0
    5.2293   54.4969   29.6350 H   0  0  0  0  0  0
    3.5262   54.4465   29.8807 H   0  0  0  0  0  0
    4.4202   52.9271   29.7114 H   0  0  0  0  0  0
    1.4094   50.4599   28.3094 H   0  0  0  0  0  0
    0.6700   51.5954   25.7063 H   0  0  0  0  0  0
   -0.7122   51.3008   26.7370 H   0  0  0  0  0  0
   -0.0955   48.8847   26.8805 H   0  0  0  0  0  0
    1.4170   49.1601   26.0889 H   0  0  0  0  0  0
    2.2586   50.3262   23.7884 H   0  0  0  0  0  0
    1.0108   49.7345   19.7636 H   0  0  0  0  0  0
   -1.0939   48.7919   20.4636 H   0  0  0  0  0  0
   -1.6452   47.2329   26.3689 H   0  0  0  0  0  0
   -2.6841   46.7136   25.0587 H   0  0  0  0  0  0
   -0.9356   46.5101   24.9336 H   0  0  0  0  0  0
   -2.5841   48.1508   22.6961 H   0  0  0  0  0  0
  1  2  1  0  0  0
  1 30  1  0  0  0
  1 31  1  0  0  0
  1 32  1  0  0  0
  2  7  2  0  0  0
  2  3  1  0  0  0
  3  4  2  0  0  0
  3 33  1  0  0  0
  4  5  1  0  0  0
  4 12  1  0  0  0
  5  6  2  0  0  0
  5 11  1  0  0  0
  6  7  1  0  0  0
  6 10  1  0  0  0
  7  8  1  0  0  0
  8  9  1  0  0  0
  9 34  1  0  0  0
  9 35  1  0  0  0
  9 36  1  0  0  0
 10 37  1  0  0  0
 10 38  1  0  0  0
 10 39  1  0  0  0
 11 40  1  0  0  0
 11 41  1  0  0  0
 11 42  1  0  0  0
 12 13  2  0  0  0
 12 14  2  0  0  0
 12 15  1  0  0  0
 15 16  1  0  0  0
 15 43  1  0  0  0
 16 17  1  0  0  0
 16 44  1  0  0  0
 16 45  1  0  0  0
 17 18  1  0  0  0
 17 46  1  0  0  0
 17 47  1  0  0  0
 18 26  1  0  0  0
 18 19  2  0  0  0
 19 24  1  0  0  0
 19 20  1  0  0  0
 20 21  2  0  0  0
 20 48  1  0  0  0
 21 22  1  0  0  0
 21 29  1  0  0  0
 22 23  2  0  0  0
 22 49  1  0  0  0
 23 24  1  0  0  0
 23 50  1  0  0  0
 24 25  2  0  0  0
 25 26  1  0  0  0
 25 54  1  0  0  0
 26 27  1  0  0  0
 26 28  1  0  0  0
 28 51  1  0  0  0
 28 52  1  0  0  0
 28 53  1  0  0  0
M  CHG  1  25   1
M  END
> <i_i_glide_confnum>
242

> <i_i_glide_lignum>
6071

> <i_i_glide_posenum>
205

> <i_i_glide_rotatable_bonds>
6

> <i_m_Source_File_Index>
409

> <b_m_subgroup_collapsed>
0

> <r_i_docking_score>
-4.69192

> <r_i_glide_ecoul>
-4.05271

> <r_i_glide_eff_state_penalty>
0

> <r_i_glide_einternal>
7.30846

> <r_i_glide_emodel>
-53.3506

> <r_i_glide_energy>
-45.4189

> <r_i_glide_erotb>
0.463695

> <r_i_glide_esite>
-0.00263196

> <r_i_glide_evdw>
-41.3661

> <r_i_glide_gscore>
-4.69192

> <r_i_glide_hbond>
0

> <r_i_glide_ligand_efficiency>
-0.167568

> <r_i_glide_ligand_efficiency_ln>
-1.08303

> <r_i_glide_ligand_efficiency_sa>
-0.508837

> <r_i_glide_lipo>
-2.75562

> <r_i_glide_metal>
0

> <r_i_glide_rewards>
0.278851

> <s_i_glide_gridfile>
wee1_glide-grid

> <s_m_Source_File>
wee1_decoys_glide_SP.sdf

> <s_m_Source_Path>
/Users/zhangxujun/Desktop

> <s_m_entry_id>
684

> <s_m_entry_name>
wee1_decoys_glide_SP.409

> <s_m_subgroup_title>
wee1_decoys_glide_SP

> <s_m_subgroupid>
wee1_decoys_glide_SP


$$$$
