@<TRIPOS>MOLECULE
ZINC13776212_5138
59   63    1
SMALL
USER_CHARGES


@<TRIPOS>ATOM
      1 C1          6.3538   55.0614   25.5368 C.3       1 UNK         0.0000 
      2 C2          4.9723   54.4929   25.8006 C.2       1 UNK         0.0000 
      3 C3          4.4130   54.2307   27.0983 C.ar      1 UNK         0.0000 
      4 C4          4.8483   54.3609   28.4283 C.ar      1 UNK         0.0000 
      5 C5          3.9729   54.0055   29.4596 C.ar      1 UNK         0.0000 
      6 C6          2.6866   53.5303   29.1993 C.ar      1 UNK         0.0000 
      7 C7          2.2219   53.3931   27.8919 C.ar      1 UNK         0.0000 
      8 C8          3.1065   53.7478   26.8677 C.ar      1 UNK         0.0000 
      9 O9          2.8414   53.6859   25.5381 O.3       1 UNK         0.0000 
     10 C10         3.9819   54.0736   24.8921 C.2       1 UNK         0.0000 
     11 C11         3.9090   54.0975   23.4517 C.2       1 UNK         0.0000 
     12 O12         2.8160   54.1195   22.8798 O.2       1 UNK         0.0000 
     13 N13         5.1089   54.0923   22.8307 N.am      1 UNK         0.0000 
     14 C14         5.2540   54.2192   21.4576 C.2       1 UNK         0.0000 
     15 C15         4.6642   53.5119   20.3896 C.2       1 UNK         0.0000 
     16 C16         5.0084   54.0939   19.1381 C.2       1 UNK         0.0000 
     17 C17         5.8914   55.1815   19.2826 C.2       1 UNK         0.0000 
     18 S18         6.3048   55.4870   20.9325 S.3       1 UNK         0.0000 
     19 C19         6.5137   55.9736   18.1375 C.3       1 UNK         0.0000 
     20 C20         5.7261   55.6843   16.8383 C.3       1 UNK         0.0000 
     21 H21         4.7562   56.1836   16.8957 H         1 UNK         0.0000 
     22 C22         5.5396   54.1625   16.6730 C.3       1 UNK         0.0000 
     23 C23         4.5935   53.5889   17.7479 C.3       1 UNK         0.0000 
     24 C24         6.4584   56.2956   15.6300 C.3       1 UNK         0.0000 
     25 C25         3.8934   52.2971   20.5626 C.2       1 UNK         0.0000 
     26 O26         4.2218   51.4458   21.3900 O.2       1 UNK         0.0000 
     27 N27         2.7868   52.2065   19.8051 N.am      1 UNK         0.0000 
     28 C28         1.8238   51.1128   19.8967 C.3       1 UNK         0.0000 
     29 H29         1.5895   50.8706   20.9377 H         1 UNK         0.0000 
     30 C30         0.5001   51.5294   19.2198 C.3       1 UNK         0.0000 
     31 C31        -0.4075   50.2942   19.1179 C.3       1 UNK         0.0000 
     32 S32         0.7640   48.8866   18.7186 S.o2      1 UNK         0.0000 
     33 O33         0.7475   48.6177   17.2779 O.2       1 UNK         0.0000 
     34 O34         0.5396   47.8037   19.6819 O.2       1 UNK         0.0000 
     35 C35         2.3054   49.8436   19.1733 C.3       1 UNK         0.0000 
     36 H36         6.6740   55.7226   26.3418 H         1 UNK         0.0000 
     37 H37         7.1007   54.2706   25.4598 H         1 UNK         0.0000 
     38 H38         6.4037   55.6514   24.6215 H         1 UNK         0.0000 
     39 H39         5.8405   54.7273   28.6507 H         1 UNK         0.0000 
     40 H40         4.3043   54.0960   30.4814 H         1 UNK         0.0000 
     41 H41         2.0391   53.2607   30.0228 H         1 UNK         0.0000 
     42 H42         1.2297   53.0246   27.6759 H         1 UNK         0.0000 
     43 H43         5.9171   54.2862   23.4027 H         1 UNK         0.0000 
     44 H44         6.5078   57.0429   18.3523 H         1 UNK         0.0000 
     45 H45         7.5547   55.6702   18.0167 H         1 UNK         0.0000 
     46 H46         5.1124   53.9517   15.6916 H         1 UNK         0.0000 
     47 H47         6.5055   53.6536   16.6594 H         1 UNK         0.0000 
     48 H48         4.6067   52.4981   17.6969 H         1 UNK         0.0000 
     49 H49         3.5664   53.8896   17.5372 H         1 UNK         0.0000 
     50 H50         7.4493   55.8592   15.4973 H         1 UNK         0.0000 
     51 H51         5.8999   56.1332   14.7078 H         1 UNK         0.0000 
     52 H52         6.5827   57.3733   15.7467 H         1 UNK         0.0000 
     53 H53         2.5247   53.0074   19.2487 H         1 UNK         0.0000 
     54 H54         0.7010   51.9336   18.2249 H         1 UNK         0.0000 
     55 H55         0.0191   52.3400   19.7698 H         1 UNK         0.0000 
     56 H56        -1.2332   50.3208   18.4075 H         1 UNK         0.0000 
     57 H57        -0.8174   50.0903   20.1072 H         1 UNK         0.0000 
     58 H58         3.1036   49.2426   19.6033 H         1 UNK         0.0000 
     59 H59         2.6921   50.1643   18.2033 H         1 UNK         0.0000 
@<TRIPOS>BOND
     1    1    2 1    
     2    1   36 1    
     3    1   37 1    
     4    1   38 1    
     5    2   10 2    
     6    2    3 1    
     7    3    8 ar   
     8    3    4 ar   
     9    4    5 ar   
    10    4   39 1    
    11    5    6 ar   
    12    5   40 1    
    13    6    7 ar   
    14    6   41 1    
    15    7    8 ar   
    16    7   42 1    
    17    8    9 1    
    18    9   10 1    
    19   10   11 1    
    20   11   12 2    
    21   11   13 am   BACKBONE|DICT|INTERRES
    22   13   14 am   BACKBONE|DICT|INTERRES
    23   13   43 1    
    24   14   18 1    
    25   14   15 2    
    26   15   16 1    
    27   15   25 1    
    28   16   23 1    
    29   16   17 2    
    30   17   18 1    
    31   17   19 1    
    32   19   20 1    
    33   19   44 1    
    34   19   45 1    
    35   20   21 1    
    36   20   22 1    
    37   20   24 1    
    38   22   23 1    
    39   22   46 1    
    40   22   47 1    
    41   23   48 1    
    42   23   49 1    
    43   24   50 1    
    44   24   51 1    
    45   24   52 1    
    46   25   26 2    
    47   25   27 am   BACKBONE|DICT|INTERRES
    48   27   28 1    
    49   27   53 1    
    50   28   29 1    
    51   28   35 1    
    52   28   30 1    
    53   30   31 1    
    54   30   54 1    
    55   30   55 1    
    56   31   32 1    
    57   31   56 1    
    58   31   57 1    
    59   32   33 2    
    60   32   34 2    
    61   32   35 1    
    62   35   58 1    
    63   35   59 1    
@<TRIPOS>SUBSTRUCTURE
     1 UNK         1 GROUP             0       ****    0 ROOT    
