@<TRIPOS>MOLECULE
ZINC63426686_4203
69   75    1
SMALL
USER_CHARGES


@<TRIPOS>ATOM
      1 C1         -0.9259   54.8855   17.0203 C.2       1 UNK         0.0000 
      2 C2         -0.7090   53.6756   17.6814 C.2       1 UNK         0.0000 
      3 C3         -1.9405   53.0395   17.7905 C.2       1 UNK         0.0000 
      4 O4         -2.8956   53.8245   17.2211 O.3       1 UNK         0.0000 
      5 C5         -2.2815   54.9382   16.7480 C.2       1 UNK         0.0000 
      6 C6         -2.4314   51.7364   18.3997 C.3       1 UNK         0.0000 
      7 N7         -1.3726   50.9888   19.1252 N.am      1 UNK         0.0000 
      8 C8         -0.3554   50.2660   18.2849 C.3       1 UNK         0.0000 
      9 H9          0.1767   51.0277   17.7162 H         1 UNK         0.0000 
     10 C10        -1.0212   49.2913   17.2681 C.3       1 UNK         0.0000 
     11 C11        -0.0355   48.4364   16.4509 C.3       1 UNK         0.0000 
     12 C12         0.9619   47.7061   17.3568 C.3       1 UNK         0.0000 
     13 C13         1.7007   48.6932   18.2735 C.3       1 UNK         0.0000 
     14 C14         0.6976   49.4963   19.1021 C.2       1 UNK         0.0000 
     15 C15         0.7404   49.5760   20.4371 C.2       1 UNK         0.0000 
     16 C16        -0.1606   50.4751   21.2528 C.3       1 UNK         0.0000 
     17 H17        -0.5936   49.8970   22.0705 H         1 UNK         0.0000 
     18 C18        -1.3582   51.1050   20.4952 C.2       1 UNK         0.0000 
     19 O19        -2.2337   51.7039   21.1260 O.2       1 UNK         0.0000 
     20 C20         0.6370   51.6454   21.8745 C.2       1 UNK         0.0000 
     21 O21         1.1859   52.4518   21.1181 O.2       1 UNK         0.0000 
     22 N22         0.6851   51.7012   23.2255 N.am      1 UNK         0.0000 
     23 C23         1.4417   52.5668   24.0099 C.2       1 UNK         0.0000 
     24 N24         1.3623   52.5374   25.3202 N.2       1 UNK         0.0000 
     25 H25         0.1304   51.0334   23.7397 H         1 UNK         0.0000 
     26 C26         2.1917   53.4006   25.9016 C.2       1 UNK         0.0000 
     27 C27         2.9972   54.1102   25.0075 C.2       1 UNK         0.0000 
     28 S28         2.6056   53.6980   23.3775 S.3       1 UNK         0.0000 
     29 C29         2.1968   53.4996   27.4395 C.3       1 UNK         0.0000 
     30 C30         2.8170   52.2221   28.0813 C.3       1 UNK         0.0000 
     31 C31         2.8765   52.3251   29.6263 C.3       1 UNK         0.0000 
     32 C32         1.4455   52.5123   30.1908 C.3       1 UNK         0.0000 
     33 C33         0.8114   53.7921   29.5923 C.3       1 UNK         0.0000 
     34 C34         0.7666   53.6752   28.0521 C.3       1 UNK         0.0000 
     35 C35         1.6573   55.0325   29.9579 C.3       1 UNK         0.0000 
     36 C36         3.1097   54.8349   29.4413 C.3       1 UNK         0.0000 
     37 C37         3.7523   53.5402   30.0056 C.3       1 UNK         0.0000 
     38 C38         3.0701   54.7125   27.9024 C.3       1 UNK         0.0000 
     39 O39         1.6285   48.9105   21.2263 O.3       1 UNK         0.0000 
     40 H40        -0.1828   55.6323   16.7731 H         1 UNK         0.0000 
     41 H41         0.2330   53.3110   18.0619 H         1 UNK         0.0000 
     42 H42        -2.9130   55.6648   16.2539 H         1 UNK         0.0000 
     43 H43        -3.2754   51.9556   19.0530 H         1 UNK         0.0000 
     44 H44        -2.8638   51.0982   17.6315 H         1 UNK         0.0000 
     45 H45        -1.7341   48.6519   17.7918 H         1 UNK         0.0000 
     46 H46        -1.6201   49.8531   16.5531 H         1 UNK         0.0000 
     47 H47         0.5112   49.0766   15.7577 H         1 UNK         0.0000 
     48 H48        -0.5818   47.7185   15.8363 H         1 UNK         0.0000 
     49 H49         1.6846   47.1608   16.7466 H         1 UNK         0.0000 
     50 H50         0.4400   46.9606   17.9586 H         1 UNK         0.0000 
     51 H51         2.3043   49.3827   17.6816 H         1 UNK         0.0000 
     52 H52         2.4144   48.1492   18.8919 H         1 UNK         0.0000 
     53 H53         3.7576   54.8471   25.2119 H         1 UNK         0.0000 
     54 H54         2.2598   51.3323   27.7879 H         1 UNK         0.0000 
     55 H55         3.8284   52.0967   27.6959 H         1 UNK         0.0000 
     56 H56         3.3258   51.4170   30.0293 H         1 UNK         0.0000 
     57 H57         1.4662   52.5692   31.2802 H         1 UNK         0.0000 
     58 H58         0.8251   51.6526   29.9445 H         1 UNK         0.0000 
     59 H59        -0.2008   53.9117   29.9801 H         1 UNK         0.0000 
     60 H60         0.3052   54.5855   27.6831 H         1 UNK         0.0000 
     61 H61         0.1107   52.8520   27.7604 H         1 UNK         0.0000 
     62 H62         1.2233   55.9271   29.5044 H         1 UNK         0.0000 
     63 H63         1.6002   55.2131   31.0243 H         1 UNK         0.0000 
     64 H64         3.7263   55.6973   29.6813 H         1 UNK         0.0000 
     65 H65         3.9043   53.5808   31.0793 H         1 UNK         0.0000 
     66 H66         4.7496   53.4136   29.5887 H         1 UNK         0.0000 
     67 H67         4.0920   54.6101   27.5289 H         1 UNK         0.0000 
     68 H68         2.6996   55.6453   27.4781 H         1 UNK         0.0000 
     69 H69         2.2937   48.4979   20.6689 H         1 UNK         0.0000 
@<TRIPOS>BOND
     1    1    5 2    
     2    1    2 1    
     3    1   40 1    
     4    2    3 2    
     5    2   41 1    
     6    3    4 1    
     7    3    6 1    
     8    4    5 1    
     9    5   42 1    
    10    6    7 1    
    11    6   43 1    
    12    6   44 1    
    13    7   18 am   BACKBONE|DICT|INTERRES
    14    7    8 1    
    15    8    9 1    
    16    8   14 1    
    17    8   10 1    
    18   10   11 1    
    19   10   45 1    
    20   10   46 1    
    21   11   12 1    
    22   11   47 1    
    23   11   48 1    
    24   12   13 1    
    25   12   49 1    
    26   12   50 1    
    27   13   14 1    
    28   13   51 1    
    29   13   52 1    
    30   14   15 2    
    31   15   16 1    
    32   15   39 1    
    33   16   17 1    
    34   16   18 1    
    35   16   20 1    
    36   18   19 2    
    37   20   22 am   BACKBONE|DICT|INTERRES
    38   20   21 2    
    39   22   23 am   BACKBONE|DICT|INTERRES
    40   22   25 1    
    41   23   28 1    
    42   23   24 2    
    43   24   26 1    
    44   26   29 1    
    45   26   27 2    
    46   27   53 1    
    47   27   28 1    
    48   29   34 1    
    49   29   38 1    
    50   29   30 1    
    51   30   31 1    
    52   30   54 1    
    53   30   55 1    
    54   31   37 1    
    55   31   32 1    
    56   31   56 1    
    57   32   33 1    
    58   32   57 1    
    59   32   58 1    
    60   33   34 1    
    61   33   35 1    
    62   33   59 1    
    63   34   60 1    
    64   34   61 1    
    65   35   36 1    
    66   35   62 1    
    67   35   63 1    
    68   36   37 1    
    69   36   38 1    
    70   36   64 1    
    71   37   65 1    
    72   37   66 1    
    73   38   67 1    
    74   38   68 1    
    75   39   69 1    
@<TRIPOS>SUBSTRUCTURE
     1 UNK         1 GROUP             0       ****    0 ROOT    
