@<TRIPOS>MOLECULE
ZINC64713758_1212
49   52    1
SMALL
USER_CHARGES


@<TRIPOS>ATOM
      1 C1          4.0274   52.1556   29.9460 C.3       1 UNK         0.0000 
      2 O2          3.7698   53.4675   29.4632 O.3       1 UNK         0.0000 
      3 C3          4.4300   53.7961   28.3042 C.ar      1 UNK         0.0000 
      4 C4          5.7883   54.1133   28.3522 C.ar      1 UNK         0.0000 
      5 C5          6.4650   54.5066   27.2054 C.ar      1 UNK         0.0000 
      6 C6          5.7907   54.6086   25.9940 C.ar      1 UNK         0.0000 
      7 C7          4.4359   54.2960   25.9307 C.ar      1 UNK         0.0000 
      8 C8          3.7508   53.8843   27.0815 C.ar      1 UNK         0.0000 
      9 S9          2.0076   53.5031   27.0116 S.o2      1 UNK         0.0000 
     10 O10         1.8622   52.0940   27.3788 O.2       1 UNK         0.0000 
     11 O11         1.3452   54.5316   27.8175 O.2       1 UNK         0.0000 
     12 N12         1.5044   53.6966   25.3285 N.pl3     1 UNK         0.0000 
     13 C13         1.8729   52.7244   24.2763 C.3       1 UNK         0.0000 
     14 C14         0.6470   52.0667   23.6024 C.3       1 UNK         0.0000 
     15 H15         0.0402   52.8951   23.2353 H         1 UNK         0.0000 
     16 C16         1.0880   51.2679   22.3897 C.2       1 UNK         0.0000 
     17 C17         1.9154   50.1456   22.3165 C.2       1 UNK         0.0000 
     18 C18         2.1043   49.6501   21.0243 C.2       1 UNK         0.0000 
     19 C19         1.4489   50.4016   20.0685 C.2       1 UNK         0.0000 
     20 S20         0.5666   51.7064   20.7826 S.3       1 UNK         0.0000 
     21 C21        -0.2515   51.3016   24.5694 C.2       1 UNK         0.0000 
     22 C22        -1.5236   51.5343   24.9456 C.2       1 UNK         0.0000 
     23 C23        -2.4677   52.5927   24.5552 C.2       1 UNK         0.0000 
     24 C24        -3.7016   52.6521   25.0956 C.2       1 UNK         0.0000 
     25 C25        -4.0678   51.6391   26.0767 C.2       1 UNK         0.0000 
     26 C26        -3.2132   50.6460   26.4378 C.2       1 UNK         0.0000 
     27 C27        -1.9355   50.5719   25.8703 C.2       1 UNK         0.0000 
     28 N28        -0.9859   49.6967   26.0816 N.pl3     1 UNK         0.0000 
     29 C29         0.2011   50.0379   25.2836 C.3       1 UNK         0.0000 
     30 Br30        6.7045   55.2095   24.4380 Br        1 UNK         0.0000 
     31 H31         3.5554   52.0347   30.9210 H         1 UNK         0.0000 
     32 H32         3.6127   51.3979   29.2814 H         1 UNK         0.0000 
     33 H33         5.0926   51.9597   30.0702 H         1 UNK         0.0000 
     34 H34         6.3303   54.0971   29.2811 H         1 UNK         0.0000 
     35 H35         7.5044   54.7633   27.2806 H         1 UNK         0.0000 
     36 H36         3.9357   54.3985   24.9812 H         1 UNK         0.0000 
     37 H37         1.1682   54.6179   25.0375 H         1 UNK         0.0000 
     38 H38         2.4554   53.2620   23.5257 H         1 UNK         0.0000 
     39 H39         2.5484   51.9859   24.6989 H         1 UNK         0.0000 
     40 H40         2.3691   49.6969   23.1873 H         1 UNK         0.0000 
     41 H41         2.7042   48.7833   20.7920 H         1 UNK         0.0000 
     42 H42         1.4455   50.2542   18.9974 H         1 UNK         0.0000 
     43 H43        -2.2026   53.3412   23.8232 H         1 UNK         0.0000 
     44 H44        -4.4012   53.4237   24.8076 H         1 UNK         0.0000 
     45 H45        -5.0469   51.6796   26.5330 H         1 UNK         0.0000 
     46 H46        -3.5287   49.9197   27.1753 H         1 UNK         0.0000 
     47 H47         0.4145   49.1968   24.6225 H         1 UNK         0.0000 
     48 H48         1.0296   50.1874   25.9748 H         1 UNK         0.0000 
     49 H49        -1.0454   48.9253   26.7575 H         1 UNK         0.0000 
@<TRIPOS>BOND
     1    1    2 1    
     2    1   31 1    
     3    1   32 1    
     4    1   33 1    
     5    2    3 1    
     6    3    8 ar   
     7    3    4 ar   
     8    4    5 ar   
     9    4   34 1    
    10    5    6 ar   
    11    5   35 1    
    12    6    7 ar   
    13    6   30 1    
    14    7    8 ar   
    15    7   36 1    
    16    8    9 1    
    17    9   10 2    
    18    9   11 2    
    19    9   12 1    
    20   12   13 1    
    21   12   37 1    
    22   13   14 1    
    23   13   38 1    
    24   13   39 1    
    25   14   15 1    
    26   14   16 1    
    27   14   21 1    
    28   16   20 1    
    29   16   17 2    
    30   17   18 1    
    31   17   40 1    
    32   18   19 2    
    33   18   41 1    
    34   19   20 1    
    35   19   42 1    
    36   21   29 1    
    37   21   22 2    
    38   22   27 1    
    39   22   23 1    
    40   23   24 2    
    41   23   43 1    
    42   24   25 1    
    43   24   44 1    
    44   25   26 2    
    45   25   45 1    
    46   26   27 1    
    47   26   46 1    
    48   27   28 2    
    49   28   29 1    
    50   28   49 1    
    51   29   47 1    
    52   29   48 1    
@<TRIPOS>SUBSTRUCTURE
     1 UNK         1 GROUP             0       ****    0 ROOT    
