@<TRIPOS>MOLECULE
ZINC63349897_5721
74   79    1
SMALL
USER_CHARGES


@<TRIPOS>ATOM
      1 C1         -8.2069   51.8017   29.7198 C.3       1 UNK         0.0000 
      2 C2         -6.9212   51.1840   30.2475 C.ar      1 UNK         0.0000 
      3 C3         -6.8751   50.6898   31.5542 C.ar      1 UNK         0.0000 
      4 C4         -5.6950   50.1474   32.0587 C.ar      1 UNK         0.0000 
      5 C5         -4.5537   50.0968   31.2595 C.ar      1 UNK         0.0000 
      6 C6         -4.5871   50.5769   29.9482 C.ar      1 UNK         0.0000 
      7 C7         -5.7765   51.1204   29.4380 C.ar      1 UNK         0.0000 
      8 O8         -5.8148   51.6468   28.1697 O.3       1 UNK         0.0000 
      9 C9         -5.9857   50.7138   27.1002 C.3       1 UNK         0.0000 
     10 C10        -4.9080   50.9232   26.0362 C.ar      1 UNK         0.0000 
     11 C11        -4.1935   49.8186   25.5531 C.ar      1 UNK         0.0000 
     12 C12        -3.1767   49.9684   24.5996 C.ar      1 UNK         0.0000 
     13 C13        -2.8979   51.2580   24.1300 C.ar      1 UNK         0.0000 
     14 C14        -3.6016   52.3607   24.5988 C.ar      1 UNK         0.0000 
     15 C15        -4.6094   52.2112   25.5622 C.ar      1 UNK         0.0000 
     16 O16        -5.3204   53.2783   26.0773 O.3       1 UNK         0.0000 
     17 C17        -4.8231   54.5944   25.8869 C.3       1 UNK         0.0000 
     18 C18        -2.3340   48.7392   24.1807 C.3       1 UNK         0.0000 
     19 H19        -2.8396   47.8958   24.6542 H         1 UNK         0.0000 
     20 C20        -0.8752   48.7512   24.7258 C.3       1 UNK         0.0000 
     21 H21        -0.4328   47.7539   24.7228 H         1 UNK         0.0000 
     22 C22        -0.0581   49.7346   23.9215 C.2       1 UNK         0.0000 
     23 C23         0.3813   50.7140   24.7287 C.2       1 UNK         0.0000 
     24 C24         1.1042   51.9633   24.4582 C.2       1 UNK         0.0000 
     25 C25         1.3786   52.8424   25.4580 C.2       1 UNK         0.0000 
     26 C26         0.9642   52.4578   26.8031 C.2       1 UNK         0.0000 
     27 C27         0.3059   51.3017   27.0734 C.2       1 UNK         0.0000 
     28 C28        -0.0150   50.4244   26.0357 C.2       1 UNK         0.0000 
     29 N29        -0.6844   49.2965   26.0817 N.pl3     1 UNK         0.0000 
     30 O30         1.9638   54.0625   25.3196 O.3       1 UNK         0.0000 
     31 C31         2.2879   54.5717   24.0280 C.3       1 UNK         0.0000 
     32 C32         3.7564   54.3538   23.7175 C.ar      1 UNK         0.0000 
     33 C33         4.7131   54.4958   24.7287 C.ar      1 UNK         0.0000 
     34 C34         6.0659   54.3852   24.4253 C.ar      1 UNK         0.0000 
     35 C35         6.4549   54.1364   23.1126 C.ar      1 UNK         0.0000 
     36 C36         5.5046   53.9917   22.1012 C.ar      1 UNK         0.0000 
     37 C37         4.1518   54.0967   22.4037 C.ar      1 UNK         0.0000 
     38 C38        -0.0418   49.4978   22.4222 C.3       1 UNK         0.0000 
     39 C39        -1.4909   49.2860   21.8977 C.3       1 UNK         0.0000 
     40 N40        -2.3179   48.4136   22.7451 N.3       1 UNK         0.0000 
     41 C41        -3.3136   50.5627   29.1175 C.3       1 UNK         0.0000 
     42 H42        -8.6176   51.1903   28.9151 H         1 UNK         0.0000 
     43 H43        -8.9621   51.9178   30.4986 H         1 UNK         0.0000 
     44 H44        -8.0051   52.7904   29.3066 H         1 UNK         0.0000 
     45 H45        -7.7498   50.7318   32.1877 H         1 UNK         0.0000 
     46 H46        -5.6527   49.7857   33.0761 H         1 UNK         0.0000 
     47 H47        -3.6327   49.7009   31.6651 H         1 UNK         0.0000 
     48 H48        -5.9970   49.6756   27.4422 H         1 UNK         0.0000 
     49 H49        -6.9575   50.9016   26.6428 H         1 UNK         0.0000 
     50 H50        -4.4117   48.8358   25.9471 H         1 UNK         0.0000 
     51 H51        -2.1006   51.4419   23.4317 H         1 UNK         0.0000 
     52 H52        -3.3374   53.3318   24.2098 H         1 UNK         0.0000 
     53 H53        -5.4100   55.2909   26.4863 H         1 UNK         0.0000 
     54 H54        -3.7857   54.6775   26.2138 H         1 UNK         0.0000 
     55 H55        -4.8961   54.8978   24.8412 H         1 UNK         0.0000 
     56 H56         1.4025   52.1873   23.4476 H         1 UNK         0.0000 
     57 H57         1.2023   53.1243   27.6188 H         1 UNK         0.0000 
     58 H58         0.0247   51.0779   28.0935 H         1 UNK         0.0000 
     59 H59         1.6196   54.2598   23.2249 H         1 UNK         0.0000 
     60 H60         2.1556   55.6489   24.0817 H         1 UNK         0.0000 
     61 H61         4.4099   54.7071   25.7445 H         1 UNK         0.0000 
     62 H62         6.8108   54.4959   25.1997 H         1 UNK         0.0000 
     63 H63         7.5072   54.0637   22.8804 H         1 UNK         0.0000 
     64 H64         5.8164   53.8102   21.0828 H         1 UNK         0.0000 
     65 H65         3.4199   54.0070   21.6128 H         1 UNK         0.0000 
     66 H66         0.4282   50.3243   21.8878 H         1 UNK         0.0000 
     67 H67         0.5629   48.6209   22.1947 H         1 UNK         0.0000 
     68 H68        -1.9791   50.2501   21.7697 H         1 UNK         0.0000 
     69 H69        -1.4361   48.8551   20.8967 H         1 UNK         0.0000 
     70 H70        -2.0130   47.4587   22.6229 H         1 UNK         0.0000 
     71 H71        -3.2964   49.6970   28.4568 H         1 UNK         0.0000 
     72 H72        -3.2345   51.4612   28.5058 H         1 UNK         0.0000 
     73 H73        -2.4278   50.5371   29.7522 H         1 UNK         0.0000 
     74 H74        -1.0590   48.8771   26.9508 H         1 UNK         0.0000 
@<TRIPOS>BOND
     1    1    2 1    
     2    1   42 1    
     3    1   43 1    
     4    1   44 1    
     5    2    7 ar   
     6    2    3 ar   
     7    3    4 ar   
     8    3   45 1    
     9    4    5 ar   
    10    4   46 1    
    11    5    6 ar   
    12    5   47 1    
    13    6    7 ar   
    14    6   41 1    
    15    7    8 1    
    16    8    9 1    
    17    9   10 1    
    18    9   48 1    
    19    9   49 1    
    20   10   15 ar   
    21   10   11 ar   
    22   11   12 ar   
    23   11   50 1    
    24   12   13 ar   
    25   12   18 1    
    26   13   14 ar   
    27   13   51 1    
    28   14   15 ar   
    29   14   52 1    
    30   15   16 1    
    31   16   17 1    
    32   17   53 1    
    33   17   54 1    
    34   17   55 1    
    35   18   19 1    
    36   18   40 1    
    37   18   20 1    
    38   20   21 1    
    39   20   29 1    
    40   20   22 1    
    41   22   23 2    
    42   22   38 1    
    43   23   28 1    
    44   23   24 1    
    45   24   25 2    
    46   24   56 1    
    47   25   26 1    
    48   25   30 1    
    49   26   27 2    
    50   26   57 1    
    51   27   28 1    
    52   27   58 1    
    53   28   29 2    
    54   29   74 1    
    55   30   31 1    
    56   31   32 1    
    57   31   59 1    
    58   31   60 1    
    59   32   37 ar   
    60   32   33 ar   
    61   33   34 ar   
    62   33   61 1    
    63   34   35 ar   
    64   34   62 1    
    65   35   36 ar   
    66   35   63 1    
    67   36   37 ar   
    68   36   64 1    
    69   37   65 1    
    70   38   39 1    
    71   38   66 1    
    72   38   67 1    
    73   39   40 1    
    74   39   68 1    
    75   39   69 1    
    76   40   70 1    
    77   41   71 1    
    78   41   72 1    
    79   41   73 1    
@<TRIPOS>SUBSTRUCTURE
     1 UNK         1 GROUP             0       ****    0 ROOT    
