@<TRIPOS>MOLECULE
ZINC17133584_827
58   59    1
SMALL
USER_CHARGES


@<TRIPOS>ATOM
      1 C1          7.4037   55.5221   21.7206 C.3       1 UNK         0.0000 
      2 C2          6.0958   54.8768   21.3183 C.2       1 UNK         0.0000 
      3 C3          5.7613   54.7146   19.9688 C.2       1 UNK         0.0000 
      4 S4          4.3735   53.7181   19.7927 S.3       1 UNK         0.0000 
      5 C5          4.1792   53.5566   21.5118 C.2       1 UNK         0.0000 
      6 C6          5.1666   54.2823   22.2317 C.2       1 UNK         0.0000 
      7 C7          5.2403   54.4363   23.7139 C.2       1 UNK         0.0000 
      8 O8          5.9061   55.2921   24.2971 O.2       1 UNK         0.0000 
      9 O9          4.4343   53.5347   24.3305 O.3       1 UNK         0.0000 
     10 C10         3.8765   53.5451   25.6637 C.3       1 UNK         0.0000 
     11 H11         3.4364   52.5671   25.7938 H         1 UNK         0.0000 
     12 C12         2.7043   54.4967   25.5870 C.3       1 UNK         0.0000 
     13 C13         4.8780   53.6784   26.8575 C.2       1 UNK         0.0000 
     14 O14         6.0905   53.6976   26.6548 O.2       1 UNK         0.0000 
     15 N15         4.4668   53.7221   28.1433 N.am      1 UNK         0.0000 
     16 C16         3.1728   53.8882   28.6658 C.ar      1 UNK         0.0000 
     17 C17         2.9521   55.1143   29.2804 C.ar      1 UNK         0.0000 
     18 C18         1.7285   55.3975   29.8674 C.ar      1 UNK         0.0000 
     19 C19         0.7043   54.4648   29.8646 C.ar      1 UNK         0.0000 
     20 C20         0.9039   53.2406   29.2473 C.ar      1 UNK         0.0000 
     21 C21         2.1347   52.9285   28.6386 C.ar      1 UNK         0.0000 
     22 O22         2.3652   51.6955   28.0802 O.3       1 UNK         0.0000 
     23 C23         1.2468   50.8992   27.6816 C.3       1 UNK         0.0000 
     24 Cl24        1.5028   56.8963   30.6396 Cl        1 UNK         0.0000 
     25 N25         3.1380   52.7882   22.0576 N.am      1 UNK         0.0000 
     26 C26         2.1544   52.0901   21.4357 C.2       1 UNK         0.0000 
     27 O27         1.9745   52.0951   20.2182 O.2       1 UNK         0.0000 
     28 C28         1.1535   51.2860   22.3277 C.3       1 UNK         0.0000 
     29 C29        -0.0850   52.1747   22.5986 C.3       1 UNK         0.0000 
     30 C30         1.7610   50.8494   23.6847 C.3       1 UNK         0.0000 
     31 C31         0.6942   49.9979   21.5922 C.3       1 UNK         0.0000 
     32 C32         6.4597   55.2163   18.7225 C.3       1 UNK         0.0000 
     33 H33         7.2498   56.4960   22.1585 H         1 UNK         0.0000 
     34 H34         7.9006   54.9244   22.4786 H         1 UNK         0.0000 
     35 H35         8.1314   55.6079   20.9165 H         1 UNK         0.0000 
     36 H36         2.0742   54.4966   26.4698 H         1 UNK         0.0000 
     37 H37         3.1089   55.4934   25.4247 H         1 UNK         0.0000 
     38 H38         2.0518   54.2640   24.7445 H         1 UNK         0.0000 
     39 H39         5.2182   53.8470   28.8038 H         1 UNK         0.0000 
     40 H40         3.7343   55.8533   29.3125 H         1 UNK         0.0000 
     41 H41        -0.2379   54.6813   30.3457 H         1 UNK         0.0000 
     42 H42         0.0830   52.5416   29.2820 H         1 UNK         0.0000 
     43 H43         1.5923   49.9493   27.2817 H         1 UNK         0.0000 
     44 H44         0.5740   50.6646   28.5055 H         1 UNK         0.0000 
     45 H45         0.6730   51.3991   26.9001 H         1 UNK         0.0000 
     46 H46         3.1394   52.7612   23.0658 H         1 UNK         0.0000 
     47 H47        -0.8372   51.6441   23.1845 H         1 UNK         0.0000 
     48 H48        -0.5700   52.4899   21.6728 H         1 UNK         0.0000 
     49 H49         0.1787   53.0754   23.1574 H         1 UNK         0.0000 
     50 H50         2.6494   50.2270   23.5631 H         1 UNK         0.0000 
     51 H51         2.0261   51.7048   24.3029 H         1 UNK         0.0000 
     52 H52         1.0471   50.2616   24.2654 H         1 UNK         0.0000 
     53 H53         1.5372   49.3380   21.3772 H         1 UNK         0.0000 
     54 H54        -0.0147   49.4270   22.1928 H         1 UNK         0.0000 
     55 H55         0.2023   50.2153   20.6423 H         1 UNK         0.0000 
     56 H56         6.9931   54.4153   18.2167 H         1 UNK         0.0000 
     57 H57         5.7507   55.6271   18.0031 H         1 UNK         0.0000 
     58 H58         7.1834   56.0062   18.9225 H         1 UNK         0.0000 
@<TRIPOS>BOND
     1    1    2 1    
     2    1   33 1    
     3    1   34 1    
     4    1   35 1    
     5    2    6 1    
     6    2    3 2    
     7    3    4 1    
     8    3   32 1    
     9    4    5 1    
    10    5    6 2    
    11    5   25 am   BACKBONE|DICT|INTERRES
    12    6    7 1    
    13    7    8 2    
    14    7    9 1    
    15    9   10 1    
    16   10   11 1    
    17   10   12 1    
    18   10   13 1    
    19   12   36 1    
    20   12   37 1    
    21   12   38 1    
    22   13   14 2    
    23   13   15 am   BACKBONE|DICT|INTERRES
    24   15   16 1    
    25   15   39 1    
    26   16   21 ar   
    27   16   17 ar   
    28   17   18 ar   
    29   17   40 1    
    30   18   19 ar   
    31   18   24 1    
    32   19   20 ar   
    33   19   41 1    
    34   20   21 ar   
    35   20   42 1    
    36   21   22 1    
    37   22   23 1    
    38   23   43 1    
    39   23   44 1    
    40   23   45 1    
    41   25   26 am   BACKBONE|DICT|INTERRES
    42   25   46 1    
    43   26   27 2    
    44   26   28 1    
    45   28   29 1    
    46   28   30 1    
    47   28   31 1    
    48   29   47 1    
    49   29   48 1    
    50   29   49 1    
    51   30   50 1    
    52   30   51 1    
    53   30   52 1    
    54   31   53 1    
    55   31   54 1    
    56   31   55 1    
    57   32   56 1    
    58   32   57 1    
    59   32   58 1    
@<TRIPOS>SUBSTRUCTURE
     1 UNK         1 GROUP             0       ****    0 ROOT    
