@<TRIPOS>MOLECULE
ZINC03012268_2430
54   58    1
SMALL
USER_CHARGES


@<TRIPOS>ATOM
      1 C1          3.2974   54.0086   29.9612 C.3       1 UNK         0.0000 
      2 C2          3.6929   54.0464   28.5008 C.ar      1 UNK         0.0000 
      3 C3          5.0110   54.3079   28.1296 C.ar      1 UNK         0.0000 
      4 C4          5.3678   54.3319   26.7840 C.ar      1 UNK         0.0000 
      5 C5          4.4085   54.0973   25.7814 C.ar      1 UNK         0.0000 
      6 C6          3.0827   53.8183   26.1604 C.ar      1 UNK         0.0000 
      7 C7          2.7357   53.7961   27.5145 C.ar      1 UNK         0.0000 
      8 C8          1.9925   53.5420   25.1282 C.3       1 UNK         0.0000 
      9 N9          4.7041   54.0966   24.4005 N.am      1 UNK         0.0000 
     10 C10         5.8187   54.4968   23.7562 C.2       1 UNK         0.0000 
     11 O11         6.8290   54.9471   24.2952 O.2       1 UNK         0.0000 
     12 C12         5.6936   54.4512   22.3173 C.ar      1 UNK         0.0000 
     13 C13         4.9894   53.4920   21.5630 C.ar      1 UNK         0.0000 
     14 C14         5.1766   53.8253   20.2358 C.ar      1 UNK         0.0000 
     15 N15         5.9490   54.9713   20.2552 N.pl3     1 UNK         0.0000 
     16 N16         6.3034   55.2973   21.5096 N.2       1 UNK         0.0000 
     17 C17         6.4533   55.7147   19.0933 C.3       1 UNK         0.0000 
     18 H18         6.3219   56.7772   19.3085 H         1 UNK         0.0000 
     19 C19         5.5560   55.3291   17.8903 C.3       1 UNK         0.0000 
     20 C20         5.2636   53.8106   17.7942 C.3       1 UNK         0.0000 
     21 H21         6.1997   53.2730   17.6331 H         1 UNK         0.0000 
     22 N22         4.7132   53.2873   19.0500 N.pl3     1 UNK         0.0000 
     23 C23         4.4178   53.4901   16.5656 C.ar      1 UNK         0.0000 
     24 C24         5.0402   52.9961   15.4024 C.ar      1 UNK         0.0000 
     25 C25         4.2969   52.7119   14.2512 C.ar      1 UNK         0.0000 
     26 C26         2.9257   52.9319   14.3002 C.ar      1 UNK         0.0000 
     27 C27         2.3127   53.4100   15.4230 C.ar      1 UNK         0.0000 
     28 C28         3.0269   53.7080   16.5780 C.ar      1 UNK         0.0000 
     29 O29         0.9858   53.5650   15.1795 O.3       1 UNK         0.0000 
     30 C30         0.7551   52.9798   13.9248 C.3       1 UNK         0.0000 
     31 O31         2.0030   52.7725   13.3165 O.3       1 UNK         0.0000 
     32 C32         7.9667   55.5001   18.8261 C.3       1 UNK         0.0000 
     33 F33         8.3784   56.2792   17.8260 F         1 UNK         0.0000 
     34 F34         8.7041   55.8035   19.8956 F         1 UNK         0.0000 
     35 F35         8.2538   54.2446   18.4821 F         1 UNK         0.0000 
     36 H36         4.1719   53.9516   30.6116 H         1 UNK         0.0000 
     37 H37         2.6822   53.1309   30.1637 H         1 UNK         0.0000 
     38 H38         2.7097   54.8944   30.2023 H         1 UNK         0.0000 
     39 H39         5.7659   54.5009   28.8817 H         1 UNK         0.0000 
     40 H40         6.4015   54.5275   26.5555 H         1 UNK         0.0000 
     41 H41         1.7157   53.5889   27.8092 H         1 UNK         0.0000 
     42 H42         2.2776   52.6993   24.4958 H         1 UNK         0.0000 
     43 H43         1.0352   53.2970   25.5887 H         1 UNK         0.0000 
     44 H44         1.8555   54.4103   24.4819 H         1 UNK         0.0000 
     45 H45         3.9418   53.8010   23.8115 H         1 UNK         0.0000 
     46 H46         4.4174   52.6524   21.9286 H         1 UNK         0.0000 
     47 H47         4.6207   55.8915   17.9384 H         1 UNK         0.0000 
     48 H48         6.0205   55.6728   16.9657 H         1 UNK         0.0000 
     49 H49         4.6243   52.2794   18.9748 H         1 UNK         0.0000 
     50 H50         6.1084   52.8302   15.3923 H         1 UNK         0.0000 
     51 H51         4.7809   52.3402   13.3629 H         1 UNK         0.0000 
     52 H52         2.5361   54.0979   17.4571 H         1 UNK         0.0000 
     53 H53         0.1375   53.6355   13.3090 H         1 UNK         0.0000 
     54 H54         0.2576   52.0161   14.0604 H         1 UNK         0.0000 
@<TRIPOS>BOND
     1    1    2 1    
     2    1   36 1    
     3    1   37 1    
     4    1   38 1    
     5    2    7 ar   
     6    2    3 ar   
     7    3    4 ar   
     8    3   39 1    
     9    4    5 ar   
    10    4   40 1    
    11    5    6 ar   
    12    5    9 1    
    13    6    7 ar   
    14    6    8 1    
    15    7   41 1    
    16    8   42 1    
    17    8   43 1    
    18    8   44 1    
    19    9   10 am   BACKBONE|DICT|INTERRES
    20    9   45 1    
    21   10   11 2    
    22   10   12 1    
    23   12   16 ar   
    24   12   13 ar   
    25   13   14 ar   
    26   13   46 1    
    27   14   22 1    
    28   14   15 ar   
    29   15   16 ar   
    30   15   17 1    
    31   17   18 1    
    32   17   19 1    
    33   17   32 1    
    34   19   20 1    
    35   19   47 1    
    36   19   48 1    
    37   20   21 1    
    38   20   22 1    
    39   20   23 1    
    40   22   49 1    
    41   23   28 ar   
    42   23   24 ar   
    43   24   25 ar   
    44   24   50 1    
    45   25   26 ar   
    46   25   51 1    
    47   26   31 1    
    48   26   27 ar   
    49   27   28 ar   
    50   27   29 1    
    51   28   52 1    
    52   29   30 1    
    53   30   31 1    
    54   30   53 1    
    55   30   54 1    
    56   32   33 1    
    57   32   34 1    
    58   32   35 1    
@<TRIPOS>SUBSTRUCTURE
     1 UNK         1 GROUP             0       ****    0 ROOT    
