@<TRIPOS>MOLECULE
ZINC27569784_2272
56   58    1
SMALL
USER_CHARGES


@<TRIPOS>ATOM
      1 C1          2.5862   52.3310   22.0439 C.3       1 UNK         0.0000 
      2 C2          1.8033   51.2710   22.8477 C.2       1 UNK         0.0000 
      3 N3          1.3874   50.1373   22.3848 N.2       1 UNK         0.0000 
      4 N4          1.6243   49.8011   21.1364 N.2       1 UNK         0.0000 
      5 C5          0.9042   50.2750   20.1805 C.2       1 UNK         0.0000 
      6 N6         -0.2430   51.0124   20.2807 N.am      1 UNK         0.0000 
      7 C7         -1.1233   51.5006   19.3820 C.2       1 UNK         0.0000 
      8 O8         -2.1292   52.0964   19.7613 O.2       1 UNK         0.0000 
      9 C9         -0.8272   51.2205   17.8877 C.3       1 UNK         0.0000 
     10 C10         0.6883   51.1461   17.5452 C.3       1 UNK         0.0000 
     11 H11         0.8313   50.8790   16.4986 H         1 UNK         0.0000 
     12 S12         1.5050   49.8582   18.5373 S.3       1 UNK         0.0000 
     13 C13         1.4242   52.5150   17.6729 C.2       1 UNK         0.0000 
     14 O14         0.7468   53.5451   17.6727 O.2       1 UNK         0.0000 
     15 N15         2.7760   52.5195   17.7573 N.am      1 UNK         0.0000 
     16 C16         3.6169   53.6423   17.8934 C.ar      1 UNK         0.0000 
     17 C17         3.3250   54.9003   17.3407 C.ar      1 UNK         0.0000 
     18 C18         4.2016   55.9665   17.5287 C.ar      1 UNK         0.0000 
     19 C19         5.3756   55.7750   18.2500 C.ar      1 UNK         0.0000 
     20 C20         5.6879   54.5244   18.7782 C.ar      1 UNK         0.0000 
     21 C21         4.8090   53.4591   18.5966 C.ar      1 UNK         0.0000 
     22 C22         1.5069   51.5438   24.2323 C.2       1 UNK         0.0000 
     23 C23         1.8376   52.6557   24.9273 C.2       1 UNK         0.0000 
     24 C24         1.5808   52.8981   26.3625 C.ar      1 UNK         0.0000 
     25 C25         0.7046   52.1165   27.1228 C.ar      1 UNK         0.0000 
     26 C26         0.5010   52.4010   28.4707 C.ar      1 UNK         0.0000 
     27 C27         1.1562   53.4768   29.0886 C.ar      1 UNK         0.0000 
     28 C28         2.0500   54.2354   28.3226 C.ar      1 UNK         0.0000 
     29 C29         2.2684   53.9423   26.9814 C.ar      1 UNK         0.0000 
     30 N30         0.9418   53.7948   30.4560 N.pl3     1 UNK         0.0000 
     31 C31         0.9897   55.1983   30.8674 C.3       1 UNK         0.0000 
     32 C32         0.1539   52.8929   31.2940 C.3       1 UNK         0.0000 
     33 H33         3.3159   52.8698   22.6490 H         1 UNK         0.0000 
     34 H34         3.1662   51.8844   21.2334 H         1 UNK         0.0000 
     35 H35         1.9088   53.0592   21.5958 H         1 UNK         0.0000 
     36 H36        -0.5171   51.2134   21.2289 H         1 UNK         0.0000 
     37 H37        -1.2999   50.2690   17.6493 H         1 UNK         0.0000 
     38 H38        -1.3298   51.9807   17.2903 H         1 UNK         0.0000 
     39 H39         3.2406   51.6194   17.8231 H         1 UNK         0.0000 
     40 H40         2.4258   55.0645   16.7677 H         1 UNK         0.0000 
     41 H41         3.9746   56.9372   17.1122 H         1 UNK         0.0000 
     42 H42         6.0553   56.6029   18.3928 H         1 UNK         0.0000 
     43 H43         6.6089   54.3812   19.3217 H         1 UNK         0.0000 
     44 H44         5.0605   52.4949   19.0093 H         1 UNK         0.0000 
     45 H45         0.9921   50.7359   24.7350 H         1 UNK         0.0000 
     46 H46         2.3373   53.4697   24.4218 H         1 UNK         0.0000 
     47 H47         0.1659   51.2897   26.6848 H         1 UNK         0.0000 
     48 H48        -0.1920   51.7776   29.0154 H         1 UNK         0.0000 
     49 H49         2.5975   55.0551   28.7584 H         1 UNK         0.0000 
     50 H50         2.9695   54.5460   26.4234 H         1 UNK         0.0000 
     51 H51         1.9770   55.6369   30.7294 H         1 UNK         0.0000 
     52 H52         0.7041   55.3157   31.9129 H         1 UNK         0.0000 
     53 H53         0.3057   55.7961   30.2707 H         1 UNK         0.0000 
     54 H54         0.5098   51.8663   31.1987 H         1 UNK         0.0000 
     55 H55         0.2122   53.1626   32.3502 H         1 UNK         0.0000 
     56 H56        -0.8952   52.8989   30.9992 H         1 UNK         0.0000 
@<TRIPOS>BOND
     1    1    2 1    
     2    1   33 1    
     3    1   34 1    
     4    1   35 1    
     5    2    3 2    
     6    2   22 1    
     7    3    4 1    
     8    4    5 2    
     9    5   12 1    
    10    5    6 am   BACKBONE|DICT|INTERRES
    11    6    7 am   BACKBONE|DICT|INTERRES
    12    6   36 1    
    13    7    8 2    
    14    7    9 1    
    15    9   10 1    
    16    9   37 1    
    17    9   38 1    
    18   10   11 1    
    19   10   12 1    
    20   10   13 1    
    21   13   14 2    
    22   13   15 am   BACKBONE|DICT|INTERRES
    23   15   16 1    
    24   15   39 1    
    25   16   21 ar   
    26   16   17 ar   
    27   17   18 ar   
    28   17   40 1    
    29   18   19 ar   
    30   18   41 1    
    31   19   20 ar   
    32   19   42 1    
    33   20   21 ar   
    34   20   43 1    
    35   21   44 1    
    36   22   23 2    
    37   22   45 1    
    38   23   24 1    
    39   23   46 1    
    40   24   29 ar   
    41   24   25 ar   
    42   25   26 ar   
    43   25   47 1    
    44   26   27 ar   
    45   26   48 1    
    46   27   28 ar   
    47   27   30 1    
    48   28   29 ar   
    49   28   49 1    
    50   29   50 1    
    51   30   31 1    
    52   30   32 1    
    53   31   51 1    
    54   31   52 1    
    55   31   53 1    
    56   32   54 1    
    57   32   55 1    
    58   32   56 1    
@<TRIPOS>SUBSTRUCTURE
     1 UNK         1 GROUP             0       ****    0 ROOT    
