@<TRIPOS>MOLECULE
ZINC34899998_2473
70   73    1
SMALL
USER_CHARGES


@<TRIPOS>ATOM
      1 C1          6.6332   54.7353   24.4520 C.3       1 UNK         0.0000 
      2 C2          5.7387   54.4969   25.6566 C.ar      1 UNK         0.0000 
      3 C3          6.3064   54.2657   26.9089 C.ar      1 UNK         0.0000 
      4 C4          5.4868   54.0353   28.0100 C.ar      1 UNK         0.0000 
      5 C5          4.0925   54.0103   27.8681 C.ar      1 UNK         0.0000 
      6 C6          3.5299   54.2549   26.6095 C.ar      1 UNK         0.0000 
      7 C7          4.3505   54.4944   25.5110 C.ar      1 UNK         0.0000 
      8 C8          3.2240   53.8152   29.0908 C.2       1 UNK         0.0000 
      9 O9          3.4919   54.4944   30.0817 O.2       1 UNK         0.0000 
     10 N10         2.1915   52.9203   29.0791 N.am      1 UNK         0.0000 
     11 C11         1.3254   52.7671   30.2717 C.3       1 UNK         0.0000 
     12 C12        -0.1427   52.8846   29.8030 C.3       1 UNK         0.0000 
     13 C13        -0.4928   51.8873   28.6835 C.3       1 UNK         0.0000 
     14 C14         0.5234   52.0420   27.5273 C.3       1 UNK         0.0000 
     15 H15         0.4029   53.0208   27.0601 H         1 UNK         0.0000 
     16 C16         1.9867   51.9002   28.0282 C.3       1 UNK         0.0000 
     17 C17         0.2065   50.9984   26.4376 C.2       1 UNK         0.0000 
     18 O18         0.7044   49.8768   26.4816 O.2       1 UNK         0.0000 
     19 N19        -0.6525   51.3716   25.4728 N.am      1 UNK         0.0000 
     20 C20        -1.1826   50.4937   24.4187 C.3       1 UNK         0.0000 
     21 H21        -1.7336   51.1898   23.7837 H         1 UNK         0.0000 
     22 C22        -2.2318   49.4850   24.9543 C.3       1 UNK         0.0000 
     23 C23        -2.8749   48.6274   23.8506 C.3       1 UNK         0.0000 
     24 C24        -1.8217   47.9405   22.9710 C.3       1 UNK         0.0000 
     25 C25        -0.8351   48.9565   22.3706 C.3       1 UNK         0.0000 
     26 C26        -0.1444   49.8424   23.4422 C.3       1 UNK         0.0000 
     27 H27         0.4543   49.1585   24.0513 H         1 UNK         0.0000 
     28 N28         0.8210   50.7990   22.8833 N.am      1 UNK         0.0000 
     29 C29         1.9468   50.4911   22.2102 C.2       1 UNK         0.0000 
     30 O30         2.3005   49.3337   21.9850 O.2       1 UNK         0.0000 
     31 C31         2.7707   51.6575   21.7130 C.ar      1 UNK         0.0000 
     32 C32         2.7350   52.9031   22.3563 C.ar      1 UNK         0.0000 
     33 C33         3.5251   53.9520   21.8953 C.ar      1 UNK         0.0000 
     34 C34         4.3612   53.7883   20.7938 C.ar      1 UNK         0.0000 
     35 C35         4.3971   52.5458   20.1465 C.ar      1 UNK         0.0000 
     36 C36         3.6098   51.4918   20.6036 C.ar      1 UNK         0.0000 
     37 O37         5.1033   54.8914   20.4175 O.3       1 UNK         0.0000 
     38 C38         5.9048   54.8185   19.2427 C.3       1 UNK         0.0000 
     39 H39         6.9880   55.7656   24.4300 H         1 UNK         0.0000 
     40 H40         7.5045   54.0791   24.4829 H         1 UNK         0.0000 
     41 H41         6.1129   54.5183   23.5180 H         1 UNK         0.0000 
     42 H42         7.3786   54.2645   27.0370 H         1 UNK         0.0000 
     43 H43         5.9466   53.8786   28.9751 H         1 UNK         0.0000 
     44 H44         2.4576   54.2755   26.4780 H         1 UNK         0.0000 
     45 H45         3.9019   54.6849   24.5502 H         1 UNK         0.0000 
     46 H46         1.5133   53.5093   31.0474 H         1 UNK         0.0000 
     47 H47         1.4983   51.7778   30.6974 H         1 UNK         0.0000 
     48 H48        -0.3441   53.9059   29.4765 H         1 UNK         0.0000 
     49 H49        -0.7996   52.7115   30.6583 H         1 UNK         0.0000 
     50 H50        -1.5135   52.0963   28.3620 H         1 UNK         0.0000 
     51 H51        -0.4257   50.8955   29.1353 H         1 UNK         0.0000 
     52 H52         2.1359   50.9166   28.4790 H         1 UNK         0.0000 
     53 H53         2.7028   51.9922   27.2173 H         1 UNK         0.0000 
     54 H54        -1.1837   52.2117   25.6485 H         1 UNK         0.0000 
     55 H55        -1.7495   48.8161   25.6702 H         1 UNK         0.0000 
     56 H56        -3.0134   50.0103   25.5053 H         1 UNK         0.0000 
     57 H57        -3.5297   47.8787   24.2996 H         1 UNK         0.0000 
     58 H58        -3.5143   49.2554   23.2288 H         1 UNK         0.0000 
     59 H59        -1.2713   47.2066   23.5626 H         1 UNK         0.0000 
     60 H60        -2.3126   47.3818   22.1727 H         1 UNK         0.0000 
     61 H61        -1.3804   49.5990   21.6760 H         1 UNK         0.0000 
     62 H62        -0.0972   48.4203   21.7739 H         1 UNK         0.0000 
     63 H63         0.5803   51.7723   22.9669 H         1 UNK         0.0000 
     64 H64         2.1117   53.0716   23.2226 H         1 UNK         0.0000 
     65 H65         3.4824   54.9129   22.3818 H         1 UNK         0.0000 
     66 H66         5.0244   52.3765   19.2838 H         1 UNK         0.0000 
     67 H67         3.6552   50.5492   20.0753 H         1 UNK         0.0000 
     68 H68         6.3887   55.7805   19.0767 H         1 UNK         0.0000 
     69 H69         5.3031   54.5984   18.3597 H         1 UNK         0.0000 
     70 H70         6.6901   54.0671   19.3349 H         1 UNK         0.0000 
@<TRIPOS>BOND
     1    1    2 1    
     2    1   39 1    
     3    1   40 1    
     4    1   41 1    
     5    2    7 ar   
     6    2    3 ar   
     7    3    4 ar   
     8    3   42 1    
     9    4    5 ar   
    10    4   43 1    
    11    5    6 ar   
    12    5    8 1    
    13    6    7 ar   
    14    6   44 1    
    15    7   45 1    
    16    8    9 2    
    17    8   10 am   BACKBONE|DICT|INTERRES
    18   10   16 1    
    19   10   11 1    
    20   11   12 1    
    21   11   46 1    
    22   11   47 1    
    23   12   13 1    
    24   12   48 1    
    25   12   49 1    
    26   13   14 1    
    27   13   50 1    
    28   13   51 1    
    29   14   15 1    
    30   14   16 1    
    31   14   17 1    
    32   16   52 1    
    33   16   53 1    
    34   17   18 2    
    35   17   19 am   BACKBONE|DICT|INTERRES
    36   19   20 1    
    37   19   54 1    
    38   20   21 1    
    39   20   26 1    
    40   20   22 1    
    41   22   23 1    
    42   22   55 1    
    43   22   56 1    
    44   23   24 1    
    45   23   57 1    
    46   23   58 1    
    47   24   25 1    
    48   24   59 1    
    49   24   60 1    
    50   25   26 1    
    51   25   61 1    
    52   25   62 1    
    53   26   27 1    
    54   26   28 1    
    55   28   29 am   BACKBONE|DICT|INTERRES
    56   28   63 1    
    57   29   30 2    
    58   29   31 1    
    59   31   36 ar   
    60   31   32 ar   
    61   32   33 ar   
    62   32   64 1    
    63   33   34 ar   
    64   33   65 1    
    65   34   35 ar   
    66   34   37 1    
    67   35   36 ar   
    68   35   66 1    
    69   36   67 1    
    70   37   38 1    
    71   38   68 1    
    72   38   69 1    
    73   38   70 1    
@<TRIPOS>SUBSTRUCTURE
     1 UNK         1 GROUP             0       ****    0 ROOT    
