@<TRIPOS>MOLECULE
ZINC17444922_2007
57   60    1
SMALL
USER_CHARGES


@<TRIPOS>ATOM
      1 C1          4.3547   53.9548   19.5710 C.3       1 UNK         0.0000 
      2 C2          3.4203   52.8973   20.1354 C.ar      1 UNK         0.0000 
      3 C3          2.5793   52.0382   19.4576 C.ar      1 UNK         0.0000 
      4 C4          1.8668   51.2643   20.3808 C.ar      1 UNK         0.0000 
      5 C5          2.2829   51.6714   21.6529 C.ar      1 UNK         0.0000 
      6 N6          3.2550   52.6592   21.4926 N.pl3     1 UNK         0.0000 
      7 C7          3.9755   53.3104   22.5227 C.ar      1 UNK         0.0000 
      8 C8          5.3741   53.3049   22.4890 C.ar      1 UNK         0.0000 
      9 C9          6.1007   53.9171   23.5076 C.ar      1 UNK         0.0000 
     10 C10         5.4285   54.4975   24.5797 C.ar      1 UNK         0.0000 
     11 C11         4.0349   54.4963   24.6260 C.ar      1 UNK         0.0000 
     12 C12         3.3050   53.9324   23.5822 C.ar      1 UNK         0.0000 
     13 F13         6.1334   55.0762   25.5798 F         1 UNK         0.0000 
     14 C14         1.8377   51.1308   23.0110 C.3       1 UNK         0.0000 
     15 C15         0.8292   50.3046   20.0841 C.2       1 UNK         0.0000 
     16 O16        -0.0903   50.0882   20.8789 O.2       1 UNK         0.0000 
     17 N17         0.9623   49.7012   18.8805 N.am      1 UNK         0.0000 
     18 N18         0.0552   48.7100   18.4824 N.am      1 UNK         0.0000 
     19 C19         0.2050   47.4388   18.9131 C.2       1 UNK         0.0000 
     20 O20         1.0992   47.0743   19.6809 O.2       1 UNK         0.0000 
     21 C21        -0.8099   46.4225   18.3714 C.3       1 UNK         0.0000 
     22 N22        -0.3628   45.0183   18.4160 N.pl3     1 UNK         0.0000 
     23 C23         0.4870   44.3923   17.5170 C.ar      1 UNK         0.0000 
     24 N24         0.6450   43.1299   17.8290 N.2       1 UNK         0.0000 
     25 N25        -0.1081   42.8922   18.9728 N.2       1 UNK         0.0000 
     26 C26        -0.7172   44.0071   19.2992 C.ar      1 UNK         0.0000 
     27 S27        -1.8454   44.0971   20.6588 S.3       1 UNK         0.0000 
     28 C28         1.1111   45.0360   16.3234 C.ar      1 UNK         0.0000 
     29 C29         0.8113   44.5696   15.0423 C.ar      1 UNK         0.0000 
     30 C30         1.3454   45.2086   13.9243 C.ar      1 UNK         0.0000 
     31 C31         2.1772   46.3190   14.0721 C.ar      1 UNK         0.0000 
     32 C32         2.4841   46.7719   15.3593 C.ar      1 UNK         0.0000 
     33 C33         1.9768   46.1210   16.4755 C.ar      1 UNK         0.0000 
     34 O34         2.6633   46.8991   12.9166 O.3       1 UNK         0.0000 
     35 C35         3.5383   48.0186   13.0165 C.3       1 UNK         0.0000 
     36 H36         4.0992   54.1957   18.5390 H         1 UNK         0.0000 
     37 H37         4.3097   54.8958   20.1227 H         1 UNK         0.0000 
     38 H38         5.3936   53.6232   19.5623 H         1 UNK         0.0000 
     39 H39         2.4864   51.9959   18.3813 H         1 UNK         0.0000 
     40 H40         5.8939   52.8074   21.6861 H         1 UNK         0.0000 
     41 H41         7.1810   53.9209   23.4804 H         1 UNK         0.0000 
     42 H42         3.5234   54.9575   25.4566 H         1 UNK         0.0000 
     43 H43         2.2239   53.9575   23.6102 H         1 UNK         0.0000 
     44 H44         2.0351   50.0572   23.0842 H         1 UNK         0.0000 
     45 H45         2.3045   51.5819   23.8835 H         1 UNK         0.0000 
     46 H46         0.7622   51.2538   23.1458 H         1 UNK         0.0000 
     47 H47         1.7495   49.8093   18.2571 H         1 UNK         0.0000 
     48 H48        -0.6841   49.0499   17.8845 H         1 UNK         0.0000 
     49 H49        -1.0405   46.6514   17.3302 H         1 UNK         0.0000 
     50 H50        -1.7442   46.5291   18.9203 H         1 UNK         0.0000 
     51 H51         0.1514   43.7243   14.9134 H         1 UNK         0.0000 
     52 H52         1.1106   44.8459   12.9353 H         1 UNK         0.0000 
     53 H53         3.1035   47.6378   15.5166 H         1 UNK         0.0000 
     54 H54         2.2562   46.4800   17.4541 H         1 UNK         0.0000 
     55 H55         3.8330   48.3334   12.0156 H         1 UNK         0.0000 
     56 H56         4.4493   47.7680   13.5622 H         1 UNK         0.0000 
     57 H57         3.0529   48.8657   13.5014 H         1 UNK         0.0000 
@<TRIPOS>BOND
     1    1    2 1    
     2    1   36 1    
     3    1   37 1    
     4    1   38 1    
     5    2    6 ar   
     6    2    3 ar   
     7    3    4 ar   
     8    3   39 1    
     9    4    5 ar   
    10    4   15 1    
    11    5    6 ar   
    12    5   14 1    
    13    6    7 1    
    14    7   12 ar   
    15    7    8 ar   
    16    8    9 ar   
    17    8   40 1    
    18    9   10 ar   
    19    9   41 1    
    20   10   11 ar   
    21   10   13 1    
    22   11   12 ar   
    23   11   42 1    
    24   12   43 1    
    25   14   44 1    
    26   14   45 1    
    27   14   46 1    
    28   15   16 2    
    29   15   17 am   BACKBONE|DICT|INTERRES
    30   17   18 1    
    31   17   47 1    
    32   18   19 am   BACKBONE|DICT|INTERRES
    33   18   48 1    
    34   19   20 2    
    35   19   21 1    
    36   21   49 1    
    37   21   50 1    
    38   21   22 1    
    39   22   26 ar   
    40   22   23 ar   
    41   23   28 1    
    42   23   24 ar   
    43   24   25 ar   
    44   25   26 ar   
    45   26   27 1    
    46   28   33 ar   
    47   28   29 ar   
    48   29   30 ar   
    49   29   51 1    
    50   30   31 ar   
    51   30   52 1    
    52   31   32 ar   
    53   31   34 1    
    54   32   33 ar   
    55   32   53 1    
    56   33   54 1    
    57   34   35 1    
    58   35   55 1    
    59   35   56 1    
    60   35   57 1    
@<TRIPOS>SUBSTRUCTURE
     1 UNK         1 GROUP             0       ****    0 ROOT    
