@<TRIPOS>MOLECULE
ZINC35692994_5650
50   53    1
SMALL
USER_CHARGES


@<TRIPOS>ATOM
      1 C1          0.9136   52.5844   30.6073 C.3       1 UNK         0.0000 
      2 C2         -0.1806   52.7160   29.5368 C.3       1 UNK         0.0000 
      3 O3          0.3643   53.0527   28.2622 O.3       1 UNK         0.0000 
      4 C4          0.8890   52.0995   27.4538 C.2       1 UNK         0.0000 
      5 O5          0.8531   50.8967   27.6860 O.2       1 UNK         0.0000 
      6 C6          1.5037   52.6277   26.2407 C.2       1 UNK         0.0000 
      7 C7          2.4750   53.5970   26.2818 C.2       1 UNK         0.0000 
      8 N8          3.0334   54.1013   25.1371 N.2       1 UNK         0.0000 
      9 C9          2.7620   53.5673   24.0119 C.2       1 UNK         0.0000 
     10 N10         1.8984   52.5041   23.7745 N.pl3     1 UNK         0.0000 
     11 C11         1.1046   51.9334   24.8967 C.3       1 UNK         0.0000 
     12 H12         1.4736   50.9127   24.9402 H         1 UNK         0.0000 
     13 C13        -0.4008   51.8361   24.5863 C.ar      1 UNK         0.0000 
     14 C14        -1.0707   52.9570   24.0829 C.ar      1 UNK         0.0000 
     15 C15        -2.4247   52.8968   23.7566 C.ar      1 UNK         0.0000 
     16 C16        -3.1296   51.7095   23.9324 C.ar      1 UNK         0.0000 
     17 C17        -2.4744   50.5799   24.4178 C.ar      1 UNK         0.0000 
     18 C18        -1.1146   50.6302   24.7339 C.ar      1 UNK         0.0000 
     19 Cl19       -0.3607   49.1659   25.2677 Cl        1 UNK         0.0000 
     20 C20         1.9185   52.0035   22.4840 C.2       1 UNK         0.0000 
     21 C21         2.6654   52.7608   21.6625 C.2       1 UNK         0.0000 
     22 S22         3.4741   54.0953   22.4796 S.3       1 UNK         0.0000 
     23 C23         1.2250   50.8046   22.0469 C.2       1 UNK         0.0000 
     24 C24         0.4189   50.7060   20.9756 C.2       1 UNK         0.0000 
     25 O25         0.0308   51.6013   20.1363 O.co2     1 UNK         0.0000 
     26 N26        -0.1447   49.4939   20.6603 N.pl3     1 UNK         0.0000 
     27 C27         0.0516   48.7967   19.3987 C.3       1 UNK         0.0000 
     28 C28         1.2259   47.8424   19.3264 C.3       1 UNK         0.0000 
     29 C29        -0.1787   47.3008   19.4142 C.3       1 UNK         0.0000 
     30 C30         3.1032   54.2188   27.5626 C.3       1 UNK         0.0000 
     31 F31         4.2843   54.7974   27.3205 F         1 UNK         0.0000 
     32 F32         2.2907   55.1411   28.0819 F         1 UNK         0.0000 
     33 F33         3.3266   53.2814   28.4861 F         1 UNK         0.0000 
     34 H34         0.4744   52.3717   31.5829 H         1 UNK         0.0000 
     35 H35         1.5998   51.7735   30.3679 H         1 UNK         0.0000 
     36 H36         1.4921   53.5038   30.6924 H         1 UNK         0.0000 
     37 H37        -0.8621   53.5142   29.8250 H         1 UNK         0.0000 
     38 H38        -0.7805   51.8050   29.4793 H         1 UNK         0.0000 
     39 H39        -0.5346   53.8833   23.9442 H         1 UNK         0.0000 
     40 H40        -2.9259   53.7698   23.3655 H         1 UNK         0.0000 
     41 H41        -4.1796   51.6598   23.6822 H         1 UNK         0.0000 
     42 H42        -3.0189   49.6550   24.5394 H         1 UNK         0.0000 
     43 H43         2.8172   52.5854   20.6069 H         1 UNK         0.0000 
     44 H44         1.3903   49.9160   22.6390 H         1 UNK         0.0000 
     45 H45        -0.1946   48.8382   21.4223 H         1 UNK         0.0000 
     46 H46        -0.2185   49.3672   18.5085 H         1 UNK         0.0000 
     47 H47         1.8891   47.7633   20.1896 H         1 UNK         0.0000 
     48 H48         1.7708   47.7780   18.3826 H         1 UNK         0.0000 
     49 H49        -0.6267   46.8424   18.5319 H         1 UNK         0.0000 
     50 H50        -0.5082   46.8250   20.3394 H         1 UNK         0.0000 
@<TRIPOS>BOND
     1    1    2 1    
     2    1   34 1    
     3    1   35 1    
     4    1   36 1    
     5    2    3 1    
     6    2   37 1    
     7    2   38 1    
     8    3    4 1    
     9    4    5 2    
    10    4    6 1    
    11    6   11 1    
    12    6    7 2    
    13    7    8 1    
    14    7   30 1    
    15    8    9 2    
    16    9   22 1    
    17    9   10 1    
    18   10   11 1    
    19   10   20 1    
    20   11   12 1    
    21   11   13 1    
    22   13   18 ar   
    23   13   14 ar   
    24   14   15 ar   
    25   14   39 1    
    26   15   16 ar   
    27   15   40 1    
    28   16   17 ar   
    29   16   41 1    
    30   17   18 ar   
    31   17   42 1    
    32   18   19 1    
    33   20   21 2    
    34   20   23 1    
    35   21   22 1    
    36   21   43 1    
    37   23   24 2    
    38   23   44 1    
    39   24   25 1    
    40   24   26 1    
    41   26   27 1    
    42   26   45 1    
    43   27   29 1    
    44   27   28 1    
    45   27   46 1    
    46   28   29 1    
    47   28   47 1    
    48   28   48 1    
    49   29   49 1    
    50   29   50 1    
    51   30   31 1    
    52   30   32 1    
    53   30   33 1    
@<TRIPOS>SUBSTRUCTURE
     1 UNK         1 GROUP             0       ****    0 ROOT    
