@<TRIPOS>MOLECULE
ZINC51673307_1331
55   57    1
SMALL
USER_CHARGES


@<TRIPOS>ATOM
      1 C1          2.3631   53.8980   23.2299 C.3       1 UNK         0.0000 
      2 C2          3.5703   54.0966   24.1386 C.ar      1 UNK         0.0000 
      3 C3          3.3668   54.1687   25.5188 C.ar      1 UNK         0.0000 
      4 C4          4.4240   54.3728   26.4122 C.ar      1 UNK         0.0000 
      5 C5          5.7165   54.4958   25.8832 C.ar      1 UNK         0.0000 
      6 C6          5.9420   54.4304   24.5063 C.ar      1 UNK         0.0000 
      7 C7          4.8700   54.2372   23.6219 C.ar      1 UNK         0.0000 
      8 N8          5.0526   54.1504   22.2288 N.am      1 UNK         0.0000 
      9 C9          5.9066   54.8609   21.4651 C.2       1 UNK         0.0000 
     10 O10         6.7046   55.7037   21.8788 O.2       1 UNK         0.0000 
     11 N11         5.8194   54.4974   20.1752 N.am      1 UNK         0.0000 
     12 C12         6.7130   54.9686   19.1135 C.3       1 UNK         0.0000 
     13 C13         6.2255   56.2277   18.4079 C.ar      1 UNK         0.0000 
     14 C14         7.0636   57.3440   18.2897 C.ar      1 UNK         0.0000 
     15 C15         6.5873   58.4942   17.6596 C.ar      1 UNK         0.0000 
     16 N16         5.3387   58.4967   17.1590 N.pl3     1 UNK         0.0000 
     17 C17         4.4802   57.4547   17.2287 C.ar      1 UNK         0.0000 
     18 C18         4.9298   56.2877   17.8695 C.ar      1 UNK         0.0000 
     19 N19         3.1580   57.5824   16.6654 N.pl3     1 UNK         0.0000 
     20 C20         2.2369   56.4337   16.6584 C.3       1 UNK         0.0000 
     21 C21         2.7193   58.8642   16.0828 C.3       1 UNK         0.0000 
     22 N22         4.1934   54.4973   27.7818 N.pl3     1 UNK         0.0000 
     23 C23         5.0400   53.8937   28.8169 C.3       1 UNK         0.0000 
     24 C24         4.4604   52.5451   29.2942 C.3       1 UNK         0.0000 
     25 S25         2.8323   52.6824   30.0837 S.3       1 UNK         0.0000 
     26 C26         2.0538   53.6644   28.7714 C.3       1 UNK         0.0000 
     27 C27         2.9059   54.8873   28.3756 C.3       1 UNK         0.0000 
     28 H28         1.4181   53.9226   23.7773 H         1 UNK         0.0000 
     29 H29         2.3255   54.6925   22.4814 H         1 UNK         0.0000 
     30 H30         2.4362   52.9451   22.7013 H         1 UNK         0.0000 
     31 H31         2.3584   54.0742   25.8942 H         1 UNK         0.0000 
     32 H32         6.5569   54.6628   26.5366 H         1 UNK         0.0000 
     33 H33         6.9524   54.5239   24.1367 H         1 UNK         0.0000 
     34 H34         4.3741   53.5817   21.7464 H         1 UNK         0.0000 
     35 H35         5.0480   53.9114   19.8873 H         1 UNK         0.0000 
     36 H36         6.8295   54.1811   18.3663 H         1 UNK         0.0000 
     37 H37         7.7166   55.1351   19.5146 H         1 UNK         0.0000 
     38 H38         8.0665   57.3261   18.6948 H         1 UNK         0.0000 
     39 H39         7.1414   59.4153   17.5425 H         1 UNK         0.0000 
     40 H40         4.2853   55.4260   17.9603 H         1 UNK         0.0000 
     41 H41         2.6780   55.6301   16.0661 H         1 UNK         0.0000 
     42 H42         2.0679   56.0940   17.6815 H         1 UNK         0.0000 
     43 H43         1.2778   56.7157   16.2182 H         1 UNK         0.0000 
     44 H44         2.9417   59.6810   16.7729 H         1 UNK         0.0000 
     45 H45         3.2379   59.0253   15.1385 H         1 UNK         0.0000 
     46 H46         1.6423   58.8534   15.9074 H         1 UNK         0.0000 
     47 H47         6.0524   53.7381   28.4434 H         1 UNK         0.0000 
     48 H48         5.1670   54.5737   29.6593 H         1 UNK         0.0000 
     49 H49         5.1033   52.0952   30.0463 H         1 UNK         0.0000 
     50 H50         4.4099   51.8245   28.4817 H         1 UNK         0.0000 
     51 H51         1.0954   53.9949   29.1709 H         1 UNK         0.0000 
     52 H52         1.8239   53.0314   27.9141 H         1 UNK         0.0000 
     53 H53         3.0629   55.5314   29.2459 H         1 UNK         0.0000 
     54 H54         2.3538   55.5227   27.6819 H         1 UNK         0.0000 
     55 H55         5.0057   59.3624   16.7491 H         1 UNK         0.0000 
@<TRIPOS>BOND
     1    1    2 1    
     2    1   28 1    
     3    1   29 1    
     4    1   30 1    
     5    2    7 ar   
     6    2    3 ar   
     7    3    4 ar   
     8    3   31 1    
     9    4    5 ar   
    10    4   22 1    
    11    5    6 ar   
    12    5   32 1    
    13    6    7 ar   
    14    6   33 1    
    15    7    8 1    
    16    8    9 am   BACKBONE|DICT|INTERRES
    17    8   34 1    
    18    9   10 2    
    19    9   11 am   BACKBONE|DICT|INTERRES
    20   11   12 1    
    21   11   35 1    
    22   12   13 1    
    23   12   36 1    
    24   12   37 1    
    25   13   18 ar   
    26   13   14 ar   
    27   14   15 ar   
    28   14   38 1    
    29   15   16 ar   
    30   15   39 1    
    31   16   17 ar   
    32   16   55 1    
    33   17   18 ar   
    34   17   19 1    
    35   18   40 1    
    36   19   20 1    
    37   19   21 1    
    38   20   41 1    
    39   20   42 1    
    40   20   43 1    
    41   21   44 1    
    42   21   45 1    
    43   21   46 1    
    44   22   27 1    
    45   22   23 1    
    46   23   24 1    
    47   23   47 1    
    48   23   48 1    
    49   24   25 1    
    50   24   49 1    
    51   24   50 1    
    52   25   26 1    
    53   26   27 1    
    54   26   51 1    
    55   26   52 1    
    56   27   53 1    
    57   27   54 1    
@<TRIPOS>SUBSTRUCTURE
     1 UNK         1 GROUP             0       ****    0 ROOT    
