ZINC49511387_1053
                    3D
 Schrodinger Suite 2024-2.
 65 68  0  0  1  0            999 V2000
    3.1546   40.1572   18.8842 C   0  0  0  0  0  0
    2.6636   39.7604   17.4811 C   0  0  0  0  0  0
    2.7494   40.8888   16.4251 C   0  0  0  0  0  0
    1.8386   42.1023   16.6736 C   0  0  0  0  0  0
    0.8291   41.9837   17.3714 O   0  0  0  0  0  0
    2.2492   43.2455   16.0852 N   0  0  0  0  0  0
    1.6926   44.5360   16.1413 C   0  0  0  0  0  0
    2.5113   45.5710   15.6835 C   0  0  0  0  0  0
    2.0721   46.8887   15.7356 C   0  0  0  0  0  0
    0.8102   47.1808   16.2417 C   0  0  0  0  0  0
   -0.0281   46.1568   16.6830 C   0  0  0  0  0  0
    0.4098   44.8335   16.6297 C   0  0  0  0  0  0
    0.3155   48.8955   16.3258 S   0  0  0  0  0  0
    0.7116   49.5151   15.0578 O   0  0  0  0  0  0
   -1.0766   48.9623   16.7882 O   0  0  0  0  0  0
    1.3537   49.6054   17.5783 N   0  0  0  0  0  0
    1.0790   49.5906   18.9522 C   0  0  0  0  0  0
    0.1838   48.6908   19.5325 C   0  0  0  0  0  0
   -0.0698   48.7367   20.8984 C   0  0  0  0  0  0
    0.5660   49.6693   21.7231 C   0  0  0  0  0  0
    1.4912   50.5736   21.1461 C   0  0  0  0  0  0
    1.7384   50.5089   19.7705 C   0  0  0  0  0  0
    2.2425   51.5744   22.0247 C   0  0  0  0  0  0
    1.7555   51.6300   23.4188 N   0  0  0  0  0  0
    1.4071   50.3335   24.0315 C   0  0  0  0  0  0
    0.2527   49.7119   23.2263 C   0  0  0  0  0  0
    1.5038   53.1657   24.2685 S   0  0  0  0  0  0
    1.1044   54.1723   23.2817 O   0  0  0  0  0  0
    0.7045   52.8970   25.4695 O   0  0  0  0  0  0
    3.1202   53.6949   24.8223 C   0  0  0  0  0  0
    4.0576   54.0970   23.8695 C   0  0  0  0  0  0
    5.3269   54.4951   24.2767 C   0  0  0  0  0  0
    5.6524   54.4966   25.6337 C   0  0  0  0  0  0
    4.7144   54.0973   26.5865 C   0  0  0  0  0  0
    3.4438   53.6971   26.1815 C   0  0  0  0  0  0
    7.0389   54.9153   26.0745 C   0  0  0  0  0  0
    3.1050   39.3110   19.5686 H   0  0  0  0  0  0
    2.5524   40.9584   19.3123 H   0  0  0  0  0  0
    4.1897   40.4989   18.8642 H   0  0  0  0  0  0
    3.2640   38.9171   17.1350 H   0  0  0  0  0  0
    1.6426   39.3817   17.5431 H   0  0  0  0  0  0
    3.7872   41.2139   16.3319 H   0  0  0  0  0  0
    2.4704   40.4802   15.4519 H   0  0  0  0  0  0
    3.1332   43.1967   15.6064 H   0  0  0  0  0  0
    3.5039   45.3713   15.3099 H   0  0  0  0  0  0
    2.7066   47.6969   15.3982 H   0  0  0  0  0  0
   -1.0137   46.3782   17.0658 H   0  0  0  0  0  0
   -0.2609   44.0640   16.9736 H   0  0  0  0  0  0
    2.2013   50.0637   17.2686 H   0  0  0  0  0  0
   -0.3283   47.9518   18.9371 H   0  0  0  0  0  0
   -0.7771   48.0394   21.3209 H   0  0  0  0  0  0
    2.4552   51.1904   19.3325 H   0  0  0  0  0  0
    3.2808   51.2431   22.0531 H   0  0  0  0  0  0
    2.2395   52.5771   21.5950 H   0  0  0  0  0  0
    2.3010   49.7074   24.0118 H   0  0  0  0  0  0
    1.1044   50.4803   25.0692 H   0  0  0  0  0  0
   -0.6304   50.3452   23.3329 H   0  0  0  0  0  0
    0.0043   48.7200   23.6097 H   0  0  0  0  0  0
    3.8056   54.1025   22.8183 H   0  0  0  0  0  0
    6.0533   54.8041   23.5368 H   0  0  0  0  0  0
    4.9708   54.0902   27.6365 H   0  0  0  0  0  0
    2.7237   53.3778   26.9218 H   0  0  0  0  0  0
    7.7359   54.8961   25.2373 H   0  0  0  0  0  0
    7.0027   55.9228   26.4849 H   0  0  0  0  0  0
    7.4215   54.2416   26.8437 H   0  0  0  0  0  0
  1  2  1  0  0  0
  1 37  1  0  0  0
  1 38  1  0  0  0
  1 39  1  0  0  0
  2  3  1  0  0  0
  2 40  1  0  0  0
  2 41  1  0  0  0
  3  4  1  0  0  0
  3 42  1  0  0  0
  3 43  1  0  0  0
  4  5  2  0  0  0
  4  6  1  0  0  0
  6  7  1  0  0  0
  6 44  1  0  0  0
  7 12  2  0  0  0
  7  8  1  0  0  0
  8  9  2  0  0  0
  8 45  1  0  0  0
  9 10  1  0  0  0
  9 46  1  0  0  0
 10 11  2  0  0  0
 10 13  1  0  0  0
 11 12  1  0  0  0
 11 47  1  0  0  0
 12 48  1  0  0  0
 13 14  2  0  0  0
 13 15  2  0  0  0
 13 16  1  0  0  0
 16 17  1  0  0  0
 16 49  1  0  0  0
 17 22  2  0  0  0
 17 18  1  0  0  0
 18 19  2  0  0  0
 18 50  1  0  0  0
 19 20  1  0  0  0
 19 51  1  0  0  0
 20 26  1  0  0  0
 20 21  2  0  0  0
 21 22  1  0  0  0
 21 23  1  0  0  0
 22 52  1  0  0  0
 23 24  1  0  0  0
 23 53  1  0  0  0
 23 54  1  0  0  0
 24 25  1  0  0  0
 24 27  1  0  0  0
 25 26  1  0  0  0
 25 55  1  0  0  0
 25 56  1  0  0  0
 26 57  1  0  0  0
 26 58  1  0  0  0
 27 28  2  0  0  0
 27 29  2  0  0  0
 27 30  1  0  0  0
 30 35  2  0  0  0
 30 31  1  0  0  0
 31 32  2  0  0  0
 31 59  1  0  0  0
 32 33  1  0  0  0
 32 60  1  0  0  0
 33 34  2  0  0  0
 33 36  1  0  0  0
 34 35  1  0  0  0
 34 61  1  0  0  0
 35 62  1  0  0  0
 36 63  1  0  0  0
 36 64  1  0  0  0
 36 65  1  0  0  0
M  END
> <i_i_glide_confnum>
2

> <i_i_glide_lignum>
1054

> <i_i_glide_posenum>
6

> <i_i_glide_rotatable_bonds>
9

> <i_m_Source_File_Index>
39

> <b_m_subgroup_collapsed>
0

> <r_i_docking_score>
-3.55908

> <r_i_glide_ecoul>
-2.6494

> <r_i_glide_eff_state_penalty>
0

> <r_i_glide_einternal>
3.03959

> <r_i_glide_emodel>
-48.2427

> <r_i_glide_energy>
-42.3582

> <r_i_glide_erotb>
0.591808

> <r_i_glide_esite>
-0.131901

> <r_i_glide_evdw>
-39.7088

> <r_i_glide_gscore>
-3.55908

> <r_i_glide_hbond>
-0.0424975

> <r_i_glide_ligand_efficiency>
-0.0988632

> <r_i_glide_ligand_efficiency_ln>
-0.776494

> <r_i_glide_ligand_efficiency_sa>
-0.326439

> <r_i_glide_lipo>
-1.86496

> <r_i_glide_metal>
0

> <r_i_glide_rewards>
0.271323

> <s_i_glide_gridfile>
wee1_glide-grid

> <s_m_Source_File>
wee1_decoys_glide_SP.sdf

> <s_m_Source_Path>
/Users/zhangxujun/Desktop

> <s_m_entry_id>
314

> <s_m_entry_name>
wee1_decoys_glide_SP.39

> <s_m_subgroup_title>
wee1_decoys_glide_SP

> <s_m_subgroupid>
wee1_decoys_glide_SP


$$$$
