ZINC47757657_4590
                    3D
 Schrodinger Suite 2024-2.
 53 56  0  0  1  0            999 V2000
    0.2534   53.1122   28.5411 C   0  0  0  0  0  0
    0.8071   51.8433   28.7390 C   0  0  0  0  0  0
    2.1887   51.6977   28.8809 C   0  0  0  0  0  0
    2.9891   52.8334   28.8391 C   0  0  0  0  0  0
    2.4528   54.0899   28.6380 C   0  0  0  0  0  0
    1.0764   54.2416   28.4812 C   0  0  0  0  0  0
    3.5785   55.0500   28.4981 C   0  0  0  0  0  0
    4.7763   54.1972   28.9416 C   0  0  1  0  0  0
    4.9479   54.4966   29.9780 H   0  0  0  0  0  0
    4.3580   52.8289   28.9313 O   0  0  0  0  0  0
    6.0788   54.4209   28.1482 C   0  0  0  0  0  0
    6.0040   53.9165   26.7788 N   0  0  0  0  0  0
    6.2226   54.6480   25.6778 C   0  0  0  0  0  0
    6.8625   55.6965   25.6768 O   0  0  0  0  0  0
    5.6151   54.0966   24.6148 N   0  0  0  0  0  0
    5.6940   54.4460   23.2577 C   0  0  0  0  0  0
    4.7068   53.9146   22.4263 C   0  0  0  0  0  0
    4.7031   54.2055   21.0649 C   0  0  0  0  0  0
    5.6954   55.0304   20.5134 C   0  0  0  0  0  0
    6.7079   55.5234   21.3444 C   0  0  0  0  0  0
    6.7046   55.2438   22.7083 C   0  0  0  0  0  0
    5.6824   55.4107   19.0516 C   0  0  0  0  0  0
    6.7253   55.7194   18.4722 O   0  0  0  0  0  0
    4.4727   55.4548   18.4637 N   0  0  0  0  0  0
    4.2071   55.8757   17.0869 C   0  0  0  0  0  0
    2.7002   55.8243   16.7879 C   0  0  0  0  0  0
    2.4285   56.8692   15.6949 C   0  0  0  0  0  0
    3.6700   57.7709   15.6334 C   0  0  0  0  0  0
    4.5501   57.3500   16.8128 C   0  0  0  0  0  0
   -0.8128   53.2106   28.4096 H   0  0  0  0  0  0
    0.1663   50.9724   28.7641 H   0  0  0  0  0  0
    2.6198   50.7184   28.9898 H   0  0  0  0  0  0
    0.6507   55.2146   28.2855 H   0  0  0  0  0  0
    3.4601   55.9572   29.0906 H   0  0  0  0  0  0
    3.6648   55.2967   27.4402 H   0  0  0  0  0  0
    6.9189   53.9564   28.6667 H   0  0  0  0  0  0
    6.3044   55.4876   28.1411 H   0  0  0  0  0  0
    5.7769   52.9370   26.6773 H   0  0  0  0  0  0
    4.9790   53.3419   24.8151 H   0  0  0  0  0  0
    3.9252   53.2856   22.8285 H   0  0  0  0  0  0
    3.9192   53.7851   20.4488 H   0  0  0  0  0  0
    7.5045   56.1321   20.9417 H   0  0  0  0  0  0
    7.5024   55.6438   23.3150 H   0  0  0  0  0  0
    3.6761   55.1206   18.9871 H   0  0  0  0  0  0
    4.7119   55.2393   16.3543 H   0  0  0  0  0  0
    2.1298   56.0911   17.6805 H   0  0  0  0  0  0
    2.3704   54.8193   16.5209 H   0  0  0  0  0  0
    1.5321   57.4497   15.9261 H   0  0  0  0  0  0
    2.2582   56.3888   14.7302 H   0  0  0  0  0  0
    3.4136   58.8314   15.6808 H   0  0  0  0  0  0
    4.2043   57.6101   14.6955 H   0  0  0  0  0  0
    5.6144   57.5011   16.6284 H   0  0  0  0  0  0
    4.3114   57.9632   17.6814 H   0  0  0  0  0  0
  1  6  2  0  0  0
  1  2  1  0  0  0
  1 30  1  0  0  0
  2  3  2  0  0  0
  2 31  1  0  0  0
  3  4  1  0  0  0
  3 32  1  0  0  0
  4 10  1  0  0  0
  4  5  2  0  0  0
  5  6  1  0  0  0
  5  7  1  0  0  0
  6 33  1  0  0  0
  7  8  1  0  0  0
  7 34  1  0  0  0
  7 35  1  0  0  0
  8  9  1  0  0  0
  8 10  1  0  0  0
  8 11  1  0  0  0
 11 12  1  0  0  0
 11 36  1  0  0  0
 11 37  1  0  0  0
 12 13  1  0  0  0
 12 38  1  0  0  0
 13 14  2  0  0  0
 13 15  1  0  0  0
 15 16  1  0  0  0
 15 39  1  0  0  0
 16 21  2  0  0  0
 16 17  1  0  0  0
 17 18  2  0  0  0
 17 40  1  0  0  0
 18 19  1  0  0  0
 18 41  1  0  0  0
 19 20  2  0  0  0
 19 22  1  0  0  0
 20 21  1  0  0  0
 20 42  1  0  0  0
 21 43  1  0  0  0
 22 23  2  0  0  0
 22 24  1  0  0  0
 24 25  1  0  0  0
 24 44  1  0  0  0
 25 29  1  0  0  0
 25 26  1  0  0  0
 25 45  1  0  0  0
 26 27  1  0  0  0
 26 46  1  0  0  0
 26 47  1  0  0  0
 27 28  1  0  0  0
 27 48  1  0  0  0
 27 49  1  0  0  0
 28 29  1  0  0  0
 28 50  1  0  0  0
 28 51  1  0  0  0
 29 52  1  0  0  0
 29 53  1  0  0  0
M  END
> <i_i_glide_confnum>
55

> <i_i_glide_lignum>
4591

> <i_i_glide_posenum>
308

> <i_i_glide_rotatable_bonds>
8

> <i_m_Source_File_Index>
5829

> <b_m_subgroup_collapsed>
0

> <r_i_docking_score>
-6.60334

> <r_i_glide_ecoul>
-6.48583

> <r_i_glide_eff_state_penalty>
0

> <r_i_glide_einternal>
4.20548

> <r_i_glide_emodel>
-66.3339

> <r_i_glide_energy>
-48.1027

> <r_i_glide_erotb>
0.942674

> <r_i_glide_esite>
0

> <r_i_glide_evdw>
-41.6168

> <r_i_glide_gscore>
-6.60334

> <r_i_glide_hbond>
-0.32

> <r_i_glide_ligand_efficiency>
-0.235833

> <r_i_glide_ligand_efficiency_ln>
-1.52424

> <r_i_glide_ligand_efficiency_sa>
-0.716129

> <r_i_glide_lipo>
-2.86871

> <r_i_glide_metal>
0

> <r_i_glide_rewards>
-1.30358

> <s_i_glide_gridfile>
wee1_glide-grid

> <s_m_Source_File>
wee1_decoys_glide_SP.sdf

> <s_m_Source_Path>
/Users/zhangxujun/Desktop

> <s_m_entry_id>
6104

> <s_m_entry_name>
wee1_decoys_glide_SP.5829

> <s_m_subgroup_title>
wee1_decoys_glide_SP

> <s_m_subgroupid>
wee1_decoys_glide_SP


$$$$
