@<TRIPOS>MOLECULE
ZINC39672238_3073
77   81    1
SMALL
USER_CHARGES


@<TRIPOS>ATOM
      1 C1         -1.3433   51.7286   29.0851 C.3       1 UNK         0.0000 
      2 C2         -0.4881   52.5472   28.0964 C.3       1 UNK         0.0000 
      3 C3         -0.2416   51.8791   26.7009 C.3       1 UNK         0.0000 
      4 H4          0.1527   50.8784   26.8946 H         1 UNK         0.0000 
      5 C5         -1.6011   51.6536   25.9772 C.ar      1 UNK         0.0000 
      6 C6         -2.0714   52.5017   24.9630 C.ar      1 UNK         0.0000 
      7 C7         -3.3119   52.2970   24.3678 C.ar      1 UNK         0.0000 
      8 C8         -4.1091   51.2368   24.7861 C.ar      1 UNK         0.0000 
      9 C9         -3.6730   50.3898   25.8001 C.ar      1 UNK         0.0000 
     10 C10        -2.4308   50.6060   26.3899 C.ar      1 UNK         0.0000 
     11 C11         0.8786   52.4856   25.7687 C.2       1 UNK         0.0000 
     12 O12         0.8005   52.2356   24.5614 O.2       1 UNK         0.0000 
     13 N13         1.9206   53.2558   26.2017 N.am      1 UNK         0.0000 
     14 C14         2.8631   53.8482   25.2526 C.3       1 UNK         0.0000 
     15 C15         3.8575   54.6896   26.0972 C.3       1 UNK         0.0000 
     16 H16         3.4617   55.6968   26.1407 H         1 UNK         0.0000 
     17 C17         3.8455   53.9760   27.4885 C.3       1 UNK         0.0000 
     18 C18         2.4068   53.4079   27.5662 C.3       1 UNK         0.0000 
     19 C19         4.8280   52.7866   27.6782 C.3       1 UNK         0.0000 
     20 C20         6.3193   53.1256   27.7243 C.3       1 UNK         0.0000 
     21 N21         6.4743   54.0966   28.8815 N.4       1 UNK         0.0000 
     22 C22         5.5048   55.2883   28.9089 C.3       1 UNK         0.0000 
     23 C23         4.0566   54.8366   28.7462 C.3       1 UNK         0.0000 
     24 C24         5.1910   54.8497   25.3128 C.2       1 UNK         0.0000 
     25 O25         6.0062   55.6955   25.6814 O.2       1 UNK         0.0000 
     26 N26         5.4161   54.0981   24.2225 N.am      1 UNK         0.0000 
     27 C27         6.5967   54.1554   23.3756 C.3       1 UNK         0.0000 
     28 C28         6.3103   54.7222   21.9919 C.ar      1 UNK         0.0000 
     29 C29         7.1571   55.6944   21.4628 C.ar      1 UNK         0.0000 
     30 C30         6.9946   56.1283   20.1523 C.ar      1 UNK         0.0000 
     31 C31         5.9907   55.6005   19.3306 C.ar      1 UNK         0.0000 
     32 C32         5.1111   54.6245   19.8695 C.ar      1 UNK         0.0000 
     33 C33         5.2810   54.2115   21.1971 C.ar      1 UNK         0.0000 
     34 C34         4.0311   53.9793   19.0079 C.3       1 UNK         0.0000 
     35 C35         3.6139   54.9362   17.8890 C.3       1 UNK         0.0000 
     36 C36         4.8464   55.4421   17.1330 C.3       1 UNK         0.0000 
     37 N37         5.7927   56.1109   18.0357 N.pl3     1 UNK         0.0000 
     38 C38         6.8413   56.7285   17.2200 C.3       1 UNK         0.0000 
     39 H39        -1.2952   52.1482   30.0907 H         1 UNK         0.0000 
     40 H40        -2.3961   51.6966   28.8054 H         1 UNK         0.0000 
     41 H41        -0.9805   50.7071   29.1517 H         1 UNK         0.0000 
     42 H42         0.4203   52.6747   28.6650 H         1 UNK         0.0000 
     43 H43        -0.8955   53.5476   27.9559 H         1 UNK         0.0000 
     44 H44        -1.4755   53.3318   24.6209 H         1 UNK         0.0000 
     45 H45        -3.6486   52.9610   23.5869 H         1 UNK         0.0000 
     46 H46        -5.0749   51.0732   24.3296 H         1 UNK         0.0000 
     47 H47        -4.2981   49.5788   26.1412 H         1 UNK         0.0000 
     48 H48        -2.1216   49.9763   27.2071 H         1 UNK         0.0000 
     49 H49         3.3484   52.9729   24.8189 H         1 UNK         0.0000 
     50 H50         2.3716   54.4218   24.4632 H         1 UNK         0.0000 
     51 H51         1.7872   54.1899   28.0096 H         1 UNK         0.0000 
     52 H52         2.3929   52.5090   28.1834 H         1 UNK         0.0000 
     53 H53         4.5758   52.2127   28.5720 H         1 UNK         0.0000 
     54 H54         4.7059   52.0967   26.8816 H         1 UNK         0.0000 
     55 H55         6.9322   52.2698   28.0080 H         1 UNK         0.0000 
     56 H56         6.7690   53.5708   26.8422 H         1 UNK         0.0000 
     57 H57         6.3140   53.5223   29.6817 H         1 UNK         0.0000 
     58 H58         5.6582   55.7832   29.8673 H         1 UNK         0.0000 
     59 H59         5.9048   55.8753   28.0910 H         1 UNK         0.0000 
     60 H60         3.3858   55.6966   28.7397 H         1 UNK         0.0000 
     61 H61         3.7735   54.2771   29.6391 H         1 UNK         0.0000 
     62 H62         4.7071   53.4430   23.9351 H         1 UNK         0.0000 
     63 H63         7.4023   54.7264   23.8446 H         1 UNK         0.0000 
     64 H64         6.9789   53.1382   23.2714 H         1 UNK         0.0000 
     65 H65         7.9703   56.0964   22.0546 H         1 UNK         0.0000 
     66 H66         7.6771   56.8759   19.7787 H         1 UNK         0.0000 
     67 H67         4.6333   53.4411   21.5906 H         1 UNK         0.0000 
     68 H68         4.4284   53.0613   18.5714 H         1 UNK         0.0000 
     69 H69         3.1665   53.6881   19.6055 H         1 UNK         0.0000 
     70 H70         3.1003   55.7966   18.3133 H         1 UNK         0.0000 
     71 H71         2.9104   54.4568   17.2075 H         1 UNK         0.0000 
     72 H72         4.6182   56.0118   16.2298 H         1 UNK         0.0000 
     73 H73         5.3836   54.5702   16.7584 H         1 UNK         0.0000 
     74 H74         7.4939   55.9690   16.7855 H         1 UNK         0.0000 
     75 H75         6.4134   57.3205   16.4092 H         1 UNK         0.0000 
     76 H76         7.4584   57.4171   17.7914 H         1 UNK         0.0000 
     77 H77         7.4231   54.4457   28.9521 H         1 UNK         0.0000 
@<TRIPOS>BOND
     1    1    2 1    
     2    1   39 1    
     3    1   40 1    
     4    1   41 1    
     5    2    3 1    
     6    2   42 1    
     7    2   43 1    
     8    3    4 1    
     9    3    5 1    
    10    3   11 1    
    11    5   10 ar   
    12    5    6 ar   
    13    6    7 ar   
    14    6   44 1    
    15    7    8 ar   
    16    7   45 1    
    17    8    9 ar   
    18    8   46 1    
    19    9   10 ar   
    20    9   47 1    
    21   10   48 1    
    22   11   12 2    
    23   11   13 am   BACKBONE|DICT|INTERRES
    24   13   18 1    
    25   13   14 1    
    26   14   15 1    
    27   14   49 1    
    28   14   50 1    
    29   15   16 1    
    30   15   17 1    
    31   15   24 1    
    32   17   23 1    
    33   17   18 1    
    34   17   19 1    
    35   18   51 1    
    36   18   52 1    
    37   19   20 1    
    38   19   53 1    
    39   19   54 1    
    40   20   21 1    
    41   20   55 1    
    42   20   56 1    
    43   21   22 1    
    44   21   57 1    
    45   21   77 1    
    46   22   23 1    
    47   22   58 1    
    48   22   59 1    
    49   23   60 1    
    50   23   61 1    
    51   24   25 2    
    52   24   26 am   BACKBONE|DICT|INTERRES
    53   26   27 1    
    54   26   62 1    
    55   27   28 1    
    56   27   63 1    
    57   27   64 1    
    58   28   33 ar   
    59   28   29 ar   
    60   29   30 ar   
    61   29   65 1    
    62   30   31 ar   
    63   30   66 1    
    64   31   37 1    
    65   31   32 ar   
    66   32   33 ar   
    67   32   34 1    
    68   33   67 1    
    69   34   35 1    
    70   34   68 1    
    71   34   69 1    
    72   35   36 1    
    73   35   70 1    
    74   35   71 1    
    75   36   37 1    
    76   36   72 1    
    77   36   73 1    
    78   37   38 1    
    79   38   74 1    
    80   38   75 1    
    81   38   76 1    
@<TRIPOS>SUBSTRUCTURE
     1 UNK         1 GROUP             0       ****    0 ROOT    
