ZINC35694666_1082
                    3D
 Schrodinger Suite 2024-2.
 72 75  0  0  1  0            999 V2000
    0.8818   52.2915   31.6299 C   0  0  0  0  0  0
    1.1796   52.5561   30.1721 C   0  0  0  0  0  0
    2.4919   52.6014   29.7108 C   0  0  0  0  0  0
    2.7414   52.8075   28.3567 C   0  0  0  0  0  0
    1.6925   52.9814   27.4330 C   0  0  0  0  0  0
    0.3793   52.9176   27.9272 C   0  0  0  0  0  0
    0.1239   52.7047   29.2766 C   0  0  0  0  0  0
    1.9709   53.2083   26.0602 N   0  0  0  0  0  0
    3.1987   53.6964   25.5973 C   0  0  0  0  0  0
    3.1870   53.7372   24.2617 C   0  0  0  0  0  0
    1.9204   53.4057   23.8445 N   0  0  0  0  0  0
    1.1119   52.9646   24.9271 C   0  0  0  0  0  0
   -0.0771   52.4819   24.9111 N   0  0  0  0  0  0
   -0.7815   52.3437   23.7275 C   0  0  0  0  0  0
   -1.8591   52.9117   23.5659 O   0  0  0  0  0  0
   -0.1697   51.3825   22.6735 C   0  0  0  0  0  0
   -1.0233   51.2549   21.4684 N   0  0  0  0  0  0
   -0.3582   51.7291   20.2409 C   0  0  0  0  0  0
    0.5976   50.6935   19.6150 C   0  0  0  0  0  0
    1.2468   51.2553   18.3292 N   0  3  0  0  0  0
    2.2702   52.3846   18.5913 C   0  0  0  0  0  0
    1.9044   50.1264   17.5095 C   0  0  0  0  0  0
   -2.1618   50.4989   21.3750 C   0  0  0  0  0  0
   -2.7933   50.3899   20.3196 O   0  0  0  0  0  0
   -2.7225   49.8386   22.6126 C   0  0  0  0  0  0
   -1.9879   48.8857   23.3374 C   0  0  0  0  0  0
   -2.5149   48.3367   24.5051 C   0  0  0  0  0  0
   -3.7900   48.7036   24.9276 C   0  0  0  0  0  0
   -4.5460   49.6126   24.1908 C   0  0  0  0  0  0
   -4.0148   50.1774   23.0337 C   0  0  0  0  0  0
   -4.3055   48.1668   26.0557 F   0  0  0  0  0  0
    4.2836   54.1034   23.3393 C   0  0  0  0  0  0
    5.5346   54.4904   23.8405 C   0  0  0  0  0  0
    6.5495   54.8908   22.9787 C   0  0  0  0  0  0
    6.3438   54.9031   21.6015 C   0  0  0  0  0  0
    5.1041   54.4956   21.0887 C   0  0  0  0  0  0
    4.0862   54.0988   21.9513 C   0  0  0  0  0  0
    7.4154   55.3011   20.8278 O   0  0  0  0  0  0
    7.2904   55.3050   19.4108 C   0  0  0  0  0  0
    1.6695   51.7163   32.1172 H   0  0  0  0  0  0
    0.7108   53.2164   32.1779 H   0  0  0  0  0  0
   -0.0306   51.6978   31.6817 H   0  0  0  0  0  0
    3.3196   52.4738   30.3938 H   0  0  0  0  0  0
    3.7739   52.8112   28.0398 H   0  0  0  0  0  0
   -0.4751   53.0482   27.2845 H   0  0  0  0  0  0
   -0.8958   52.6515   29.6303 H   0  0  0  0  0  0
    4.0045   53.9504   26.2708 H   0  0  0  0  0  0
   -0.0132   50.4144   23.1397 H   0  0  0  0  0  0
    0.8401   51.6659   22.3851 H   0  0  0  0  0  0
   -1.1036   52.0181   19.4992 H   0  0  0  0  0  0
    0.1850   52.6459   20.4771 H   0  0  0  0  0  0
    1.4107   50.3964   20.2783 H   0  0  0  0  0  0
    0.0469   49.8009   19.3116 H   0  0  0  0  0  0
    3.0467   51.9945   19.2537 H   0  0  0  0  0  0
    2.6987   52.6738   17.6284 H   0  0  0  0  0  0
    1.7532   53.2381   19.0344 H   0  0  0  0  0  0
    2.7044   49.6934   18.1125 H   0  0  0  0  0  0
    1.1445   49.3807   17.2763 H   0  0  0  0  0  0
    2.3043   50.5586   16.5926 H   0  0  0  0  0  0
   -1.0050   48.5711   23.0136 H   0  0  0  0  0  0
   -1.9377   47.6363   25.0935 H   0  0  0  0  0  0
   -5.5338   49.8884   24.5244 H   0  0  0  0  0  0
   -4.6055   50.8955   22.4835 H   0  0  0  0  0  0
    5.7257   54.4946   24.9033 H   0  0  0  0  0  0
    7.5037   55.1944   23.3775 H   0  0  0  0  0  0
    4.9101   54.4878   20.0268 H   0  0  0  0  0  0
    3.1390   53.8089   21.5271 H   0  0  0  0  0  0
    8.2253   55.6502   18.9696 H   0  0  0  0  0  0
    7.0951   54.3030   19.0253 H   0  0  0  0  0  0
    6.4997   55.9791   19.0759 H   0  0  0  0  0  0
    0.5058   51.6359   17.7533 H   0  0  0  0  0  0
    1.6209   53.4244   22.8831 H   0  0  0  0  0  0
  1  2  1  0  0  0
  1 40  1  0  0  0
  1 41  1  0  0  0
  1 42  1  0  0  0
  2  7  2  0  0  0
  2  3  1  0  0  0
  3  4  2  0  0  0
  3 43  1  0  0  0
  4  5  1  0  0  0
  4 44  1  0  0  0
  5  6  2  0  0  0
  5  8  1  0  0  0
  6  7  1  0  0  0
  6 45  1  0  0  0
  7 46  1  0  0  0
  8 12  1  0  0  0
  8  9  1  0  0  0
  9 10  2  0  0  0
  9 47  1  0  0  0
 10 11  1  0  0  0
 10 32  1  0  0  0
 11 12  1  0  0  0
 11 72  1  0  0  0
 12 13  2  0  0  0
 13 14  1  0  0  0
 14 15  2  0  0  0
 14 16  1  0  0  0
 16 17  1  0  0  0
 16 48  1  0  0  0
 16 49  1  0  0  0
 17 18  1  0  0  0
 17 23  1  0  0  0
 18 19  1  0  0  0
 18 50  1  0  0  0
 18 51  1  0  0  0
 19 20  1  0  0  0
 19 52  1  0  0  0
 19 53  1  0  0  0
 20 21  1  0  0  0
 20 22  1  0  0  0
 20 71  1  0  0  0
 21 54  1  0  0  0
 21 55  1  0  0  0
 21 56  1  0  0  0
 22 57  1  0  0  0
 22 58  1  0  0  0
 22 59  1  0  0  0
 23 24  2  0  0  0
 23 25  1  0  0  0
 25 30  2  0  0  0
 25 26  1  0  0  0
 26 27  2  0  0  0
 26 60  1  0  0  0
 27 28  1  0  0  0
 27 61  1  0  0  0
 28 29  2  0  0  0
 28 31  1  0  0  0
 29 30  1  0  0  0
 29 62  1  0  0  0
 30 63  1  0  0  0
 32 37  2  0  0  0
 32 33  1  0  0  0
 33 34  2  0  0  0
 33 64  1  0  0  0
 34 35  1  0  0  0
 34 65  1  0  0  0
 35 36  2  0  0  0
 35 38  1  0  0  0
 36 37  1  0  0  0
 36 66  1  0  0  0
 37 67  1  0  0  0
 38 39  1  0  0  0
 39 68  1  0  0  0
 39 69  1  0  0  0
 39 70  1  0  0  0
M  CHG  1  20   1
M  END
> <i_i_glide_confnum>
212

> <i_i_glide_lignum>
1083

> <i_i_glide_posenum>
19

> <i_i_glide_rotatable_bonds>
11

> <i_m_Source_File_Index>
2639

> <b_m_subgroup_collapsed>
0

> <r_i_docking_score>
-5.77054

> <r_i_glide_ecoul>
-7.02779

> <r_i_glide_eff_state_penalty>
0

> <r_i_glide_einternal>
7.06449

> <r_i_glide_emodel>
-70.5076

> <r_i_glide_energy>
-51.7657

> <r_i_glide_erotb>
0.585754

> <r_i_glide_esite>
-0.0737211

> <r_i_glide_evdw>
-44.738

> <r_i_glide_gscore>
-5.77054

> <r_i_glide_hbond>
0

> <r_i_glide_ligand_efficiency>
-0.147962

> <r_i_glide_ligand_efficiency_ln>
-1.23737

> <r_i_glide_ligand_efficiency_sa>
-0.501772

> <r_i_glide_lipo>
-2.49589

> <r_i_glide_metal>
0

> <r_i_glide_rewards>
-0.495613

> <s_i_glide_gridfile>
wee1_glide-grid

> <s_m_Source_File>
wee1_decoys_glide_SP.sdf

> <s_m_Source_Path>
/Users/zhangxujun/Desktop

> <s_m_entry_id>
2914

> <s_m_entry_name>
wee1_decoys_glide_SP.2639

> <s_m_subgroup_title>
wee1_decoys_glide_SP

> <s_m_subgroupid>
wee1_decoys_glide_SP


$$$$
