@<TRIPOS>MOLECULE
ZINC12309225_3290
52   54    1
SMALL
USER_CHARGES


@<TRIPOS>ATOM
      1 C1          0.9859   52.0907   29.4253 C.3       1 UNK         0.0000 
      2 C2          2.0611   52.3782   28.3617 C.3       1 UNK         0.0000 
      3 C3          1.4924   52.2459   26.9367 C.3       1 UNK         0.0000 
      4 S4          2.7690   54.1227   28.6457 S.o2      1 UNK         0.0000 
      5 O5          3.2033   54.2162   30.0458 O.2       1 UNK         0.0000 
      6 O6          1.8298   55.1071   28.0987 O.2       1 UNK         0.0000 
      7 C7          4.2441   54.1829   27.6234 C.ar      1 UNK         0.0000 
      8 C8          5.5060   54.0598   28.2069 C.ar      1 UNK         0.0000 
      9 C9          6.6482   54.0975   27.4128 C.ar      1 UNK         0.0000 
     10 C10         6.5391   54.2524   26.0315 C.ar      1 UNK         0.0000 
     11 C11         5.2796   54.3724   25.4199 C.ar      1 UNK         0.0000 
     12 C12         4.1379   54.3576   26.2399 C.ar      1 UNK         0.0000 
     13 C13         5.1245   54.4940   23.9156 C.2       1 UNK         0.0000 
     14 O14         4.0023   54.4304   23.4066 O.2       1 UNK         0.0000 
     15 N15         6.3109   54.7046   23.2138 N.am      1 UNK         0.0000 
     16 C16         6.3839   55.0201   21.9719 C.2       1 UNK         0.0000 
     17 N17         5.5275   54.8974   20.8758 N.pl3     1 UNK         0.0000 
     18 C18         5.7957   55.7546   19.7991 C.ar      1 UNK         0.0000 
     19 C19         4.9704   56.0510   18.7074 C.ar      1 UNK         0.0000 
     20 C20         5.4592   56.8165   17.6542 C.ar      1 UNK         0.0000 
     21 C21         6.7795   57.2673   17.6828 C.ar      1 UNK         0.0000 
     22 C22         7.6026   56.9850   18.7765 C.ar      1 UNK         0.0000 
     23 C23         7.0925   56.2345   19.8336 C.ar      1 UNK         0.0000 
     24 S24         7.9039   55.6961   21.2814 S.3       1 UNK         0.0000 
     25 S25         7.4259   58.2136   16.3294 S.o2      1 UNK         0.0000 
     26 O26         8.6503   57.5443   15.8809 O.2       1 UNK         0.0000 
     27 O27         6.3335   58.5070   15.3978 O.2       1 UNK         0.0000 
     28 N28         7.9044   59.6968   17.0788 N.pl3     1 UNK         0.0000 
     29 C29         4.6493   53.7418   20.6350 C.3       1 UNK         0.0000 
     30 C30         4.9201   52.8991   19.3895 C.2       1 UNK         0.0000 
     31 C31         5.9724   53.0163   18.5523 C.2       1 UNK         0.0000 
     32 H32         0.5414   51.1040   29.2818 H         1 UNK         0.0000 
     33 H33         1.4030   52.1199   30.4324 H         1 UNK         0.0000 
     34 H34         0.1794   52.8241   29.3844 H         1 UNK         0.0000 
     35 H35         2.8996   51.6928   28.4907 H         1 UNK         0.0000 
     36 H36         1.1019   51.2426   26.7632 H         1 UNK         0.0000 
     37 H37         0.6781   52.9505   26.7642 H         1 UNK         0.0000 
     38 H38         2.2517   52.4288   26.1777 H         1 UNK         0.0000 
     39 H39         5.6068   53.9446   29.2757 H         1 UNK         0.0000 
     40 H40         7.6173   54.0049   27.8759 H         1 UNK         0.0000 
     41 H41         7.4439   54.2572   25.4398 H         1 UNK         0.0000 
     42 H42         3.1545   54.4714   25.8048 H         1 UNK         0.0000 
     43 H43         3.9601   55.6708   18.6554 H         1 UNK         0.0000 
     44 H44         4.8174   57.0362   16.8111 H         1 UNK         0.0000 
     45 H45         8.6248   57.3367   18.7895 H         1 UNK         0.0000 
     46 H46         8.5522   60.2173   16.4866 H         1 UNK         0.0000 
     47 H47         7.0904   60.3151   17.2812 H         1 UNK         0.0000 
     48 H48         4.6707   53.0513   21.4790 H         1 UNK         0.0000 
     49 H49         3.6245   54.1100   20.5603 H         1 UNK         0.0000 
     50 H50         4.1795   52.1427   19.1654 H         1 UNK         0.0000 
     51 H51         6.0542   52.4094   17.6653 H         1 UNK         0.0000 
     52 H52         6.7799   53.7119   18.7130 H         1 UNK         0.0000 
@<TRIPOS>BOND
     1    1    2 1    
     2    1   32 1    
     3    1   33 1    
     4    1   34 1    
     5    2    3 1    
     6    2    4 1    
     7    2   35 1    
     8    3   36 1    
     9    3   37 1    
    10    3   38 1    
    11    4    5 2    
    12    4    6 2    
    13    4    7 1    
    14    7   12 ar   
    15    7    8 ar   
    16    8    9 ar   
    17    8   39 1    
    18    9   10 ar   
    19    9   40 1    
    20   10   11 ar   
    21   10   41 1    
    22   11   12 ar   
    23   11   13 1    
    24   12   42 1    
    25   13   14 2    
    26   13   15 am   BACKBONE|DICT|INTERRES
    27   15   16 2    BACKBONE|DICT|INTERRES
    28   16   24 1    
    29   16   17 1    
    30   17   18 1    
    31   17   29 1    
    32   18   23 ar   
    33   18   19 ar   
    34   19   20 ar   
    35   19   43 1    
    36   20   21 ar   
    37   20   44 1    
    38   21   22 ar   
    39   21   25 1    
    40   22   23 ar   
    41   22   45 1    
    42   23   24 1    
    43   25   26 2    
    44   25   27 2    
    45   25   28 1    
    46   28   46 1    
    47   28   47 1    
    48   29   30 1    
    49   29   48 1    
    50   29   49 1    
    51   30   31 2    
    52   30   50 1    
    53   31   51 1    
    54   31   52 1    
@<TRIPOS>SUBSTRUCTURE
     1 UNK         1 GROUP             0       ****    0 ROOT    
