@<TRIPOS>MOLECULE
ZINC06251736_4579
45   46    1
SMALL
USER_CHARGES


@<TRIPOS>ATOM
      1 C1          6.5381   55.4834   24.7830 C.3       1 UNK         0.0000 
      2 C2          5.8942   54.1255   24.4040 C.3       1 UNK         0.0000 
      3 H3          6.4694   53.2988   24.8313 H         1 UNK         0.0000 
      4 C4          5.8589   53.8388   22.8849 C.2       1 UNK         0.0000 
      5 O5          5.8902   52.6759   22.4817 O.2       1 UNK         0.0000 
      6 N6          5.7707   54.8970   22.0636 N.am      1 UNK         0.0000 
      7 N7          5.8565   54.7280   20.6901 N.am      1 UNK         0.0000 
      8 C8          6.3789   55.7603   19.9999 C.2       1 UNK         0.0000 
      9 O9          6.7044   56.8529   20.4820 O.2       1 UNK         0.0000 
     10 N10         6.4665   55.4744   18.6910 N.am      1 UNK         0.0000 
     11 C11         6.7661   56.4432   17.6330 C.3       1 UNK         0.0000 
     12 C12         7.2307   55.7789   16.3159 C.3       1 UNK         0.0000 
     13 C13         7.5435   56.7893   15.1939 C.3       1 UNK         0.0000 
     14 C14         6.3864   57.7735   14.9598 C.3       1 UNK         0.0000 
     15 C15         5.9958   58.4968   16.2590 C.3       1 UNK         0.0000 
     16 C16         5.6711   57.5183   17.4040 C.3       1 UNK         0.0000 
     17 O17         4.5408   54.0839   24.8638 O.3       1 UNK         0.0000 
     18 C18         4.2414   53.8290   26.1927 C.ar      1 UNK         0.0000 
     19 C19         5.2050   53.7016   27.2086 C.ar      1 UNK         0.0000 
     20 C20         4.8241   53.4265   28.5194 C.ar      1 UNK         0.0000 
     21 C21         3.4794   53.2616   28.8407 C.ar      1 UNK         0.0000 
     22 C22         2.5124   53.3739   27.8432 C.ar      1 UNK         0.0000 
     23 C23         2.8906   53.6489   26.5267 C.ar      1 UNK         0.0000 
     24 Cl24        1.6703   53.6970   25.3026 Cl        1 UNK         0.0000 
     25 Cl25        3.0199   52.8929   30.4639 Cl        1 UNK         0.0000 
     26 H26         7.5043   55.6160   24.2993 H         1 UNK         0.0000 
     27 H27         5.9058   56.3178   24.4818 H         1 UNK         0.0000 
     28 H28         6.6968   55.5887   25.8542 H         1 UNK         0.0000 
     29 H29         5.9362   55.8507   22.3519 H         1 UNK         0.0000 
     30 H30         6.1033   53.7755   20.4618 H         1 UNK         0.0000 
     31 H31         6.1609   54.5643   18.3787 H         1 UNK         0.0000 
     32 H32         7.6475   56.9969   17.9707 H         1 UNK         0.0000 
     33 H33         8.1100   55.1586   16.4964 H         1 UNK         0.0000 
     34 H34         6.4423   55.1139   15.9580 H         1 UNK         0.0000 
     35 H35         8.4448   57.3474   15.4542 H         1 UNK         0.0000 
     36 H36         7.7734   56.2584   14.2684 H         1 UNK         0.0000 
     37 H37         6.6689   58.5045   14.2007 H         1 UNK         0.0000 
     38 H38         5.5215   57.2391   14.5621 H         1 UNK         0.0000 
     39 H39         6.8104   59.1544   16.5685 H         1 UNK         0.0000 
     40 H40         5.1444   59.1547   16.0802 H         1 UNK         0.0000 
     41 H41         4.7285   57.0215   17.1671 H         1 UNK         0.0000 
     42 H42         5.5052   58.0904   18.3182 H         1 UNK         0.0000 
     43 H43         6.2594   53.7915   27.0055 H         1 UNK         0.0000 
     44 H44         5.5802   53.3277   29.2816 H         1 UNK         0.0000 
     45 H45         1.4699   53.2260   28.0851 H         1 UNK         0.0000 
@<TRIPOS>BOND
     1    1    2 1    
     2    1   26 1    
     3    1   27 1    
     4    1   28 1    
     5    2    3 1    
     6    2    4 1    
     7    2   17 1    
     8    4    5 2    
     9    4    6 am   BACKBONE|DICT|INTERRES
    10    6    7 1    
    11    6   29 1    
    12    7    8 am   BACKBONE|DICT|INTERRES
    13    7   30 1    
    14    8    9 2    
    15    8   10 am   BACKBONE|DICT|INTERRES
    16   10   11 1    
    17   10   31 1    
    18   11   16 1    
    19   11   12 1    
    20   11   32 1    
    21   12   13 1    
    22   12   33 1    
    23   12   34 1    
    24   13   14 1    
    25   13   35 1    
    26   13   36 1    
    27   14   15 1    
    28   14   37 1    
    29   14   38 1    
    30   15   16 1    
    31   15   39 1    
    32   15   40 1    
    33   16   41 1    
    34   16   42 1    
    35   17   18 1    
    36   18   23 ar   
    37   18   19 ar   
    38   19   20 ar   
    39   19   43 1    
    40   20   21 ar   
    41   20   44 1    
    42   21   22 ar   
    43   21   25 1    
    44   22   23 ar   
    45   22   45 1    
    46   23   24 1    
@<TRIPOS>SUBSTRUCTURE
     1 UNK         1 GROUP             0       ****    0 ROOT    
