@<TRIPOS>MOLECULE
ZINC28109023_269
55   58    1
SMALL
USER_CHARGES


@<TRIPOS>ATOM
      1 C1         -0.4710   52.2321   30.4538 C.3       1 UNK         0.0000 
      2 C2          0.3553   51.9286   29.1957 C.3       1 UNK         0.0000 
      3 H3          0.6868   50.8976   29.2656 H         1 UNK         0.0000 
      4 C4         -0.4875   51.9464   27.8907 C.2       1 UNK         0.0000 
      5 O5         -0.0443   52.4969   26.8801 O.2       1 UNK         0.0000 
      6 N6         -1.6698   51.2970   27.9319 N.am      1 UNK         0.0000 
      7 C7         -2.5603   50.9980   26.8859 C.ar      1 UNK         0.0000 
      8 C8         -3.8524   50.5876   27.2718 C.ar      1 UNK         0.0000 
      9 C9         -4.7907   50.1619   26.3217 C.ar      1 UNK         0.0000 
     10 C10        -4.3923   50.1413   24.9899 C.ar      1 UNK         0.0000 
     11 C11        -3.1442   50.5341   24.6036 C.ar      1 UNK         0.0000 
     12 C12        -2.1965   50.9765   25.5222 C.ar      1 UNK         0.0000 
     13 O13        -3.0149   50.3741   23.2598 O.3       1 UNK         0.0000 
     14 C14        -4.2059   49.7731   22.8161 C.3       1 UNK         0.0000 
     15 O15        -5.0909   49.7216   23.9044 O.3       1 UNK         0.0000 
     16 F16        -4.7423   50.4969   21.8344 F         1 UNK         0.0000 
     17 F17        -3.9569   48.5414   22.3712 F         1 UNK         0.0000 
     18 N18         1.6671   52.7388   28.9355 N.4       1 UNK         0.0000 
     19 C19         1.6997   54.1039   29.6564 C.3       1 UNK         0.0000 
     20 C20         2.9488   54.9176   29.2430 C.3       1 UNK         0.0000 
     21 C21         4.2743   54.1228   28.9951 C.3       1 UNK         0.0000 
     22 C22         4.1159   52.6284   28.6226 C.3       1 UNK         0.0000 
     23 C23         2.9278   51.9323   29.2956 C.3       1 UNK         0.0000 
     24 N24         5.3365   54.8540   28.2868 N.am      1 UNK         0.0000 
     25 C25         5.8943   54.7065   27.0630 C.2       1 UNK         0.0000 
     26 O26         7.1042   54.8965   26.9736 O.2       1 UNK         0.0000 
     27 C27         5.1017   54.4396   25.7887 C.ar      1 UNK         0.0000 
     28 C28         5.8028   54.2834   24.5783 C.ar      1 UNK         0.0000 
     29 C29         5.1314   54.0966   23.3729 C.ar      1 UNK         0.0000 
     30 C30         3.7421   54.0570   23.3584 C.ar      1 UNK         0.0000 
     31 C31         3.0254   54.1952   24.5416 C.ar      1 UNK         0.0000 
     32 C32         3.7016   54.3953   25.7438 C.ar      1 UNK         0.0000 
     33 H33        -1.2816   51.5121   30.5846 H         1 UNK         0.0000 
     34 H34         0.1596   52.1617   31.3400 H         1 UNK         0.0000 
     35 H35        -0.8955   53.2325   30.4070 H         1 UNK         0.0000 
     36 H36        -1.9145   50.8460   28.8019 H         1 UNK         0.0000 
     37 H37        -4.1258   50.5689   28.3173 H         1 UNK         0.0000 
     38 H38        -5.7747   49.8317   26.6253 H         1 UNK         0.0000 
     39 H39        -1.2049   51.2370   25.1869 H         1 UNK         0.0000 
     40 H40         0.7930   54.6376   29.3602 H         1 UNK         0.0000 
     41 H41         1.6697   53.8982   30.7265 H         1 UNK         0.0000 
     42 H42         2.6621   55.4906   28.3639 H         1 UNK         0.0000 
     43 H43         3.1033   55.6310   30.0576 H         1 UNK         0.0000 
     44 H44         4.6582   54.0338   30.0132 H         1 UNK         0.0000 
     45 H45         5.0357   52.0926   28.8633 H         1 UNK         0.0000 
     46 H46         3.9590   52.5171   27.5514 H         1 UNK         0.0000 
     47 H47         3.0026   51.8791   30.3820 H         1 UNK         0.0000 
     48 H48         2.8066   50.9314   28.8818 H         1 UNK         0.0000 
     49 H49         6.0434   55.2123   28.9173 H         1 UNK         0.0000 
     50 H50         6.8825   54.3175   24.5537 H         1 UNK         0.0000 
     51 H51         5.6865   53.9841   22.4533 H         1 UNK         0.0000 
     52 H52         3.2168   53.9152   22.4248 H         1 UNK         0.0000 
     53 H53         1.9461   54.1601   24.5231 H         1 UNK         0.0000 
     54 H54         3.1046   54.5096   26.6243 H         1 UNK         0.0000 
     55 H55         1.6603   52.8733   27.9291 H         1 UNK         0.0000 
@<TRIPOS>BOND
     1    1    2 1    
     2    1   33 1    
     3    1   34 1    
     4    1   35 1    
     5    2    3 1    
     6    2    4 1    
     7    2   18 1    
     8    4    5 2    
     9    4    6 am   BACKBONE|DICT|INTERRES
    10    6    7 1    
    11    6   36 1    
    12    7   12 ar   
    13    7    8 ar   
    14    8    9 ar   
    15    8   37 1    
    16    9   10 ar   
    17    9   38 1    
    18   10   15 1    
    19   10   11 ar   
    20   11   12 ar   
    21   11   13 1    
    22   12   39 1    
    23   13   14 1    
    24   14   15 1    
    25   14   16 1    
    26   14   17 1    
    27   18   23 1    
    28   18   19 1    
    29   18   55 1    
    30   19   20 1    
    31   19   40 1    
    32   19   41 1    
    33   20   21 1    
    34   20   42 1    
    35   20   43 1    
    36   21   22 1    
    37   21   24 1    
    38   21   44 1    
    39   22   23 1    
    40   22   45 1    
    41   22   46 1    
    42   23   47 1    
    43   23   48 1    
    44   24   25 am   BACKBONE|DICT|INTERRES
    45   24   49 1    
    46   25   26 2    
    47   25   27 1    
    48   27   32 ar   
    49   27   28 ar   
    50   28   29 ar   
    51   28   50 1    
    52   29   30 ar   
    53   29   51 1    
    54   30   31 ar   
    55   30   52 1    
    56   31   32 ar   
    57   31   53 1    
    58   32   54 1    
@<TRIPOS>SUBSTRUCTURE
     1 UNK         1 GROUP             0       ****    0 ROOT    
