@<TRIPOS>MOLECULE
ZINC20720219_2361
58   63    1
SMALL
USER_CHARGES


@<TRIPOS>ATOM
      1 C1         -1.5381   48.8378   23.3139 C.ar      1 UNK         0.0000 
      2 C2         -2.4650   49.8377   23.6039 C.ar      1 UNK         0.0000 
      3 C3         -2.4265   50.4783   24.8403 C.ar      1 UNK         0.0000 
      4 C4         -1.4628   50.1206   25.7887 C.ar      1 UNK         0.0000 
      5 C5         -0.5563   49.0899   25.4964 C.ar      1 UNK         0.0000 
      6 C6         -0.5829   48.4605   24.2557 C.ar      1 UNK         0.0000 
      7 C7         -1.4153   50.8835   27.1189 C.3       1 UNK         0.0000 
      8 N8         -0.0545   50.9076   27.7045 N.pl3     1 UNK         0.0000 
      9 S9          0.8418   52.3831   28.0145 S.o2      1 UNK         0.0000 
     10 O10        -0.0970   53.4085   28.4816 O.2       1 UNK         0.0000 
     11 O11         2.0219   52.0202   28.8078 O.2       1 UNK         0.0000 
     12 C12         1.4281   52.9109   26.4104 C.ar      1 UNK         0.0000 
     13 C13         0.6094   52.7691   25.2898 C.ar      1 UNK         0.0000 
     14 C14         1.0401   53.1722   24.0399 C.ar      1 UNK         0.0000 
     15 C15         2.2884   53.7553   23.9024 C.ar      1 UNK         0.0000 
     16 C16         3.1384   53.9261   25.0177 C.ar      1 UNK         0.0000 
     17 C17         2.6911   53.4905   26.2708 C.ar      1 UNK         0.0000 
     18 C18         4.4647   54.6337   24.8016 C.3       1 UNK         0.0000 
     19 H19         4.2656   55.6964   24.8586 H         1 UNK         0.0000 
     20 C20         5.6654   54.3886   25.6831 C.2       1 UNK         0.0000 
     21 C21         6.7785   54.5274   24.9358 C.2       1 UNK         0.0000 
     22 C22         6.4491   54.7024   23.4605 C.3       1 UNK         0.0000 
     23 C23         5.0067   54.2143   23.4473 C.3       1 UNK         0.0000 
     24 H24         5.0835   53.1276   23.4378 H         1 UNK         0.0000 
     25 C25         4.0408   54.5335   22.2760 C.3       1 UNK         0.0000 
     26 H26         3.9213   55.5920   22.0818 H         1 UNK         0.0000 
     27 N27         2.6810   54.0998   22.5978 N.pl3     1 UNK         0.0000 
     28 C28         4.5017   53.9222   20.9855 C.ar      1 UNK         0.0000 
     29 C29         4.1473   52.6925   20.4701 C.ar      1 UNK         0.0000 
     30 N30         4.7805   52.4969   19.2819 N.pl3     1 UNK         0.0000 
     31 H31         4.7047   51.6175   18.7522 H         1 UNK         0.0000 
     32 C32         5.5954   53.5645   18.9869 C.ar      1 UNK         0.0000 
     33 C33         5.4356   54.4953   20.0535 C.ar      1 UNK         0.0000 
     34 C34         6.1630   55.6969   20.0118 C.ar      1 UNK         0.0000 
     35 C35         7.0239   55.9310   18.9407 C.ar      1 UNK         0.0000 
     36 C36         7.1683   54.9964   17.9173 C.ar      1 UNK         0.0000 
     37 C37         6.4582   53.7943   17.9108 C.ar      1 UNK         0.0000 
     38 H38        -1.5631   48.3494   22.3510 H         1 UNK         0.0000 
     39 H39        -3.2065   50.1189   22.8702 H         1 UNK         0.0000 
     40 H40        -3.1400   51.2619   25.0563 H         1 UNK         0.0000 
     41 H41         0.1770   48.7735   26.2240 H         1 UNK         0.0000 
     42 H42         0.1354   47.6854   24.0293 H         1 UNK         0.0000 
     43 H43        -1.7262   51.9165   26.9588 H         1 UNK         0.0000 
     44 H44        -2.1094   50.4831   27.8565 H         1 UNK         0.0000 
     45 H45         0.4406   50.0146   27.7704 H         1 UNK         0.0000 
     46 H46        -0.3834   52.3733   25.3599 H         1 UNK         0.0000 
     47 H47         0.3968   53.0368   23.1826 H         1 UNK         0.0000 
     48 H48         3.3194   53.6172   27.1414 H         1 UNK         0.0000 
     49 H49         5.6093   54.2647   26.7548 H         1 UNK         0.0000 
     50 H50         7.7962   54.4968   25.2845 H         1 UNK         0.0000 
     51 H51         7.0800   54.0784   22.8262 H         1 UNK         0.0000 
     52 H52         6.5563   55.7310   23.1172 H         1 UNK         0.0000 
     53 H53         2.0299   54.1344   21.8241 H         1 UNK         0.0000 
     54 H54         3.4890   51.9292   20.8600 H         1 UNK         0.0000 
     55 H55         6.0544   56.4287   20.7967 H         1 UNK         0.0000 
     56 H56         7.5901   56.8506   18.8970 H         1 UNK         0.0000 
     57 H57         7.8470   55.2100   17.1041 H         1 UNK         0.0000 
     58 H58         6.5775   53.0734   17.1146 H         1 UNK         0.0000 
@<TRIPOS>BOND
     1    1    6 ar   
     2    1    2 ar   
     3    1   38 1    
     4    2    3 ar   
     5    2   39 1    
     6    3    4 ar   
     7    3   40 1    
     8    4    5 ar   
     9    4    7 1    
    10    5    6 ar   
    11    5   41 1    
    12    6   42 1    
    13    7    8 1    
    14    7   43 1    
    15    7   44 1    
    16    8    9 1    
    17    8   45 1    
    18    9   10 2    
    19    9   11 2    
    20    9   12 1    
    21   12   17 ar   
    22   12   13 ar   
    23   13   14 ar   
    24   13   46 1    
    25   14   15 ar   
    26   14   47 1    
    27   15   27 1    
    28   15   16 ar   
    29   16   17 ar   
    30   16   18 1    
    31   17   48 1    
    32   18   19 1    
    33   18   23 1    
    34   18   20 1    
    35   20   21 2    
    36   20   49 1    
    37   21   22 1    
    38   21   50 1    
    39   22   23 1    
    40   22   51 1    
    41   22   52 1    
    42   23   24 1    
    43   23   25 1    
    44   25   26 1    
    45   25   27 1    
    46   25   28 1    
    47   27   53 1    
    48   28   33 ar   
    49   28   29 ar   
    50   29   30 ar   
    51   29   54 1    
    52   30   31 1    
    53   30   32 ar   
    54   32   37 ar   
    55   32   33 ar   
    56   33   34 ar   
    57   34   35 ar   
    58   34   55 1    
    59   35   36 ar   
    60   35   56 1    
    61   36   37 ar   
    62   36   57 1    
    63   37   58 1    
@<TRIPOS>SUBSTRUCTURE
     1 UNK         1 GROUP             0       ****    0 ROOT    
