ZINC13739591_933
                    3D
 Schrodinger Suite 2024-2.
 58 61  0  0  1  0            999 V2000
    9.7678   57.9145   18.6326 C   0  0  0  0  0  0
    8.2876   58.2882   18.4161 C   0  0  0  0  0  0
    7.3940   57.2825   18.8973 O   0  0  0  0  0  0
    7.2289   56.1079   18.2305 C   0  0  0  0  0  0
    7.8059   55.8555   17.1715 O   0  0  0  0  0  0
    6.2350   55.1919   18.8440 C   0  0  0  0  0  0
    6.1094   55.0036   20.1925 C   0  0  0  0  0  0
    5.1612   54.2020   20.7956 N   0  0  0  0  0  0
    5.2280   54.0655   22.1651 C   0  0  0  0  0  0
    4.5297   53.3023   22.8352 O   0  0  0  0  0  0
    6.2385   54.9352   22.7323 C   0  0  0  0  0  0
    6.4738   55.1525   24.0538 C   0  0  0  0  0  0
    5.7822   54.7165   25.2966 C   0  0  0  0  0  0
    6.5624   54.4283   26.4213 C   0  0  0  0  0  0
    5.9725   54.0485   27.6233 C   0  0  0  0  0  0
    4.5880   53.9468   27.7167 C   0  0  0  0  0  0
    3.7922   54.2423   26.6078 C   0  0  0  0  0  0
    4.3874   54.6350   25.4093 C   0  0  0  0  0  0
    3.8755   53.4548   29.2671 S   0  0  0  0  0  0
    2.0974   53.1695   29.0333 C   0  0  0  0  0  0
    7.1514   55.6967   21.4466 S   0  0  0  0  0  0
    4.2064   53.5975   19.9575 C   0  0  0  0  0  0
    4.1987   53.7185   18.6057 C   0  0  0  0  0  0
    5.2810   54.4894   17.8415 C   0  0  2  0  0  0
    4.7911   55.2984   17.2959 H   0  0  0  0  0  0
    5.9269   53.6501   16.7211 C   0  0  0  0  0  0
    7.0602   52.8703   16.9751 C   0  0  0  0  0  0
    7.6327   52.0996   15.9636 C   0  0  0  0  0  0
    7.0673   52.0998   14.6876 C   0  0  0  0  0  0
    5.9417   52.8788   14.4248 C   0  0  0  0  0  0
    5.3747   53.6525   15.4349 C   0  0  0  0  0  0
    7.7473   51.1267   13.3674 S   0  0  0  0  0  0
    9.2132   50.2294   13.9605 C   0  0  0  0  0  0
    3.1548   53.1287   17.8209 C   0  0  0  0  0  0
    2.2826   52.6958   17.1961 N   0  0  0  0  0  0
    3.2000   52.8639   20.5567 N   0  0  0  0  0  0
   10.4205   58.7386   18.3449 H   0  0  0  0  0  0
    9.9780   57.6711   19.6768 H   0  0  0  0  0  0
   10.0546   57.0494   18.0338 H   0  0  0  0  0  0
    8.0946   58.4926   17.3612 H   0  0  0  0  0  0
    8.0643   59.2134   18.9481 H   0  0  0  0  0  0
    7.3042   55.8159   24.2533 H   0  0  0  0  0  0
    7.6352   54.4965   26.3744 H   0  0  0  0  0  0
    6.5951   53.8318   28.4811 H   0  0  0  0  0  0
    2.7160   54.1872   26.6585 H   0  0  0  0  0  0
    3.7479   54.8908   24.5748 H   0  0  0  0  0  0
    1.6465   52.8256   29.9643 H   0  0  0  0  0  0
    1.5927   54.0882   28.7328 H   0  0  0  0  0  0
    1.9276   52.4050   28.2731 H   0  0  0  0  0  0
    7.4970   52.8578   17.9624 H   0  0  0  0  0  0
    8.5026   51.5049   16.1922 H   0  0  0  0  0  0
    5.5014   52.8856   13.4379 H   0  0  0  0  0  0
    4.4986   54.2458   15.2174 H   0  0  0  0  0  0
    9.6641   49.6698   13.1402 H   0  0  0  0  0  0
    8.9462   49.5223   14.7457 H   0  0  0  0  0  0
    9.9623   50.9228   14.3431 H   0  0  0  0  0  0
    2.4789   52.4200   20.0061 H   0  0  0  0  0  0
    3.1812   52.7397   21.5605 H   0  0  0  0  0  0
  1  2  1  0  0  0
  1 37  1  0  0  0
  1 38  1  0  0  0
  1 39  1  0  0  0
  2  3  1  0  0  0
  2 40  1  0  0  0
  2 41  1  0  0  0
  3  4  1  0  0  0
  4  5  2  0  0  0
  4  6  1  0  0  0
  6 24  1  0  0  0
  6  7  2  0  0  0
  7 21  1  0  0  0
  7  8  1  0  0  0
  8  9  1  0  0  0
  8 22  1  0  0  0
  9 10  2  0  0  0
  9 11  1  0  0  0
 11 12  2  0  0  0
 11 21  1  0  0  0
 12 13  1  0  0  0
 12 42  1  0  0  0
 13 18  2  0  0  0
 13 14  1  0  0  0
 14 15  2  0  0  0
 14 43  1  0  0  0
 15 16  1  0  0  0
 15 44  1  0  0  0
 16 17  2  0  0  0
 16 19  1  0  0  0
 17 18  1  0  0  0
 17 45  1  0  0  0
 18 46  1  0  0  0
 19 20  1  0  0  0
 20 47  1  0  0  0
 20 48  1  0  0  0
 20 49  1  0  0  0
 22 23  2  0  0  0
 22 36  1  0  0  0
 23 24  1  0  0  0
 23 34  1  0  0  0
 24 25  1  0  0  0
 24 26  1  0  0  0
 26 31  2  0  0  0
 26 27  1  0  0  0
 27 28  2  0  0  0
 27 50  1  0  0  0
 28 29  1  0  0  0
 28 51  1  0  0  0
 29 30  2  0  0  0
 29 32  1  0  0  0
 30 31  1  0  0  0
 30 52  1  0  0  0
 31 53  1  0  0  0
 32 33  1  0  0  0
 33 54  1  0  0  0
 33 55  1  0  0  0
 33 56  1  0  0  0
 34 35  3  0  0  0
 36 57  1  0  0  0
 36 58  1  0  0  0
M  END
> <i_i_glide_confnum>
22

> <i_i_glide_lignum>
934

> <i_i_glide_posenum>
178

> <i_i_glide_rotatable_bonds>
8

> <i_m_Source_File_Index>
3140

> <b_m_subgroup_collapsed>
0

> <r_i_docking_score>
-5.58199

> <r_i_glide_ecoul>
0.324125

> <r_i_glide_eff_state_penalty>
0

> <r_i_glide_einternal>
3.84575

> <r_i_glide_emodel>
-60.6072

> <r_i_glide_energy>
-46.7

> <r_i_glide_erotb>
0.302176

> <r_i_glide_esite>
-0.031418

> <r_i_glide_evdw>
-47.0241

> <r_i_glide_gscore>
-5.58199

> <r_i_glide_hbond>
-0.00609463

> <r_i_glide_ligand_efficiency>
-0.159485

> <r_i_glide_ligand_efficiency_ln>
-1.22537

> <r_i_glide_ligand_efficiency_sa>
-0.521688

> <r_i_glide_lipo>
-3.33798

> <r_i_glide_metal>
0

> <r_i_glide_rewards>
-0.206091

> <s_i_glide_gridfile>
wee1_glide-grid

> <s_m_Source_File>
wee1_decoys_glide_SP.sdf

> <s_m_Source_Path>
/Users/zhangxujun/Desktop

> <s_m_entry_id>
3415

> <s_m_entry_name>
wee1_decoys_glide_SP.3140

> <s_m_subgroup_title>
wee1_decoys_glide_SP

> <s_m_subgroupid>
wee1_decoys_glide_SP


$$$$
