@<TRIPOS>MOLECULE
ZINC39530366_587
65   69    1
SMALL
USER_CHARGES


@<TRIPOS>ATOM
      1 C1          6.6044   54.3704   27.0427 C.ar      1 UNK         0.0000 
      2 C2          5.3815   54.0806   27.6422 C.ar      1 UNK         0.0000 
      3 C3          4.2168   54.0980   26.8786 C.ar      1 UNK         0.0000 
      4 C4          4.2710   54.4078   25.5147 C.ar      1 UNK         0.0000 
      5 C5          5.5078   54.7012   24.9281 C.ar      1 UNK         0.0000 
      6 C6          6.6747   54.6763   25.6874 C.ar      1 UNK         0.0000 
      7 C7          2.9688   54.4478   24.7020 C.3       1 UNK         0.0000 
      8 C8          2.9476   53.6474   23.4030 C.ar      1 UNK         0.0000 
      9 C9          2.1916   52.4852   23.3114 C.ar      1 UNK         0.0000 
     10 C10         2.1415   51.7813   22.1140 C.ar      1 UNK         0.0000 
     11 C11         2.8404   52.2070   20.9723 C.ar      1 UNK         0.0000 
     12 C12         3.6333   53.3804   21.0711 C.ar      1 UNK         0.0000 
     13 C13         3.6314   54.0976   22.2726 C.ar      1 UNK         0.0000 
     14 S14         4.7167   53.9897   19.7397 S.3       1 UNK         0.0000 
     15 O15         5.6120   52.8968   19.3526 O.2       1 UNK         0.0000 
     16 O16         3.9045   54.7025   18.7500 O.2       1 UNK         0.0000 
     17 O17         5.6343   55.1282   20.5554 O.3       1 UNK         0.0000 
     18 C18         6.4841   55.8906   19.7942 C.ar      1 UNK         0.0000 
     19 C19         5.9868   56.8973   18.9614 C.ar      1 UNK         0.0000 
     20 C20         6.8570   57.6663   18.1945 C.ar      1 UNK         0.0000 
     21 C21         8.2269   57.4190   18.2562 C.ar      1 UNK         0.0000 
     22 C22         8.7301   56.4199   19.0859 C.ar      1 UNK         0.0000 
     23 C23         7.8581   55.6635   19.8667 C.ar      1 UNK         0.0000 
     24 N24         2.6536   51.4548   19.8139 N.pl3     1 UNK         0.0000 
     25 C25         2.7115   49.9813   19.8081 C.3       1 UNK         0.0000 
     26 C26         1.6643   49.2833   18.9211 C.3       1 UNK         0.0000 
     27 N27         1.7248   49.8841   17.5118 N.4       1 UNK         0.0000 
     28 C28         1.5193   51.4035   17.5305 C.3       1 UNK         0.0000 
     29 H29         0.5081   51.5206   17.9281 H         1 UNK         0.0000 
     30 C30         2.5499   52.0458   18.4731 C.3       1 UNK         0.0000 
     31 C31         1.5553   52.0098   16.1235 C.ar      1 UNK         0.0000 
     32 C32         2.3163   51.4246   15.0984 C.ar      1 UNK         0.0000 
     33 C33         2.3317   51.9749   13.8179 C.ar      1 UNK         0.0000 
     34 C34         1.5935   53.1251   13.5431 C.ar      1 UNK         0.0000 
     35 C35         0.8508   53.7298   14.5566 C.ar      1 UNK         0.0000 
     36 C36         0.8374   53.1869   15.8403 C.ar      1 UNK         0.0000 
     37 O37         0.1317   53.8464   16.8125 O.3       1 UNK         0.0000 
     38 H38         7.5044   54.3592   27.6416 H         1 UNK         0.0000 
     39 H39         5.3377   53.8445   28.6940 H         1 UNK         0.0000 
     40 H40         3.2743   53.8698   27.3524 H         1 UNK         0.0000 
     41 H41         5.5963   54.9534   23.8858 H         1 UNK         0.0000 
     42 H42         7.6182   54.8963   25.2126 H         1 UNK         0.0000 
     43 H43         2.1454   54.1000   25.3319 H         1 UNK         0.0000 
     44 H44         2.7116   55.4799   24.4742 H         1 UNK         0.0000 
     45 H45         1.6316   52.1231   24.1622 H         1 UNK         0.0000 
     46 H46         1.5160   50.9023   22.0749 H         1 UNK         0.0000 
     47 H47         4.1694   55.0247   22.3394 H         1 UNK         0.0000 
     48 H48         4.9251   57.0806   18.8939 H         1 UNK         0.0000 
     49 H49         6.4742   58.4461   17.5515 H         1 UNK         0.0000 
     50 H50         8.9038   58.0087   17.6566 H         1 UNK         0.0000 
     51 H51         9.7949   56.2393   19.1322 H         1 UNK         0.0000 
     52 H52         8.2455   54.8969   20.5180 H         1 UNK         0.0000 
     53 H53         3.6937   49.7553   19.3973 H         1 UNK         0.0000 
     54 H54         2.7128   49.5545   20.8116 H         1 UNK         0.0000 
     55 H55         1.8862   48.2230   18.7849 H         1 UNK         0.0000 
     56 H56         0.6426   49.4052   19.2859 H         1 UNK         0.0000 
     57 H57         2.6469   49.6931   17.1134 H         1 UNK         0.0000 
     58 H58         2.2805   53.0949   18.5733 H         1 UNK         0.0000 
     59 H59         3.5351   52.0093   18.0031 H         1 UNK         0.0000 
     60 H60         2.9143   50.5425   15.2798 H         1 UNK         0.0000 
     61 H61         2.9210   51.5121   13.0392 H         1 UNK         0.0000 
     62 H62         1.6089   53.5545   12.5526 H         1 UNK         0.0000 
     63 H63         0.2979   54.6338   14.3498 H         1 UNK         0.0000 
     64 H64         0.5390   53.7811   17.6763 H         1 UNK         0.0000 
     65 H65         1.0540   49.4534   16.8897 H         1 UNK         0.0000 
@<TRIPOS>BOND
     1    1    6 ar   
     2    1    2 ar   
     3    1   38 1    
     4    2    3 ar   
     5    2   39 1    
     6    3    4 ar   
     7    3   40 1    
     8    4    5 ar   
     9    4    7 1    
    10    5    6 ar   
    11    5   41 1    
    12    6   42 1    
    13    7    8 1    
    14    7   43 1    
    15    7   44 1    
    16    8   13 ar   
    17    8    9 ar   
    18    9   10 ar   
    19    9   45 1    
    20   10   11 ar   
    21   10   46 1    
    22   11   12 ar   
    23   11   24 1    
    24   12   13 ar   
    25   12   14 1    
    26   13   47 1    
    27   14   15 2    
    28   14   16 2    
    29   14   17 1    
    30   17   18 1    
    31   18   23 ar   
    32   18   19 ar   
    33   19   20 ar   
    34   19   48 1    
    35   20   21 ar   
    36   20   49 1    
    37   21   22 ar   
    38   21   50 1    
    39   22   23 ar   
    40   22   51 1    
    41   23   52 1    
    42   24   30 1    
    43   24   25 1    
    44   25   26 1    
    45   25   53 1    
    46   25   54 1    
    47   26   27 1    
    48   26   55 1    
    49   26   56 1    
    50   27   28 1    
    51   27   57 1    
    52   27   65 1    
    53   28   29 1    
    54   28   30 1    
    55   28   31 1    
    56   30   58 1    
    57   30   59 1    
    58   31   36 ar   
    59   31   32 ar   
    60   32   33 ar   
    61   32   60 1    
    62   33   34 ar   
    63   33   61 1    
    64   34   35 ar   
    65   34   62 1    
    66   35   36 ar   
    67   35   63 1    
    68   36   37 1    
    69   37   64 1    
@<TRIPOS>SUBSTRUCTURE
     1 UNK         1 GROUP             0       ****    0 ROOT    
