@<TRIPOS>MOLECULE
ZINC66967541_1459
56   59    1
SMALL
USER_CHARGES


@<TRIPOS>ATOM
      1 C1          3.1973   53.5437   22.6228 C.3       1 UNK         0.0000 
      2 C2          4.5457   54.1053   22.1890 C.ar      1 UNK         0.0000 
      3 C3          4.7743   54.2910   20.8212 C.ar      1 UNK         0.0000 
      4 C4          5.9559   54.8825   20.3476 C.ar      1 UNK         0.0000 
      5 C5          6.9033   55.2984   21.2945 C.ar      1 UNK         0.0000 
      6 C6          6.7054   55.0832   22.6554 C.ar      1 UNK         0.0000 
      7 C7          5.5392   54.4623   23.1197 C.ar      1 UNK         0.0000 
      8 N8          5.3632   54.0999   24.4710 N.am      1 UNK         0.0000 
      9 C9          5.9890   54.5634   25.5704 C.2       1 UNK         0.0000 
     10 O10         6.7050   55.5646   25.6308 O.2       1 UNK         0.0000 
     11 N11         5.7135   53.7874   26.6278 N.am      1 UNK         0.0000 
     12 C12         5.5487   54.2589   28.0049 C.3       1 UNK         0.0000 
     13 C13         4.1087   54.1142   28.4655 C.2       1 UNK         0.0000 
     14 N14         3.1739   53.3346   27.9876 N.2       1 UNK         0.0000 
     15 C15         2.1455   53.6285   28.7600 C.2       1 UNK         0.0000 
     16 N16         2.3531   54.5427   29.6818 N.2       1 UNK         0.0000 
     17 O17         3.6958   54.8708   29.5099 O.3       1 UNK         0.0000 
     18 C18         0.7879   52.9571   28.6155 C.3       1 UNK         0.0000 
     19 C19         0.2678   52.5274   27.2624 C.3       1 UNK         0.0000 
     20 C20         0.6803   51.4857   28.2855 C.3       1 UNK         0.0000 
     21 C21         6.3075   54.9317   18.8680 C.2       1 UNK         0.0000 
     22 O22         7.5036   54.9859   18.5635 O.2       1 UNK         0.0000 
     23 N23         5.3389   54.7893   17.9190 N.am      1 UNK         0.0000 
     24 C24         5.7293   54.2290   16.6036 C.3       1 UNK         0.0000 
     25 C25         4.6222   53.2509   16.1666 C.3       1 UNK         0.0000 
     26 C26         3.2512   53.9318   16.0986 C.3       1 UNK         0.0000 
     27 C27         2.9216   54.6045   17.4400 C.3       1 UNK         0.0000 
     28 C28         4.0466   55.5210   17.9911 C.3       1 UNK         0.0000 
     29 H29         3.7867   55.7169   19.0276 H         1 UNK         0.0000 
     30 C30         4.0819   56.8954   17.2911 C.3       1 UNK         0.0000 
     31 H31         2.8149   54.0856   23.4889 H         1 UNK         0.0000 
     32 H32         2.4449   53.6492   21.8391 H         1 UNK         0.0000 
     33 H33         3.2830   52.4946   22.8858 H         1 UNK         0.0000 
     34 H34         4.0307   53.9227   20.1303 H         1 UNK         0.0000 
     35 H35         7.8428   55.7316   20.9792 H         1 UNK         0.0000 
     36 H36         7.5018   55.3615   23.3290 H         1 UNK         0.0000 
     37 H37         4.6354   53.4205   24.6273 H         1 UNK         0.0000 
     38 H38         5.4717   52.8206   26.4583 H         1 UNK         0.0000 
     39 H39         6.2070   53.6790   28.6523 H         1 UNK         0.0000 
     40 H40         5.8704   55.2978   28.1010 H         1 UNK         0.0000 
     41 H41         0.0388   53.3329   29.3149 H         1 UNK         0.0000 
     42 H42        -0.7920   52.6639   27.0450 H         1 UNK         0.0000 
     43 H43         0.8931   52.6845   26.3825 H         1 UNK         0.0000 
     44 H44         1.5915   50.9095   28.1206 H         1 UNK         0.0000 
     45 H45        -0.0944   50.8967   28.7800 H         1 UNK         0.0000 
     46 H46         6.6636   53.6662   16.6508 H         1 UNK         0.0000 
     47 H47         5.8265   55.0388   15.8803 H         1 UNK         0.0000 
     48 H48         4.5893   52.4016   16.8522 H         1 UNK         0.0000 
     49 H49         4.8721   52.8311   15.1922 H         1 UNK         0.0000 
     50 H50         2.4807   53.2040   15.8412 H         1 UNK         0.0000 
     51 H51         3.2499   54.6779   15.3028 H         1 UNK         0.0000 
     52 H52         2.7362   53.8144   18.1688 H         1 UNK         0.0000 
     53 H53         1.9802   55.1518   17.3755 H         1 UNK         0.0000 
     54 H54         3.0990   57.3673   17.2829 H         1 UNK         0.0000 
     55 H55         4.3820   56.8097   16.2467 H         1 UNK         0.0000 
     56 H56         4.7627   57.5822   17.7947 H         1 UNK         0.0000 
@<TRIPOS>BOND
     1    1    2 1    
     2    1   31 1    
     3    1   32 1    
     4    1   33 1    
     5    2    7 ar   
     6    2    3 ar   
     7    3    4 ar   
     8    3   34 1    
     9    4    5 ar   
    10    4   21 1    
    11    5    6 ar   
    12    5   35 1    
    13    6    7 ar   
    14    6   36 1    
    15    7    8 1    
    16    8    9 am   BACKBONE|DICT|INTERRES
    17    8   37 1    
    18    9   10 2    
    19    9   11 am   BACKBONE|DICT|INTERRES
    20   11   12 1    
    21   11   38 1    
    22   12   13 1    
    23   12   39 1    
    24   12   40 1    
    25   13   17 1    
    26   13   14 2    
    27   14   15 1    
    28   15   16 2    
    29   15   18 1    
    30   16   17 1    
    31   18   20 1    
    32   18   19 1    
    33   18   41 1    
    34   19   20 1    
    35   19   42 1    
    36   19   43 1    
    37   20   44 1    
    38   20   45 1    
    39   21   22 2    
    40   21   23 am   BACKBONE|DICT|INTERRES
    41   23   28 1    
    42   23   24 1    
    43   24   25 1    
    44   24   46 1    
    45   24   47 1    
    46   25   26 1    
    47   25   48 1    
    48   25   49 1    
    49   26   27 1    
    50   26   50 1    
    51   26   51 1    
    52   27   28 1    
    53   27   52 1    
    54   27   53 1    
    55   28   29 1    
    56   28   30 1    
    57   30   54 1    
    58   30   55 1    
    59   30   56 1    
@<TRIPOS>SUBSTRUCTURE
     1 UNK         1 GROUP             0       ****    0 ROOT    
