ZINC13566989_4658
                    3D
 Schrodinger Suite 2024-2.
 60 64  0  0  1  0            999 V2000
    1.3102   49.6927   23.5196 C   0  0  0  0  0  0
    0.2121   50.7640   23.3474 C   0  0  1  0  0  0
   -0.7283   50.2130   23.3403 H   0  0  0  0  0  0
    0.1017   51.7208   24.5522 C   0  0  0  0  0  0
    1.1061   52.0968   25.1573 O   0  0  0  0  0  0
   -1.2699   51.9058   25.0886 C   0  0  0  0  0  0
   -1.5568   51.5294   26.4028 C   0  0  0  0  0  0
   -2.8425   51.6958   26.9055 C   0  0  0  0  0  0
   -3.8396   52.2993   26.1274 C   0  0  0  0  0  0
   -3.5335   52.6995   24.8170 C   0  0  0  0  0  0
   -2.2587   52.4974   24.2983 C   0  0  0  0  0  0
   -5.1383   52.4630   26.6702 N   0  0  0  0  0  0
   -5.6792   51.5980   27.7284 C   0  0  0  0  0  0
   -7.1410   51.9649   27.8412 C   0  0  0  0  0  0
   -7.1874   53.3765   27.3133 C   0  0  0  0  0  0
   -5.9486   53.5359   26.4355 C   0  0  0  0  0  0
   -5.7561   54.4959   25.6902 O   0  0  0  0  0  0
    0.2556   51.7288   21.7918 S   0  0  0  0  0  0
    1.9979   52.1292   21.6073 C   0  0  0  0  0  0
    2.5007   53.0119   22.4062 N   0  0  0  0  0  0
    3.8273   53.3490   22.2444 C   0  0  0  0  0  0
    4.5198   53.8408   23.3182 C   0  0  0  0  0  0
    5.9786   53.9993   23.3346 C   0  0  0  0  0  0
    6.6694   54.4511   24.4026 C   0  0  0  0  0  0
    6.0392   54.8438   25.6659 C   0  0  0  0  0  0
    6.6868   55.2965   26.6067 O   0  0  0  0  0  0
    4.5798   54.6330   25.6778 C   0  0  0  0  0  0
    3.8904   54.1713   24.6067 C   0  0  0  0  0  0
    4.4244   53.0450   20.9058 C   0  0  0  0  0  0
    5.2287   53.8596   20.1623 C   0  0  0  0  0  0
    5.5890   55.2250   20.5467 C   0  0  0  0  0  0
    6.4248   56.0086   19.8294 C   0  0  0  0  0  0
    7.0668   55.5661   18.5810 C   0  0  0  0  0  0
    7.8788   56.2509   17.9635 O   0  0  0  0  0  0
    6.6260   54.2293   18.1436 C   0  0  0  0  0  0
    5.7820   53.4559   18.8651 C   0  0  0  0  0  0
    3.9254   51.8365   20.4087 N   0  0  0  0  0  0
    2.5544   51.4924   20.6396 N   0  5  0  0  0  0
    1.1048   49.0573   24.3830 H   0  0  0  0  0  0
    1.3627   49.0429   22.6461 H   0  0  0  0  0  0
    2.3006   50.1295   23.6601 H   0  0  0  0  0  0
   -0.8029   51.0717   27.0297 H   0  0  0  0  0  0
   -3.0397   51.3683   27.9158 H   0  0  0  0  0  0
   -4.2835   53.1475   24.1822 H   0  0  0  0  0  0
   -2.0486   52.8136   23.2865 H   0  0  0  0  0  0
   -5.5411   50.5440   27.4808 H   0  0  0  0  0  0
   -5.1519   51.7831   28.6653 H   0  0  0  0  0  0
   -7.5263   51.8604   28.8564 H   0  0  0  0  0  0
   -7.7344   51.3103   27.1993 H   0  0  0  0  0  0
   -7.1071   54.0961   28.1277 H   0  0  0  0  0  0
   -8.1048   53.5892   26.7637 H   0  0  0  0  0  0
    6.5635   53.6956   22.4818 H   0  0  0  0  0  0
    7.7419   54.4928   24.3322 H   0  0  0  0  0  0
    4.0299   54.8501   26.5812 H   0  0  0  0  0  0
    2.8218   54.0500   24.7167 H   0  0  0  0  0  0
    5.1330   55.6633   21.4191 H   0  0  0  0  0  0
    6.6035   57.0131   20.1773 H   0  0  0  0  0  0
    6.9845   53.8455   17.2001 H   0  0  0  0  0  0
    5.5152   52.4967   18.4466 H   0  0  0  0  0  0
    4.1658   51.4775   19.4899 H   0  0  0  0  0  0
  1  2  1  0  0  0
  1 39  1  0  0  0
  1 40  1  0  0  0
  1 41  1  0  0  0
  2  3  1  0  0  0
  2  4  1  0  0  0
  2 18  1  0  0  0
  4  5  2  0  0  0
  4  6  1  0  0  0
  6 11  2  0  0  0
  6  7  1  0  0  0
  7  8  2  0  0  0
  7 42  1  0  0  0
  8  9  1  0  0  0
  8 43  1  0  0  0
  9 10  2  0  0  0
  9 12  1  0  0  0
 10 11  1  0  0  0
 10 44  1  0  0  0
 11 45  1  0  0  0
 12 16  1  0  0  0
 12 13  1  0  0  0
 13 14  1  0  0  0
 13 46  1  0  0  0
 13 47  1  0  0  0
 14 15  1  0  0  0
 14 48  1  0  0  0
 14 49  1  0  0  0
 15 16  1  0  0  0
 15 50  1  0  0  0
 15 51  1  0  0  0
 16 17  2  0  0  0
 18 19  1  0  0  0
 19 38  1  0  0  0
 19 20  2  0  0  0
 20 21  1  0  0  0
 21 22  2  0  0  0
 21 29  1  0  0  0
 22 28  1  0  0  0
 22 23  1  0  0  0
 23 24  2  0  0  0
 23 52  1  0  0  0
 24 25  1  0  0  0
 24 53  1  0  0  0
 25 26  2  0  0  0
 25 27  1  0  0  0
 27 28  2  0  0  0
 27 54  1  0  0  0
 28 55  1  0  0  0
 29 30  2  0  0  0
 29 37  1  0  0  0
 30 36  1  0  0  0
 30 31  1  0  0  0
 31 32  2  0  0  0
 31 56  1  0  0  0
 32 33  1  0  0  0
 32 57  1  0  0  0
 33 34  2  0  0  0
 33 35  1  0  0  0
 35 36  2  0  0  0
 35 58  1  0  0  0
 36 59  1  0  0  0
 37 38  1  0  0  0
 37 60  1  0  0  0
M  CHG  1  38  -1
M  END
> <i_i_glide_confnum>
232

> <i_i_glide_lignum>
4659

> <i_i_glide_posenum>
207

> <i_i_glide_rotatable_bonds>
5

> <i_m_Source_File_Index>
4727

> <b_m_subgroup_collapsed>
0

> <r_i_docking_score>
-7.06717

> <r_i_glide_ecoul>
-7.09574

> <r_i_glide_eff_state_penalty>
0

> <r_i_glide_einternal>
15.9663

> <r_i_glide_emodel>
-69.6267

> <r_i_glide_energy>
-54.5818

> <r_i_glide_erotb>
0.391544

> <r_i_glide_esite>
-0.0495464

> <r_i_glide_evdw>
-47.486

> <r_i_glide_gscore>
-7.06717

> <r_i_glide_hbond>
-0.687618

> <r_i_glide_ligand_efficiency>
-0.191005

> <r_i_glide_ligand_efficiency_ln>
-1.5327

> <r_i_glide_ligand_efficiency_sa>
-0.63647

> <r_i_glide_lipo>
-2.04286

> <r_i_glide_metal>
0

> <r_i_glide_rewards>
-1.24002

> <s_i_glide_gridfile>
wee1_glide-grid

> <s_m_Source_File>
wee1_decoys_glide_SP.sdf

> <s_m_Source_Path>
/Users/zhangxujun/Desktop

> <s_m_entry_id>
5002

> <s_m_entry_name>
wee1_decoys_glide_SP.4727

> <s_m_subgroup_title>
wee1_decoys_glide_SP

> <s_m_subgroupid>
wee1_decoys_glide_SP


$$$$
