@<TRIPOS>MOLECULE
ZINC00648228_3147
59   62    1
SMALL
USER_CHARGES


@<TRIPOS>ATOM
      1 C1         -2.3173   44.7554   17.3496 C.3       1 UNK         0.0000 
      2 C2         -1.2791   44.2594   16.3404 C.2       1 UNK         0.0000 
      3 O3         -1.5402   43.2475   15.6889 O.2       1 UNK         0.0000 
      4 C4         -0.0197   45.0548   16.1771 C.ar      1 UNK         0.0000 
      5 C5          0.8681   44.7438   15.1378 C.ar      1 UNK         0.0000 
      6 C6          2.0458   45.4699   14.9699 C.ar      1 UNK         0.0000 
      7 C7          2.3701   46.5021   15.8484 C.ar      1 UNK         0.0000 
      8 C8          1.5157   46.8155   16.9087 C.ar      1 UNK         0.0000 
      9 C9          0.3136   46.0986   17.0522 C.ar      1 UNK         0.0000 
     10 N10         1.9031   47.8695   17.7589 N.am      1 UNK         0.0000 
     11 C11         1.5433   48.0388   19.0514 C.2       1 UNK         0.0000 
     12 O12         0.8812   47.2116   19.6812 O.2       1 UNK         0.0000 
     13 C13         2.0238   49.3187   19.7509 C.3       1 UNK         0.0000 
     14 S14         1.2573   49.5774   21.3963 S.3       1 UNK         0.0000 
     15 C15         1.9865   51.0984   21.9230 C.ar      1 UNK         0.0000 
     16 N16         2.9350   51.7332   21.2753 N.2       1 UNK         0.0000 
     17 N17         3.2161   52.8952   21.9776 N.2       1 UNK         0.0000 
     18 C18         2.4300   52.9179   23.0269 C.ar      1 UNK         0.0000 
     19 N19         1.5991   51.8106   23.0461 N.pl3     1 UNK         0.0000 
     20 C20         0.6419   51.4561   24.0276 C.ar      1 UNK         0.0000 
     21 C21        -0.3608   52.3660   24.3861 C.ar      1 UNK         0.0000 
     22 C22        -1.2792   52.0265   25.3777 C.ar      1 UNK         0.0000 
     23 C23        -1.1952   50.7847   26.0053 C.ar      1 UNK         0.0000 
     24 C24        -0.2122   49.8697   25.6412 C.ar      1 UNK         0.0000 
     25 C25         0.7044   50.2022   24.6474 C.ar      1 UNK         0.0000 
     26 C26         2.4163   54.0482   24.0434 C.3       1 UNK         0.0000 
     27 N27         3.7550   54.4960   24.4284 N.pl3     1 UNK         0.0000 
     28 C28         4.3758   54.1783   25.6489 C.ar      1 UNK         0.0000 
     29 C29         5.7522   54.4034   25.7435 C.ar      1 UNK         0.0000 
     30 C30         6.4316   54.1563   26.9341 C.ar      1 UNK         0.0000 
     31 C31         5.7337   53.6964   28.0498 C.ar      1 UNK         0.0000 
     32 C32         4.3541   53.4673   27.9817 C.ar      1 UNK         0.0000 
     33 C33         3.6842   53.7019   26.7734 C.ar      1 UNK         0.0000 
     34 C34         3.5896   52.9758   29.2122 C.3       1 UNK         0.0000 
     35 F35         4.3049   52.0952   29.9096 F         1 UNK         0.0000 
     36 F36         3.3253   54.0181   29.9991 F         1 UNK         0.0000 
     37 F37         2.4316   52.3963   28.8872 F         1 UNK         0.0000 
     38 H38        -1.9191   44.6979   18.3620 H         1 UNK         0.0000 
     39 H39        -3.2311   44.1660   17.2893 H         1 UNK         0.0000 
     40 H40        -2.5692   45.7954   17.1445 H         1 UNK         0.0000 
     41 H41         0.6464   43.9436   14.4425 H         1 UNK         0.0000 
     42 H42         2.7045   45.2273   14.1538 H         1 UNK         0.0000 
     43 H43         3.2885   47.0544   15.7066 H         1 UNK         0.0000 
     44 H44        -0.3672   46.3678   17.8440 H         1 UNK         0.0000 
     45 H45         2.6068   48.4982   17.3694 H         1 UNK         0.0000 
     46 H46         3.1046   49.2759   19.8622 H         1 UNK         0.0000 
     47 H47         1.7942   50.1773   19.1196 H         1 UNK         0.0000 
     48 H48        -0.4301   53.3326   23.9062 H         1 UNK         0.0000 
     49 H49        -2.0499   52.7284   25.6656 H         1 UNK         0.0000 
     50 H50        -1.8981   50.5200   26.7816 H         1 UNK         0.0000 
     51 H51        -0.1597   48.9101   26.1364 H         1 UNK         0.0000 
     52 H52         1.4744   49.4865   24.3809 H         1 UNK         0.0000 
     53 H53         1.9280   54.8966   23.5656 H         1 UNK         0.0000 
     54 H54         1.7967   53.8236   24.9061 H         1 UNK         0.0000 
     55 H55         4.3790   54.6399   23.6472 H         1 UNK         0.0000 
     56 H56         6.3056   54.7695   24.8894 H         1 UNK         0.0000 
     57 H57         7.4984   54.3213   27.0020 H         1 UNK         0.0000 
     58 H58         6.2780   53.5191   28.9622 H         1 UNK         0.0000 
     59 H59         2.6215   53.5355   26.7376 H         1 UNK         0.0000 
@<TRIPOS>BOND
     1    1    2 1    
     2    1   38 1    
     3    1   39 1    
     4    1   40 1    
     5    2    3 2    
     6    2    4 1    
     7    4    9 ar   
     8    4    5 ar   
     9    5    6 ar   
    10    5   41 1    
    11    6    7 ar   
    12    6   42 1    
    13    7    8 ar   
    14    7   43 1    
    15    8    9 ar   
    16    8   10 1    
    17    9   44 1    
    18   10   11 am   BACKBONE|DICT|INTERRES
    19   10   45 1    
    20   11   12 2    
    21   11   13 1    
    22   13   14 1    
    23   13   46 1    
    24   13   47 1    
    25   14   15 1    
    26   15   19 ar   
    27   15   16 ar   
    28   16   17 ar   
    29   17   18 ar   
    30   18   19 ar   
    31   18   26 1    
    32   19   20 1    
    33   20   25 ar   
    34   20   21 ar   
    35   21   22 ar   
    36   21   48 1    
    37   22   23 ar   
    38   22   49 1    
    39   23   24 ar   
    40   23   50 1    
    41   24   25 ar   
    42   24   51 1    
    43   25   52 1    
    44   26   27 1    
    45   26   53 1    
    46   26   54 1    
    47   27   28 1    
    48   27   55 1    
    49   28   33 ar   
    50   28   29 ar   
    51   29   30 ar   
    52   29   56 1    
    53   30   31 ar   
    54   30   57 1    
    55   31   32 ar   
    56   31   58 1    
    57   32   33 ar   
    58   32   34 1    
    59   33   59 1    
    60   34   35 1    
    61   34   36 1    
    62   34   37 1    
@<TRIPOS>SUBSTRUCTURE
     1 UNK         1 GROUP             0       ****    0 ROOT    
