ZINC09113314_2818
                    3D
 Schrodinger Suite 2024-2.
 54 57  0  0  1  0            999 V2000
    3.1768   53.9923   28.2544 C   0  0  0  0  0  0
    2.7077   53.6991   26.9754 C   0  0  0  0  0  0
    3.5697   53.7887   25.8846 C   0  0  0  0  0  0
    4.9038   54.1697   26.0777 C   0  0  0  0  0  0
    5.3638   54.4614   27.3665 C   0  0  0  0  0  0
    4.5013   54.3718   28.4550 C   0  0  0  0  0  0
    5.8983   54.2714   24.9242 C   0  0  0  0  0  0
    5.2977   54.0961   23.6372 O   0  0  0  0  0  0
    5.9675   54.4999   22.5223 C   0  0  0  0  0  0
    7.1044   54.9713   22.5666 O   0  0  0  0  0  0
    5.2116   54.3748   21.3447 N   0  0  0  0  0  0
    3.8634   53.7737   21.3598 C   0  0  0  0  0  0
    3.5099   53.2868   19.9557 C   0  0  0  0  0  0
    4.2590   53.4314   18.8380 C   0  0  0  0  0  0
    5.6069   54.1534   18.9292 C   0  0  2  0  0  0
    6.3396   53.3614   19.1016 H   0  0  0  0  0  0
    5.6844   55.1005   20.1473 C   0  0  0  0  0  0
    5.9612   54.8339   17.5721 C   0  0  1  0  0  0
    7.0055   55.1432   17.6645 H   0  0  0  0  0  0
    5.9136   53.7978   16.3999 C   0  0  0  0  0  0
    4.5813   53.0209   16.4189 C   0  0  0  0  0  0
    3.8333   52.8867   17.5432 C   0  0  0  0  0  0
    2.5915   52.1738   17.4613 C   0  0  0  0  0  0
    1.5628   51.6462   17.3880 N   0  0  0  0  0  0
    4.2335   52.4234   15.2253 N   0  0  0  0  0  0
    6.1150   54.4806   15.1036 C   0  0  0  0  0  0
    6.2729   55.0122   14.0873 N   0  0  0  0  0  0
    7.0243   52.8396   16.5508 C   0  0  0  0  0  0
    7.9039   52.0967   16.6687 N   0  0  0  0  0  0
    5.1983   56.1428   17.2611 C   0  0  0  0  0  0
    5.9165   57.3276   17.0459 C   0  0  0  0  0  0
    5.2602   58.4965   16.6585 C   0  0  0  0  0  0
    3.8779   58.4966   16.4818 C   0  0  0  0  0  0
    3.1503   57.3324   16.7015 C   0  0  0  0  0  0
    3.8059   56.1713   17.0990 C   0  0  0  0  0  0
    1.4384   57.3136   16.4811 Cl  0  0  0  0  0  0
    2.5045   53.9243   29.0965 H   0  0  0  0  0  0
    1.6795   53.4010   26.8303 H   0  0  0  0  0  0
    3.1972   53.5537   24.8978 H   0  0  0  0  0  0
    6.3896   54.7555   27.5349 H   0  0  0  0  0  0
    4.8611   54.6015   29.4481 H   0  0  0  0  0  0
    6.6779   53.5221   25.0609 H   0  0  0  0  0  0
    6.3736   55.2513   24.9858 H   0  0  0  0  0  0
    3.1218   54.5007   21.6942 H   0  0  0  0  0  0
    3.8092   52.9297   22.0488 H   0  0  0  0  0  0
    2.5610   52.7761   19.8713 H   0  0  0  0  0  0
    6.7235   55.4168   20.2448 H   0  0  0  0  0  0
    5.1054   56.0127   20.0150 H   0  0  0  0  0  0
    4.8130   52.5048   14.4017 H   0  0  0  0  0  0
    3.4707   51.7600   15.1910 H   0  0  0  0  0  0
    6.9915   57.3466   17.1503 H   0  0  0  0  0  0
    5.8178   59.4071   16.4846 H   0  0  0  0  0  0
    3.3772   59.4061   16.1805 H   0  0  0  0  0  0
    3.1982   55.2985   17.2507 H   0  0  0  0  0  0
  1  6  2  0  0  0
  1  2  1  0  0  0
  1 37  1  0  0  0
  2  3  2  0  0  0
  2 38  1  0  0  0
  3  4  1  0  0  0
  3 39  1  0  0  0
  4  5  2  0  0  0
  4  7  1  0  0  0
  5  6  1  0  0  0
  5 40  1  0  0  0
  6 41  1  0  0  0
  7  8  1  0  0  0
  7 42  1  0  0  0
  7 43  1  0  0  0
  8  9  1  0  0  0
  9 10  2  0  0  0
  9 11  1  0  0  0
 11 17  1  0  0  0
 11 12  1  0  0  0
 12 13  1  0  0  0
 12 44  1  0  0  0
 12 45  1  0  0  0
 13 14  2  0  0  0
 13 46  1  0  0  0
 14 22  1  0  0  0
 14 15  1  0  0  0
 15 16  1  0  0  0
 15 17  1  0  0  0
 15 18  1  0  0  0
 17 47  1  0  0  0
 17 48  1  0  0  0
 18 19  1  0  0  0
 18 20  1  0  0  0
 18 30  1  0  0  0
 20 21  1  0  0  0
 20 26  1  0  0  0
 20 28  1  0  0  0
 21 22  2  0  0  0
 21 25  1  0  0  0
 22 23  1  0  0  0
 23 24  3  0  0  0
 25 49  1  0  0  0
 25 50  1  0  0  0
 26 27  3  0  0  0
 28 29  3  0  0  0
 30 35  2  0  0  0
 30 31  1  0  0  0
 31 32  2  0  0  0
 31 51  1  0  0  0
 32 33  1  0  0  0
 32 52  1  0  0  0
 33 34  2  0  0  0
 33 53  1  0  0  0
 34 35  1  0  0  0
 34 36  1  0  0  0
 35 54  1  0  0  0
M  END
> <i_i_glide_confnum>
7

> <i_i_glide_lignum>
2819

> <i_i_glide_posenum>
173

> <i_i_glide_rotatable_bonds>
8

> <i_m_Source_File_Index>
1617

> <b_m_subgroup_collapsed>
0

> <r_i_docking_score>
-4.52046

> <r_i_glide_ecoul>
-0.468904

> <r_i_glide_eff_state_penalty>
0

> <r_i_glide_einternal>
5.78382

> <r_i_glide_emodel>
-47.9599

> <r_i_glide_energy>
-39.3081

> <r_i_glide_erotb>
0.365919

> <r_i_glide_esite>
-0.130791

> <r_i_glide_evdw>
-38.8392

> <r_i_glide_gscore>
-4.52046

> <r_i_glide_hbond>
0

> <r_i_glide_ligand_efficiency>
-0.132955

> <r_i_glide_ligand_efficiency_ln>
-0.998697

> <r_i_glide_ligand_efficiency_sa>
-0.430722

> <r_i_glide_lipo>
-2.01731

> <r_i_glide_metal>
0

> <r_i_glide_rewards>
-0.725987

> <s_i_glide_gridfile>
wee1_glide-grid

> <s_m_Source_File>
wee1_decoys_glide_SP.sdf

> <s_m_Source_Path>
/Users/zhangxujun/Desktop

> <s_m_entry_id>
1892

> <s_m_entry_name>
wee1_decoys_glide_SP.1617

> <s_m_subgroup_title>
wee1_decoys_glide_SP

> <s_m_subgroupid>
wee1_decoys_glide_SP


$$$$
