ZINC21225253_3930
                    3D
 Schrodinger Suite 2024-2.
 59 63  0  0  1  0            999 V2000
    0.0585   51.6222   27.5895 C   0  0  0  0  0  0
    1.1220   52.6287   27.6703 N   0  0  0  0  0  0
    1.8315   52.7004   28.9479 C   0  0  0  0  0  0
    1.7630   53.0682   26.4762 C   0  0  0  0  0  0
    3.0173   53.6976   26.5059 C   0  0  0  0  0  0
    3.6577   54.0897   25.3329 C   0  0  0  0  0  0
    3.0693   53.8628   24.0813 C   0  0  0  0  0  0
    1.7900   53.2955   24.0510 C   0  0  0  0  0  0
    1.1558   52.8934   25.2237 C   0  0  0  0  0  0
    3.7926   54.2276   22.7623 C   0  0  2  0  0  0
    3.3135   55.1510   22.4313 H   0  0  0  0  0  0
    3.6166   53.1490   21.6612 C   0  0  0  0  0  0
    4.4134   53.4899   20.3996 C   0  0  0  0  0  0
    5.5011   54.3065   20.3845 C   0  0  0  0  0  0
    6.3735   54.5825   19.1427 C   0  0  1  0  0  0
    7.3959   54.4225   19.4828 H   0  0  0  0  0  0
    6.3184   53.5999   18.0568 N   0  0  0  0  0  0
    5.1419   53.4659   17.3018 C   0  0  0  0  0  0
    5.1763   53.6175   15.9107 C   0  0  0  0  0  0
    4.0146   53.5756   15.1451 C   0  0  0  0  0  0
    2.7895   53.3720   15.7669 C   0  0  0  0  0  0
    2.7397   53.1858   17.1454 C   0  0  0  0  0  0
    3.8986   53.2050   17.9303 C   0  0  0  0  0  0
    3.8220   52.9052   19.2997 N   0  0  0  0  0  0
    6.2968   56.0146   18.5829 C   0  0  0  0  0  0
    5.1073   56.4807   18.0016 C   0  0  0  0  0  0
    5.0717   57.7002   17.3311 C   0  0  0  0  0  0
    6.2117   58.4964   17.2816 C   0  0  0  0  0  0
    7.3799   58.0830   17.9171 C   0  0  0  0  0  0
    7.4276   56.8510   18.5679 C   0  0  0  0  0  0
    8.6003   56.4951   19.1825 O   0  0  0  0  0  0
    6.0235   54.8933   21.6418 C   0  0  0  0  0  0
    7.0523   55.5698   21.6820 O   0  0  0  0  0  0
    5.3053   54.5104   22.9476 C   0  0  0  0  0  0
    0.4348   50.7091   27.1250 H   0  0  0  0  0  0
   -0.7813   51.9746   26.9902 H   0  0  0  0  0  0
   -0.3303   51.3504   28.5720 H   0  0  0  0  0  0
    2.6889   52.0263   28.9398 H   0  0  0  0  0  0
    2.2025   53.7082   29.1370 H   0  0  0  0  0  0
    1.1900   52.4228   29.7860 H   0  0  0  0  0  0
    3.5354   53.8736   27.4347 H   0  0  0  0  0  0
    4.6302   54.5447   25.4270 H   0  0  0  0  0  0
    1.2706   53.1393   23.1192 H   0  0  0  0  0  0
    0.1812   52.4425   25.1339 H   0  0  0  0  0  0
    3.9282   52.1550   21.9863 H   0  0  0  0  0  0
    2.5522   53.1276   21.4237 H   0  0  0  0  0  0
    7.1252   53.6836   17.4559 H   0  0  0  0  0  0
    6.1192   53.8007   15.4164 H   0  0  0  0  0  0
    4.0652   53.7086   14.0741 H   0  0  0  0  0  0
    1.8828   53.3388   15.1805 H   0  0  0  0  0  0
    1.7830   52.9961   17.6093 H   0  0  0  0  0  0
    3.0222   52.3298   19.5162 H   0  0  0  0  0  0
    4.2102   55.8815   18.0293 H   0  0  0  0  0  0
    4.1588   58.0371   16.8612 H   0  0  0  0  0  0
    6.1801   59.4468   16.7684 H   0  0  0  0  0  0
    8.2525   58.7186   17.8954 H   0  0  0  0  0  0
    8.4800   55.8281   19.8625 H   0  0  0  0  0  0
    5.5071   55.2968   23.6698 H   0  0  0  0  0  0
    5.7886   53.6075   23.3209 H   0  0  0  0  0  0
  1  2  1  0  0  0
  1 35  1  0  0  0
  1 36  1  0  0  0
  1 37  1  0  0  0
  2  3  1  0  0  0
  2  4  1  0  0  0
  3 38  1  0  0  0
  3 39  1  0  0  0
  3 40  1  0  0  0
  4  9  2  0  0  0
  4  5  1  0  0  0
  5  6  2  0  0  0
  5 41  1  0  0  0
  6  7  1  0  0  0
  6 42  1  0  0  0
  7  8  2  0  0  0
  7 10  1  0  0  0
  8  9  1  0  0  0
  8 43  1  0  0  0
  9 44  1  0  0  0
 10 11  1  0  0  0
 10 34  1  0  0  0
 10 12  1  0  0  0
 12 13  1  0  0  0
 12 45  1  0  0  0
 12 46  1  0  0  0
 13 24  1  0  0  0
 13 14  2  0  0  0
 14 15  1  0  0  0
 14 32  1  0  0  0
 15 16  1  0  0  0
 15 17  1  0  0  0
 15 25  1  0  0  0
 17 18  1  0  0  0
 17 47  1  0  0  0
 18 23  2  0  0  0
 18 19  1  0  0  0
 19 20  2  0  0  0
 19 48  1  0  0  0
 20 21  1  0  0  0
 20 49  1  0  0  0
 21 22  2  0  0  0
 21 50  1  0  0  0
 22 23  1  0  0  0
 22 51  1  0  0  0
 23 24  1  0  0  0
 24 52  1  0  0  0
 25 30  2  0  0  0
 25 26  1  0  0  0
 26 27  2  0  0  0
 26 53  1  0  0  0
 27 28  1  0  0  0
 27 54  1  0  0  0
 28 29  2  0  0  0
 28 55  1  0  0  0
 29 30  1  0  0  0
 29 56  1  0  0  0
 30 31  1  0  0  0
 31 57  1  0  0  0
 32 33  2  0  0  0
 32 34  1  0  0  0
 34 58  1  0  0  0
 34 59  1  0  0  0
M  END
> <i_i_glide_confnum>
20

> <i_i_glide_lignum>
3931

> <i_i_glide_posenum>
353

> <i_i_glide_rotatable_bonds>
4

> <i_m_Source_File_Index>
304

> <b_m_subgroup_collapsed>
0

> <r_i_docking_score>
-4.82932

> <r_i_glide_ecoul>
-1.00031

> <r_i_glide_eff_state_penalty>
0

> <r_i_glide_einternal>
1.68135

> <r_i_glide_emodel>
-48.6292

> <r_i_glide_energy>
-37.0231

> <r_i_glide_erotb>
0.21912

> <r_i_glide_esite>
-0.0807618

> <r_i_glide_evdw>
-36.0227

> <r_i_glide_gscore>
-4.82932

> <r_i_glide_hbond>
0

> <r_i_glide_ligand_efficiency>
-0.150916

> <r_i_glide_ligand_efficiency_ln>
-1.08142

> <r_i_glide_ligand_efficiency_sa>
-0.47913

> <r_i_glide_lipo>
-2.01254

> <r_i_glide_metal>
0

> <r_i_glide_rewards>
-1.00396

> <s_i_glide_gridfile>
wee1_glide-grid

> <s_m_Source_File>
wee1_decoys_glide_SP.sdf

> <s_m_Source_Path>
/Users/zhangxujun/Desktop

> <s_m_entry_id>
579

> <s_m_entry_name>
wee1_decoys_glide_SP.304

> <s_m_subgroup_title>
wee1_decoys_glide_SP

> <s_m_subgroupid>
wee1_decoys_glide_SP


$$$$
