@<TRIPOS>MOLECULE
ZINC26786641_4232
50   53    1
SMALL
USER_CHARGES


@<TRIPOS>ATOM
      1 C1          7.3867   55.1462   16.3961 C.ar      1 UNK         0.0000 
      2 C2          6.3461   55.9802   16.7952 C.ar      1 UNK         0.0000 
      3 C3          6.1857   56.2875   18.1436 C.ar      1 UNK         0.0000 
      4 C4          7.0606   55.7566   19.1021 C.ar      1 UNK         0.0000 
      5 C5          8.1145   54.9279   18.6812 C.ar      1 UNK         0.0000 
      6 C6          8.2730   54.6214   17.3326 C.ar      1 UNK         0.0000 
      7 C7          6.8565   56.0961   20.5595 C.2       1 UNK         0.0000 
      8 O8          6.3045   57.1459   20.8817 O.2       1 UNK         0.0000 
      9 N9          7.2749   55.1677   21.4393 N.am      1 UNK         0.0000 
     10 N10         7.1044   55.2728   22.8340 N.pl3     1 UNK         0.0000 
     11 C11         5.9846   54.7553   23.5247 C.2       1 UNK         0.0000 
     12 C12         4.8672   54.2506   22.9481 C.2       1 UNK         0.0000 
     13 C13         3.6913   53.7587   23.6262 C.2       1 UNK         0.0000 
     14 N14         2.7960   53.2781   22.8478 N.2       1 UNK         0.0000 
     15 S15         1.3825   52.3293   23.3122 S.o2      1 UNK         0.0000 
     16 O16         1.5044   51.2942   24.3389 O.2       1 UNK         0.0000 
     17 O17         0.0852   53.0080   23.2819 O.2       1 UNK         0.0000 
     18 C18         1.3753   51.3519   21.8048 C.ar      1 UNK         0.0000 
     19 C19         0.7912   51.8671   20.6447 C.ar      1 UNK         0.0000 
     20 C20         0.7367   51.0865   19.4925 C.ar      1 UNK         0.0000 
     21 C21         1.2732   49.8000   19.5020 C.ar      1 UNK         0.0000 
     22 C22         1.8928   49.2972   20.6435 C.ar      1 UNK         0.0000 
     23 C23         1.9435   50.0722   21.7977 C.ar      1 UNK         0.0000 
     24 Br24        1.1343   48.7061   17.9520 Br        1 UNK         0.0000 
     25 C25         3.7603   53.9020   25.1047 C.2       1 UNK         0.0000 
     26 C26         4.8988   54.3622   25.7369 C.2       1 UNK         0.0000 
     27 C27         6.1101   54.8332   25.0002 C.2       1 UNK         0.0000 
     28 O28         7.1044   55.2756   25.5785 O.2       1 UNK         0.0000 
     29 C29         5.0431   54.4631   27.2734 C.3       1 UNK         0.0000 
     30 C30         3.7003   54.4963   27.9652 C.2       1 UNK         0.0000 
     31 C31         2.5675   54.1117   27.3731 C.2       1 UNK         0.0000 
     32 C32         2.5068   53.5844   25.9542 C.3       1 UNK         0.0000 
     33 H33         7.5099   54.9074   15.3497 H         1 UNK         0.0000 
     34 H34         5.6646   56.3873   16.0627 H         1 UNK         0.0000 
     35 H35         5.3708   56.9363   18.4368 H         1 UNK         0.0000 
     36 H36         8.8282   54.5181   19.3805 H         1 UNK         0.0000 
     37 H37         9.0817   53.9800   17.0136 H         1 UNK         0.0000 
     38 H38         7.7943   54.3538   21.1470 H         1 UNK         0.0000 
     39 H39         8.0280   55.3489   23.2818 H         1 UNK         0.0000 
     40 H40         4.8544   54.2417   21.8669 H         1 UNK         0.0000 
     41 H41         0.3754   52.8649   20.6405 H         1 UNK         0.0000 
     42 H42         0.2732   51.4732   18.5969 H         1 UNK         0.0000 
     43 H43         2.3231   48.3064   20.6363 H         1 UNK         0.0000 
     44 H44         2.4095   49.6670   22.6851 H         1 UNK         0.0000 
     45 H45         5.5983   53.5954   27.6335 H         1 UNK         0.0000 
     46 H46         5.6043   55.3457   27.5790 H         1 UNK         0.0000 
     47 H47         3.6473   54.8566   28.9824 H         1 UNK         0.0000 
     48 H48         1.6505   54.1742   27.9423 H         1 UNK         0.0000 
     49 H49         1.6093   53.9928   25.4886 H         1 UNK         0.0000 
     50 H50         2.4056   52.5100   26.0701 H         1 UNK         0.0000 
@<TRIPOS>BOND
     1    1    6 ar   
     2    1    2 ar   
     3    1   33 1    
     4    2    3 ar   
     5    2   34 1    
     6    3    4 ar   
     7    3   35 1    
     8    4    5 ar   
     9    4    7 1    
    10    5    6 ar   
    11    5   36 1    
    12    6   37 1    
    13    7    8 2    
    14    7    9 am   BACKBONE|DICT|INTERRES
    15    9   10 1    
    16    9   38 1    
    17   10   11 1    
    18   10   39 1    
    19   11   27 1    
    20   11   12 2    
    21   12   13 1    
    22   12   40 1    
    23   13   14 2    
    24   13   25 1    
    25   14   15 1    
    26   15   16 2    
    27   15   17 2    
    28   15   18 1    
    29   18   23 ar   
    30   18   19 ar   
    31   19   20 ar   
    32   19   41 1    
    33   20   21 ar   
    34   20   42 1    
    35   21   22 ar   
    36   21   24 1    
    37   22   23 ar   
    38   22   43 1    
    39   23   44 1    
    40   25   32 1    
    41   25   26 2    
    42   26   27 1    
    43   26   29 1    
    44   27   28 2    
    45   29   30 1    
    46   29   45 1    
    47   29   46 1    
    48   30   31 2    
    49   30   47 1    
    50   31   32 1    
    51   31   48 1    
    52   32   49 1    
    53   32   50 1    
@<TRIPOS>SUBSTRUCTURE
     1 UNK         1 GROUP             0       ****    0 ROOT    
