ZINC37593614_2122
                    3D
 Schrodinger Suite 2024-2.
 64 67  0  0  1  0            999 V2000
    6.0145   54.8861   23.0414 C   0  0  0  0  0  0
    5.0144   53.7365   22.8116 C   0  0  2  0  0  0
    5.4098   52.8967   23.3791 H   0  0  0  0  0  0
    4.9022   53.3955   21.3193 C   0  0  0  0  0  0
    4.1578   52.0657   21.0751 C   0  0  0  0  0  0
    2.8995   51.9552   21.9640 C   0  0  0  0  0  0
    2.6690   52.8965   22.9872 C   0  0  0  0  0  0
    1.1793   52.6100   23.8183 S   0  0  0  0  0  0
    0.8915   51.1548   22.8976 C   0  0  0  0  0  0
    1.8780   50.9471   21.9087 C   0  0  0  0  0  0
    1.8198   49.7930   21.0048 C   0  0  0  0  0  0
    0.9807   48.8975   21.1388 O   0  0  0  0  0  0
    2.6905   49.7860   19.9955 N   0  0  0  0  0  0
    2.6563   48.8425   18.8965 C   0  0  0  0  0  0
   -0.2593   50.3697   23.0522 N   0  0  0  0  0  0
   -1.0595   50.1423   24.1098 C   0  0  0  0  0  0
   -2.0960   49.4950   23.9766 O   0  0  0  0  0  0
   -0.6748   50.6589   25.4589 C   0  0  0  0  0  0
    0.4817   50.2070   26.0967 C   0  0  0  0  0  0
    0.9063   50.8172   27.2771 C   0  0  0  0  0  0
    0.1798   51.8647   27.8251 C   0  0  0  0  0  0
   -1.0436   52.1966   27.2483 C   0  0  0  0  0  0
   -1.4754   51.6126   26.0699 C   0  0  0  0  0  0
    0.7975   52.7216   29.2841 S   0  0  0  0  0  0
   -0.0992   53.8457   29.5604 O   0  0  0  0  0  0
    1.0084   51.6971   30.2990 O   0  0  0  0  0  0
    2.4175   53.3574   28.9018 N   0  0  0  0  0  0
    3.4807   52.3204   28.9599 C   0  0  0  0  0  0
    4.8795   52.9029   28.8116 C   0  0  0  0  0  0
    5.0063   53.6850   27.5063 C   0  0  0  0  0  0
    3.9991   54.8280   27.5477 C   0  0  0  0  0  0
    2.5407   54.3761   27.8116 C   0  0  2  0  0  0
    2.1928   53.9101   26.8883 H   0  0  0  0  0  0
    1.7238   55.6207   28.1941 C   0  0  0  0  0  0
    3.5947   54.0647   23.3383 C   0  0  0  0  0  0
    5.9045   55.6883   22.3091 H   0  0  0  0  0  0
    5.9227   55.3068   24.0440 H   0  0  0  0  0  0
    7.0399   54.5231   22.9420 H   0  0  0  0  0  0
    5.9040   53.3116   20.8941 H   0  0  0  0  0  0
    4.4556   54.2271   20.7704 H   0  0  0  0  0  0
    3.9117   52.0336   20.0129 H   0  0  0  0  0  0
    4.8289   51.2303   21.2754 H   0  0  0  0  0  0
    3.3879   50.5123   19.9294 H   0  0  0  0  0  0
    2.6975   49.4821   18.0343 H   0  0  0  0  0  0
    3.5079   48.1701   18.8813 H   0  0  0  0  0  0
    1.7404   48.2535   18.8347 H   0  0  0  0  0  0
   -0.4235   49.7482   22.2712 H   0  0  0  0  0  0
    1.0742   49.4124   25.6638 H   0  0  0  0  0  0
    1.8040   50.4605   27.7500 H   0  0  0  0  0  0
   -1.6953   52.9007   27.6817 H   0  0  0  0  0  0
   -2.4079   51.9299   25.6251 H   0  0  0  0  0  0
    3.4272   51.7710   29.9006 H   0  0  0  0  0  0
    3.3831   51.6968   28.0817 H   0  0  0  0  0  0
    5.1029   53.5271   29.6812 H   0  0  0  0  0  0
    5.5920   52.0924   28.8026 H   0  0  0  0  0  0
    6.0198   54.0753   27.3986 H   0  0  0  0  0  0
    4.8246   53.0385   26.6474 H   0  0  0  0  0  0
    4.3264   55.4634   28.3665 H   0  0  0  0  0  0
    4.0705   55.3468   26.5924 H   0  0  0  0  0  0
    2.1009   56.4967   27.6833 H   0  0  0  0  0  0
    0.6798   55.5154   27.9192 H   0  0  0  0  0  0
    1.7763   55.8409   29.2610 H   0  0  0  0  0  0
    3.6148   54.2423   24.4130 H   0  0  0  0  0  0
    3.2161   54.9738   22.8721 H   0  0  0  0  0  0
  1  2  1  0  0  0
  1 36  1  0  0  0
  1 37  1  0  0  0
  1 38  1  0  0  0
  2  3  1  0  0  0
  2 35  1  0  0  0
  2  4  1  0  0  0
  4  5  1  0  0  0
  4 39  1  0  0  0
  4 40  1  0  0  0
  5  6  1  0  0  0
  5 41  1  0  0  0
  5 42  1  0  0  0
  6 10  1  0  0  0
  6  7  2  0  0  0
  7  8  1  0  0  0
  7 35  1  0  0  0
  8  9  1  0  0  0
  9 10  2  0  0  0
  9 15  1  0  0  0
 10 11  1  0  0  0
 11 12  2  0  0  0
 11 13  1  0  0  0
 13 14  1  0  0  0
 13 43  1  0  0  0
 14 44  1  0  0  0
 14 45  1  0  0  0
 14 46  1  0  0  0
 15 16  1  0  0  0
 15 47  1  0  0  0
 16 17  2  0  0  0
 16 18  1  0  0  0
 18 23  2  0  0  0
 18 19  1  0  0  0
 19 20  2  0  0  0
 19 48  1  0  0  0
 20 21  1  0  0  0
 20 49  1  0  0  0
 21 22  2  0  0  0
 21 24  1  0  0  0
 22 23  1  0  0  0
 22 50  1  0  0  0
 23 51  1  0  0  0
 24 25  2  0  0  0
 24 26  2  0  0  0
 24 27  1  0  0  0
 27 32  1  0  0  0
 27 28  1  0  0  0
 28 29  1  0  0  0
 28 52  1  0  0  0
 28 53  1  0  0  0
 29 30  1  0  0  0
 29 54  1  0  0  0
 29 55  1  0  0  0
 30 31  1  0  0  0
 30 56  1  0  0  0
 30 57  1  0  0  0
 31 32  1  0  0  0
 31 58  1  0  0  0
 31 59  1  0  0  0
 32 33  1  0  0  0
 32 34  1  0  0  0
 34 60  1  0  0  0
 34 61  1  0  0  0
 34 62  1  0  0  0
 35 63  1  0  0  0
 35 64  1  0  0  0
M  END
> <i_i_glide_confnum>
255

> <i_i_glide_lignum>
2123

> <i_i_glide_posenum>
127

> <i_i_glide_rotatable_bonds>
7

> <i_m_Source_File_Index>
5257

> <b_m_subgroup_collapsed>
0

> <r_i_docking_score>
-2.11001

> <r_i_glide_ecoul>
-2.14855

> <r_i_glide_eff_state_penalty>
0

> <r_i_glide_einternal>
12.0171

> <r_i_glide_emodel>
-22.2231

> <r_i_glide_energy>
-30.3551

> <r_i_glide_erotb>
0.509135

> <r_i_glide_esite>
-0.0924221

> <r_i_glide_evdw>
-28.2066

> <r_i_glide_gscore>
-2.11001

> <r_i_glide_hbond>
0

> <r_i_glide_ligand_efficiency>
-0.0639397

> <r_i_glide_ligand_efficiency_ln>
-0.469255

> <r_i_glide_ligand_efficiency_sa>
-0.205089

> <r_i_glide_lipo>
-2.54822

> <r_i_glide_metal>
0

> <r_i_glide_rewards>
1.75411

> <s_i_glide_gridfile>
wee1_glide-grid

> <s_m_Source_File>
wee1_decoys_glide_SP.sdf

> <s_m_Source_Path>
/Users/zhangxujun/Desktop

> <s_m_entry_id>
5532

> <s_m_entry_name>
wee1_decoys_glide_SP.5257

> <s_m_subgroup_title>
wee1_decoys_glide_SP

> <s_m_subgroupid>
wee1_decoys_glide_SP


$$$$
