ZINC23328354_3729
                    3D
 Schrodinger Suite 2024-2.
 67 70  0  0  1  0            999 V2000
    6.9216   54.3266   24.3706 C   0  0  0  0  0  0
    6.5024   54.5048   22.9229 C   0  0  0  0  0  0
    7.0994   55.4756   22.1198 C   0  0  0  0  0  0
    6.6882   55.6512   20.8020 C   0  0  0  0  0  0
    5.6811   54.8435   20.2561 C   0  0  0  0  0  0
    5.0939   53.8432   21.0531 C   0  0  0  0  0  0
    5.5040   53.6965   22.3885 C   0  0  0  0  0  0
    4.1358   53.0402   20.4597 O   0  0  0  0  0  0
    3.5262   51.9622   21.1711 C   0  0  0  0  0  0
    2.4499   52.4361   22.1380 C   0  0  0  0  0  0
    2.2157   53.6791   22.4820 N   0  0  0  0  0  0
    1.1071   53.6752   23.3170 N   0  0  0  0  0  0
    0.7650   52.4258   23.5122 C   0  0  0  0  0  0
    1.5672   51.5886   22.7645 N   0  0  0  0  0  0
    1.4917   50.2096   22.6377 N   0  0  0  0  0  0
   -0.6615   51.9466   24.4319 S   0  0  0  0  0  0
    0.1945   51.0030   25.7428 C   0  0  2  0  0  0
    1.1041   50.5877   25.3143 H   0  0  0  0  0  0
   -0.6465   49.7949   26.1938 C   0  0  0  0  0  0
    0.7008   51.9378   26.8645 C   0  0  0  0  0  0
    1.2998   52.9643   26.5418 O   0  0  0  0  0  0
    0.5050   51.6021   28.1582 N   0  0  0  0  0  0
    0.9115   52.4051   29.3316 C   0  0  2  0  0  0
    1.0117   51.6952   30.1521 H   0  0  0  0  0  0
   -0.1833   53.4118   29.7425 C   0  0  0  0  0  0
    0.3088   54.4061   30.8008 C   0  0  0  0  0  0
    1.3914   55.2833   30.1590 C   0  0  0  0  0  0
    2.5125   54.4195   29.5954 C   0  0  0  0  0  0
    2.3058   53.0649   29.2650 C   0  0  0  0  0  0
    3.4114   52.3246   28.8474 C   0  0  0  0  0  0
    4.6647   52.8970   28.6475 C   0  0  0  0  0  0
    4.8444   54.2435   28.9015 C   0  0  0  0  0  0
    3.7723   54.9743   29.3926 C   0  0  0  0  0  0
    5.2217   55.0226   18.7970 C   0  0  0  0  0  0
    5.4884   56.4216   18.1992 C   0  0  0  0  0  0
    5.7950   53.9149   17.8912 C   0  0  0  0  0  0
    7.5033   55.1749   24.7319 H   0  0  0  0  0  0
    6.0431   54.2382   25.0125 H   0  0  0  0  0  0
    7.5050   53.4130   24.4810 H   0  0  0  0  0  0
    7.8956   56.0963   22.5102 H   0  0  0  0  0  0
    7.1747   56.4094   20.2100 H   0  0  0  0  0  0
    5.0556   52.9497   23.0234 H   0  0  0  0  0  0
    4.2742   51.3176   21.6370 H   0  0  0  0  0  0
    3.0616   51.3377   20.4087 H   0  0  0  0  0  0
    1.7432   49.7245   23.4861 H   0  0  0  0  0  0
    0.6157   49.9042   22.2389 H   0  0  0  0  0  0
   -0.0934   49.1555   26.8773 H   0  0  0  0  0  0
   -1.5661   50.1061   26.6908 H   0  0  0  0  0  0
   -0.9230   49.1710   25.3462 H   0  0  0  0  0  0
   -0.0316   50.7661   28.3529 H   0  0  0  0  0  0
   -1.0548   52.8654   30.0944 H   0  0  0  0  0  0
   -0.4962   53.9730   28.8612 H   0  0  0  0  0  0
    0.6990   53.8774   31.6752 H   0  0  0  0  0  0
   -0.4959   55.0335   31.1637 H   0  0  0  0  0  0
    1.7773   56.0047   30.8825 H   0  0  0  0  0  0
    0.9648   55.8714   29.3438 H   0  0  0  0  0  0
    3.2581   51.2966   28.5987 H   0  0  0  0  0  0
    5.4885   52.2977   28.2849 H   0  0  0  0  0  0
    5.8109   54.7063   28.7641 H   0  0  0  0  0  0
    3.9157   56.0064   29.6602 H   0  0  0  0  0  0
    4.1351   54.9208   18.8036 H   0  0  0  0  0  0
    5.1067   57.2112   18.8479 H   0  0  0  0  0  0
    6.5510   56.6009   18.0342 H   0  0  0  0  0  0
    4.9930   56.5331   17.2338 H   0  0  0  0  0  0
    5.5246   52.9211   18.2505 H   0  0  0  0  0  0
    5.4145   53.9984   16.8719 H   0  0  0  0  0  0
    6.8835   53.9603   17.8454 H   0  0  0  0  0  0
  1  2  1  0  0  0
  1 37  1  0  0  0
  1 38  1  0  0  0
  1 39  1  0  0  0
  2  7  2  0  0  0
  2  3  1  0  0  0
  3  4  2  0  0  0
  3 40  1  0  0  0
  4  5  1  0  0  0
  4 41  1  0  0  0
  5  6  2  0  0  0
  5 34  1  0  0  0
  6  7  1  0  0  0
  6  8  1  0  0  0
  7 42  1  0  0  0
  8  9  1  0  0  0
  9 10  1  0  0  0
  9 43  1  0  0  0
  9 44  1  0  0  0
 10 14  1  0  0  0
 10 11  2  0  0  0
 11 12  1  0  0  0
 12 13  2  0  0  0
 13 14  1  0  0  0
 13 16  1  0  0  0
 14 15  1  0  0  0
 15 45  1  0  0  0
 15 46  1  0  0  0
 16 17  1  0  0  0
 17 18  1  0  0  0
 17 19  1  0  0  0
 17 20  1  0  0  0
 19 47  1  0  0  0
 19 48  1  0  0  0
 19 49  1  0  0  0
 20 21  2  0  0  0
 20 22  1  0  0  0
 22 23  1  0  0  0
 22 50  1  0  0  0
 23 24  1  0  0  0
 23 29  1  0  0  0
 23 25  1  0  0  0
 25 26  1  0  0  0
 25 51  1  0  0  0
 25 52  1  0  0  0
 26 27  1  0  0  0
 26 53  1  0  0  0
 26 54  1  0  0  0
 27 28  1  0  0  0
 27 55  1  0  0  0
 27 56  1  0  0  0
 28 33  2  0  0  0
 28 29  1  0  0  0
 29 30  2  0  0  0
 30 31  1  0  0  0
 30 57  1  0  0  0
 31 32  2  0  0  0
 31 58  1  0  0  0
 32 33  1  0  0  0
 32 59  1  0  0  0
 33 60  1  0  0  0
 34 35  1  0  0  0
 34 36  1  0  0  0
 34 61  1  0  0  0
 35 62  1  0  0  0
 35 63  1  0  0  0
 35 64  1  0  0  0
 36 65  1  0  0  0
 36 66  1  0  0  0
 36 67  1  0  0  0
M  END
> <i_i_glide_confnum>
175

> <i_i_glide_lignum>
3730

> <i_i_glide_posenum>
8

> <i_i_glide_rotatable_bonds>
9

> <i_m_Source_File_Index>
684

> <b_m_subgroup_collapsed>
0

> <r_i_docking_score>
-5.81327

> <r_i_glide_ecoul>
-2.25206

> <r_i_glide_eff_state_penalty>
0

> <r_i_glide_einternal>
6.71892

> <r_i_glide_emodel>
-63.5426

> <r_i_glide_energy>
-49.0883

> <r_i_glide_erotb>
0.616869

> <r_i_glide_esite>
0

> <r_i_glide_evdw>
-46.8362

> <r_i_glide_gscore>
-5.81327

> <r_i_glide_hbond>
0

> <r_i_glide_ligand_efficiency>
-0.170979

> <r_i_glide_ligand_efficiency_ln>
-1.28431

> <r_i_glide_ligand_efficiency_sa>
-0.553904

> <r_i_glide_lipo>
-3.09118

> <r_i_glide_metal>
0

> <r_i_glide_rewards>
-0.659337

> <s_i_glide_gridfile>
wee1_glide-grid

> <s_m_Source_File>
wee1_decoys_glide_SP.sdf

> <s_m_Source_Path>
/Users/zhangxujun/Desktop

> <s_m_entry_id>
959

> <s_m_entry_name>
wee1_decoys_glide_SP.684

> <s_m_subgroup_title>
wee1_decoys_glide_SP

> <s_m_subgroupid>
wee1_decoys_glide_SP


$$$$
