@<TRIPOS>MOLECULE
ZINC29414042_690
64   67    1
SMALL
USER_CHARGES


@<TRIPOS>ATOM
      1 C1         -0.6356   49.0260   25.6705 C.3       1 UNK         0.0000 
      2 C2         -0.6884   50.3672   24.9243 C.3       1 UNK         0.0000 
      3 H3         -1.0542   51.1187   25.6255 H         1 UNK         0.0000 
      4 C4         -1.6547   50.3255   23.7184 C.3       1 UNK         0.0000 
      5 C5         -1.6478   51.6512   22.9199 C.3       1 UNK         0.0000 
      6 H6         -2.2014   51.4784   21.9971 H         1 UNK         0.0000 
      7 C7         -0.1871   51.9971   22.5174 C.3       1 UNK         0.0000 
      8 N8          0.6154   52.0836   23.7549 N.am      1 UNK         0.0000 
      9 C9          0.7249   50.7986   24.4717 C.3       1 UNK         0.0000 
     10 C10         1.3372   53.2016   24.0565 C.2       1 UNK         0.0000 
     11 O11         1.4108   54.1585   23.2814 O.2       1 UNK         0.0000 
     12 C12         2.0740   53.3082   25.3872 C.ar      1 UNK         0.0000 
     13 C13         1.3857   52.9997   26.5742 C.ar      1 UNK         0.0000 
     14 C14         1.9911   53.1365   27.8206 C.ar      1 UNK         0.0000 
     15 C15         3.2995   53.5991   27.9076 C.ar      1 UNK         0.0000 
     16 C16         4.0001   53.9262   26.7488 C.ar      1 UNK         0.0000 
     17 C17         3.4069   53.7905   25.4801 C.ar      1 UNK         0.0000 
     18 N18         4.0988   54.0961   24.2852 N.am      1 UNK         0.0000 
     19 C19         5.4106   54.3285   24.0525 C.2       1 UNK         0.0000 
     20 O20         6.2806   54.4300   24.9195 O.2       1 UNK         0.0000 
     21 C21         5.7693   54.5072   22.5931 C.ar      1 UNK         0.0000 
     22 C22         6.8787   55.2949   22.2534 C.ar      1 UNK         0.0000 
     23 C23         7.2110   55.5123   20.9200 C.ar      1 UNK         0.0000 
     24 C24         6.4432   54.9339   19.9097 C.ar      1 UNK         0.0000 
     25 C25         5.3465   54.1354   20.2307 C.ar      1 UNK         0.0000 
     26 C26         5.0046   53.9298   21.5644 C.ar      1 UNK         0.0000 
     27 N27         6.8261   55.0889   18.5767 N.pl3     1 UNK         0.0000 
     28 S28         6.8153   56.6642   17.7656 S.o2      1 UNK         0.0000 
     29 O29         7.1389   57.6923   18.7613 O.2       1 UNK         0.0000 
     30 O30         7.6294   56.5005   16.5552 O.2       1 UNK         0.0000 
     31 C31         5.1394   56.9521   17.2029 C.ar      1 UNK         0.0000 
     32 C32         4.2495   55.8867   17.0258 C.ar      1 UNK         0.0000 
     33 C33         2.9626   56.1307   16.5540 C.ar      1 UNK         0.0000 
     34 C34         2.5716   57.4350   16.2562 C.ar      1 UNK         0.0000 
     35 C35         3.4610   58.4969   16.4179 C.ar      1 UNK         0.0000 
     36 C36         4.7493   58.2563   16.8837 C.ar      1 UNK         0.0000 
     37 C37        -2.3449   52.7892   23.6966 C.3       1 UNK         0.0000 
     38 H38        -0.3200   48.2106   25.0176 H         1 UNK         0.0000 
     39 H39        -1.6114   48.7645   26.0816 H         1 UNK         0.0000 
     40 H40         0.0643   49.0641   26.5045 H         1 UNK         0.0000 
     41 H41        -1.3538   49.5121   23.0548 H         1 UNK         0.0000 
     42 H42        -2.6600   50.0644   24.0573 H         1 UNK         0.0000 
     43 H43         0.2276   51.1981   21.9006 H         1 UNK         0.0000 
     44 H44        -0.1299   52.8966   21.9056 H         1 UNK         0.0000 
     45 H45         1.4110   50.8517   25.3075 H         1 UNK         0.0000 
     46 H46         1.1379   50.0528   23.7906 H         1 UNK         0.0000 
     47 H47         0.3564   52.6738   26.5447 H         1 UNK         0.0000 
     48 H48         1.4384   52.8957   28.7164 H         1 UNK         0.0000 
     49 H49         3.7719   53.7105   28.8707 H         1 UNK         0.0000 
     50 H50         5.0059   54.2918   26.8738 H         1 UNK         0.0000 
     51 H51         3.5036   54.0761   23.4682 H         1 UNK         0.0000 
     52 H52         7.5029   55.7357   23.0197 H         1 UNK         0.0000 
     53 H53         8.0870   56.0970   20.6763 H         1 UNK         0.0000 
     54 H54         4.7660   53.6649   19.4508 H         1 UNK         0.0000 
     55 H55         4.1482   53.3053   21.7782 H         1 UNK         0.0000 
     56 H56         6.8336   54.2766   17.9807 H         1 UNK         0.0000 
     57 H57         4.5459   54.8714   17.2454 H         1 UNK         0.0000 
     58 H58         2.2699   55.3136   16.4253 H         1 UNK         0.0000 
     59 H59         1.5714   57.6275   15.9020 H         1 UNK         0.0000 
     60 H60         3.1534   59.5078   16.1866 H         1 UNK         0.0000 
     61 H61         5.4356   59.0854   17.0050 H         1 UNK         0.0000 
     62 H62        -1.8260   53.0427   24.6209 H         1 UNK         0.0000 
     63 H63        -2.3972   53.6954   23.0980 H         1 UNK         0.0000 
     64 H64        -3.3675   52.5150   23.9566 H         1 UNK         0.0000 
@<TRIPOS>BOND
     1    1    2 1    
     2    1   38 1    
     3    1   39 1    
     4    1   40 1    
     5    2    3 1    
     6    2    9 1    
     7    2    4 1    
     8    4    5 1    
     9    4   41 1    
    10    4   42 1    
    11    5    6 1    
    12    5    7 1    
    13    5   37 1    
    14    7    8 1    
    15    7   43 1    
    16    7   44 1    
    17    8    9 1    
    18    8   10 am   BACKBONE|DICT|INTERRES
    19    9   45 1    
    20    9   46 1    
    21   10   11 2    
    22   10   12 1    
    23   12   17 ar   
    24   12   13 ar   
    25   13   14 ar   
    26   13   47 1    
    27   14   15 ar   
    28   14   48 1    
    29   15   16 ar   
    30   15   49 1    
    31   16   17 ar   
    32   16   50 1    
    33   17   18 1    
    34   18   19 am   BACKBONE|DICT|INTERRES
    35   18   51 1    
    36   19   20 2    
    37   19   21 1    
    38   21   26 ar   
    39   21   22 ar   
    40   22   23 ar   
    41   22   52 1    
    42   23   24 ar   
    43   23   53 1    
    44   24   25 ar   
    45   24   27 1    
    46   25   26 ar   
    47   25   54 1    
    48   26   55 1    
    49   27   28 1    
    50   27   56 1    
    51   28   29 2    
    52   28   30 2    
    53   28   31 1    
    54   31   36 ar   
    55   31   32 ar   
    56   32   33 ar   
    57   32   57 1    
    58   33   34 ar   
    59   33   58 1    
    60   34   35 ar   
    61   34   59 1    
    62   35   36 ar   
    63   35   60 1    
    64   36   61 1    
    65   37   62 1    
    66   37   63 1    
    67   37   64 1    
@<TRIPOS>SUBSTRUCTURE
     1 UNK         1 GROUP             0       ****    0 ROOT    
