ZINC04352564_5725
                    3D
 Schrodinger Suite 2024-2.
 65 68  0  0  1  0            999 V2000
    8.7077   59.1669   17.3123 C   0  0  0  0  0  0
    7.4881   58.5150   17.1470 C   0  0  0  0  0  0
    7.3780   57.1651   17.4722 C   0  0  0  0  0  0
    8.4778   56.4703   17.9858 C   0  0  0  0  0  0
    9.7053   57.1259   18.1189 C   0  0  0  0  0  0
    9.8213   58.4759   17.7892 C   0  0  0  0  0  0
    8.3786   54.9984   18.3916 C   0  0  0  0  0  0
    7.0406   54.5419   18.5710 O   0  0  0  0  0  0
    6.0983   55.0561   19.8033 P   0  0  0  0  0  0
    6.7575   55.9552   20.7926 O   0  0  0  0  0  0
    4.8137   55.6968   19.0308 O   0  0  0  0  0  0
    4.0749   54.9617   18.0628 C   0  0  0  0  0  0
    3.8569   55.7996   16.8075 C   0  0  0  0  0  0
    3.7881   57.1950   16.8828 C   0  0  0  0  0  0
    3.5942   57.9550   15.7331 C   0  0  0  0  0  0
    3.4650   57.3149   14.5026 C   0  0  0  0  0  0
    3.5213   55.9248   14.4146 C   0  0  0  0  0  0
    3.7188   55.1668   15.5695 C   0  0  0  0  0  0
    5.5044   53.6796   20.4174 O   0  0  0  0  0  0
    4.6744   53.4430   21.7869 P   0  0  0  0  0  0
    3.5993   54.4342   22.0605 O   0  0  0  0  0  0
    4.1861   51.8942   21.6470 O   0  0  0  0  0  0
    2.9293   51.5834   21.0693 C   0  0  0  0  0  0
    1.9040   51.4106   22.1790 C   0  0  0  0  0  0
    1.0533   52.4668   22.5170 C   0  0  0  0  0  0
    0.1455   52.3182   23.5624 C   0  0  0  0  0  0
    0.0882   51.1137   24.2614 C   0  0  0  0  0  0
    0.9312   50.0569   23.9243 C   0  0  0  0  0  0
    1.8429   50.2045   22.8821 C   0  0  0  0  0  0
    5.8291   53.3243   22.9351 O   0  0  0  0  0  0
    6.2018   54.4381   23.7326 C   0  0  0  0  0  0
    5.6031   54.3346   25.1382 C   0  0  0  0  0  0
    6.4444   54.3925   26.2524 C   0  0  0  0  0  0
    5.9243   54.2943   27.5410 C   0  0  0  0  0  0
    4.5513   54.1411   27.7149 C   0  0  0  0  0  0
    3.6987   54.0962   26.6131 C   0  0  0  0  0  0
    4.2233   54.1948   25.3273 C   0  0  0  0  0  0
    8.7827   60.2140   17.0576 H   0  0  0  0  0  0
    6.6319   59.0591   16.7697 H   0  0  0  0  0  0
    6.4354   56.6661   17.3257 H   0  0  0  0  0  0
   10.5717   56.5928   18.4817 H   0  0  0  0  0  0
   10.7700   58.9784   17.9024 H   0  0  0  0  0  0
    8.8264   54.4065   17.5952 H   0  0  0  0  0  0
    8.9610   54.7989   19.2940 H   0  0  0  0  0  0
    4.5736   54.0248   17.8048 H   0  0  0  0  0  0
    3.1081   54.6968   18.4879 H   0  0  0  0  0  0
    3.8931   57.6964   17.8313 H   0  0  0  0  0  0
    3.5544   59.0340   15.7992 H   0  0  0  0  0  0
    3.3179   57.9029   13.6084 H   0  0  0  0  0  0
    3.4189   55.4373   13.4575 H   0  0  0  0  0  0
    3.7656   54.0904   15.4955 H   0  0  0  0  0  0
    2.6081   52.3360   20.3463 H   0  0  0  0  0  0
    3.0220   50.6488   20.5146 H   0  0  0  0  0  0
    1.1091   53.4049   21.9818 H   0  0  0  0  0  0
   -0.5068   53.1342   23.8349 H   0  0  0  0  0  0
   -0.6113   50.9974   25.0756 H   0  0  0  0  0  0
    0.8904   49.1297   24.4786 H   0  0  0  0  0  0
    2.5075   49.3887   22.6385 H   0  0  0  0  0  0
    7.2923   54.4480   23.7842 H   0  0  0  0  0  0
    5.9093   55.3802   23.2760 H   0  0  0  0  0  0
    7.5066   54.4964   26.1240 H   0  0  0  0  0  0
    6.5836   54.3350   28.3967 H   0  0  0  0  0  0
    4.1467   54.0576   28.7129 H   0  0  0  0  0  0
    2.6339   53.9826   26.7567 H   0  0  0  0  0  0
    3.5472   54.1518   24.4878 H   0  0  0  0  0  0
  1  6  2  0  0  0
  1  2  1  0  0  0
  1 38  1  0  0  0
  2  3  2  0  0  0
  2 39  1  0  0  0
  3  4  1  0  0  0
  3 40  1  0  0  0
  4  5  2  0  0  0
  4  7  1  0  0  0
  5  6  1  0  0  0
  5 41  1  0  0  0
  6 42  1  0  0  0
  7  8  1  0  0  0
  7 43  1  0  0  0
  7 44  1  0  0  0
  8  9  1  0  0  0
  9 10  2  0  0  0
  9 11  1  0  0  0
  9 19  1  0  0  0
 11 12  1  0  0  0
 12 13  1  0  0  0
 12 45  1  0  0  0
 12 46  1  0  0  0
 13 18  2  0  0  0
 13 14  1  0  0  0
 14 15  2  0  0  0
 14 47  1  0  0  0
 15 16  1  0  0  0
 15 48  1  0  0  0
 16 17  2  0  0  0
 16 49  1  0  0  0
 17 18  1  0  0  0
 17 50  1  0  0  0
 18 51  1  0  0  0
 19 20  1  0  0  0
 20 21  2  0  0  0
 20 22  1  0  0  0
 20 30  1  0  0  0
 22 23  1  0  0  0
 23 24  1  0  0  0
 23 52  1  0  0  0
 23 53  1  0  0  0
 24 29  2  0  0  0
 24 25  1  0  0  0
 25 26  2  0  0  0
 25 54  1  0  0  0
 26 27  1  0  0  0
 26 55  1  0  0  0
 27 28  2  0  0  0
 27 56  1  0  0  0
 28 29  1  0  0  0
 28 57  1  0  0  0
 29 58  1  0  0  0
 30 31  1  0  0  0
 31 32  1  0  0  0
 31 59  1  0  0  0
 31 60  1  0  0  0
 32 37  2  0  0  0
 32 33  1  0  0  0
 33 34  2  0  0  0
 33 61  1  0  0  0
 34 35  1  0  0  0
 34 62  1  0  0  0
 35 36  2  0  0  0
 35 63  1  0  0  0
 36 37  1  0  0  0
 36 64  1  0  0  0
 37 65  1  0  0  0
M  END
> <i_i_glide_confnum>
334

> <i_i_glide_lignum>
5726

> <i_i_glide_posenum>
393

> <i_i_glide_rotatable_bonds>
14

> <i_m_Source_File_Index>
264

> <b_m_subgroup_collapsed>
0

> <r_i_docking_score>
-4.99838

> <r_i_glide_ecoul>
-4.46972

> <r_i_glide_eff_state_penalty>
0

> <r_i_glide_einternal>
8.39384

> <r_i_glide_emodel>
-62.9547

> <r_i_glide_energy>
-51.0063

> <r_i_glide_erotb>
0.712642

> <r_i_glide_esite>
0

> <r_i_glide_evdw>
-46.5365

> <r_i_glide_gscore>
-4.99838

> <r_i_glide_hbond>
0

> <r_i_glide_ligand_efficiency>
-0.135091

> <r_i_glide_ligand_efficiency_ln>
-1.08403

> <r_i_glide_ligand_efficiency_sa>
-0.450154

> <r_i_glide_lipo>
-2.62207

> <r_i_glide_metal>
0

> <r_i_glide_rewards>
-0.0916667

> <s_i_glide_gridfile>
wee1_glide-grid

> <s_m_Source_File>
wee1_decoys_glide_SP.sdf

> <s_m_Source_Path>
/Users/zhangxujun/Desktop

> <s_m_entry_id>
539

> <s_m_entry_name>
wee1_decoys_glide_SP.264

> <s_m_subgroup_title>
wee1_decoys_glide_SP

> <s_m_subgroupid>
wee1_decoys_glide_SP


$$$$
