ZINC14654148_2859
                    3D
 Schrodinger Suite 2024-2.
 54 56  0  0  1  0            999 V2000
    4.9551   55.2087   25.5150 C   0  0  0  0  0  0
    6.3181   55.3632   24.8262 C   0  0  0  0  0  0
    6.7242   54.0783   24.0908 C   0  0  0  0  0  0
    5.7912   53.7073   23.0745 O   0  0  0  0  0  0
    5.8023   54.3306   21.8353 C   0  0  0  0  0  0
    6.7057   55.3591   21.5080 C   0  0  0  0  0  0
    6.6949   55.9502   20.2475 C   0  0  0  0  0  0
    5.7830   55.5270   19.2892 C   0  0  0  0  0  0
    4.8947   54.4979   19.5838 C   0  0  0  0  0  0
    4.8943   53.8852   20.8484 C   0  0  0  0  0  0
    3.9559   52.7284   21.1061 C   0  0  0  0  0  0
    4.3543   51.7125   21.6813 O   0  0  0  0  0  0
    2.7043   52.8965   20.6216 N   0  0  0  0  0  0
    1.5813   52.1257   20.7632 C   0  0  0  0  0  0
    0.6089   51.8668   19.4475 S   0  0  0  0  0  0
    1.1788   51.6057   21.9619 N   0  0  0  0  0  0
    1.8358   51.7921   23.1740 N   0  0  0  0  0  0
    1.4682   52.7915   24.0039 C   0  0  0  0  0  0
    0.6863   53.6963   23.7078 O   0  0  0  0  0  0
    2.0983   52.6997   25.3976 C   0  0  0  0  0  0
    1.6166   53.6951   26.3032 O   0  0  0  0  0  0
    1.0049   53.2914   27.4819 C   0  0  0  0  0  0
    0.2453   52.1150   27.5909 C   0  0  0  0  0  0
   -0.3758   51.7586   28.7804 C   0  0  0  0  0  0
   -0.2858   52.5762   29.8970 C   0  0  0  0  0  0
    0.4078   53.8045   29.8202 C   0  0  0  0  0  0
    1.0794   54.1607   28.6091 C   0  0  0  0  0  0
    1.7942   55.3878   28.5712 C   0  0  0  0  0  0
    1.7877   56.2524   29.6587 C   0  0  0  0  0  0
    1.1044   55.9164   30.8165 C   0  0  0  0  0  0
    0.4336   54.6997   30.9133 C   0  0  0  0  0  0
    5.7577   56.3457   17.5722 Br  0  0  0  0  0  0
    4.7050   56.0967   26.0816 H   0  0  0  0  0  0
    4.1586   55.0429   24.7884 H   0  0  0  0  0  0
    4.9514   54.3693   26.2118 H   0  0  0  0  0  0
    7.0734   55.5976   25.5759 H   0  0  0  0  0  0
    6.3042   56.2122   24.1447 H   0  0  0  0  0  0
    6.7432   53.2967   24.8410 H   0  0  0  0  0  0
    7.7400   54.0972   23.7019 H   0  0  0  0  0  0
    7.4409   55.7088   22.2155 H   0  0  0  0  0  0
    7.4014   56.7288   20.0041 H   0  0  0  0  0  0
    4.2191   54.1697   18.8052 H   0  0  0  0  0  0
    2.5593   53.7386   20.0798 H   0  0  0  0  0  0
    0.6068   50.7733   21.9766 H   0  0  0  0  0  0
    2.4517   51.0291   23.4168 H   0  0  0  0  0  0
    3.1749   52.8366   25.3057 H   0  0  0  0  0  0
    1.9044   51.6969   25.7573 H   0  0  0  0  0  0
    0.0933   51.4628   26.7449 H   0  0  0  0  0  0
   -0.9573   50.8507   28.8296 H   0  0  0  0  0  0
   -0.7842   52.2939   30.8157 H   0  0  0  0  0  0
    2.3327   55.6661   27.6814 H   0  0  0  0  0  0
    2.3075   57.1965   29.6034 H   0  0  0  0  0  0
    1.1088   56.5986   31.6549 H   0  0  0  0  0  0
   -0.0816   54.4366   31.8268 H   0  0  0  0  0  0
  1  2  1  0  0  0
  1 33  1  0  0  0
  1 34  1  0  0  0
  1 35  1  0  0  0
  2  3  1  0  0  0
  2 36  1  0  0  0
  2 37  1  0  0  0
  3  4  1  0  0  0
  3 38  1  0  0  0
  3 39  1  0  0  0
  4  5  1  0  0  0
  5 10  2  0  0  0
  5  6  1  0  0  0
  6  7  2  0  0  0
  6 40  1  0  0  0
  7  8  1  0  0  0
  7 41  1  0  0  0
  8  9  2  0  0  0
  8 32  1  0  0  0
  9 10  1  0  0  0
  9 42  1  0  0  0
 10 11  1  0  0  0
 11 12  2  0  0  0
 11 13  1  0  0  0
 13 14  1  0  0  0
 13 43  1  0  0  0
 14 15  2  0  0  0
 14 16  1  0  0  0
 16 17  1  0  0  0
 16 44  1  0  0  0
 17 18  1  0  0  0
 17 45  1  0  0  0
 18 19  2  0  0  0
 18 20  1  0  0  0
 20 21  1  0  0  0
 20 46  1  0  0  0
 20 47  1  0  0  0
 21 22  1  0  0  0
 22 27  2  0  0  0
 22 23  1  0  0  0
 23 24  2  0  0  0
 23 48  1  0  0  0
 24 25  1  0  0  0
 24 49  1  0  0  0
 25 26  2  0  0  0
 25 50  1  0  0  0
 26 31  1  0  0  0
 26 27  1  0  0  0
 27 28  1  0  0  0
 28 29  2  0  0  0
 28 51  1  0  0  0
 29 30  1  0  0  0
 29 52  1  0  0  0
 30 31  2  0  0  0
 30 53  1  0  0  0
 31 54  1  0  0  0
M  END
> <i_i_glide_confnum>
216

> <i_i_glide_lignum>
2860

> <i_i_glide_posenum>
196

> <i_i_glide_rotatable_bonds>
12

> <i_m_Source_File_Index>
737

> <b_m_subgroup_collapsed>
0

> <r_i_docking_score>
-6.06378

> <r_i_glide_ecoul>
-5.24244

> <r_i_glide_eff_state_penalty>
0

> <r_i_glide_einternal>
17.4995

> <r_i_glide_emodel>
-59.5708

> <r_i_glide_energy>
-47.158

> <r_i_glide_erotb>
0.769669

> <r_i_glide_esite>
-0.0535717

> <r_i_glide_evdw>
-41.9155

> <r_i_glide_gscore>
-6.06378

> <r_i_glide_hbond>
-0.241929

> <r_i_glide_ligand_efficiency>
-0.189493

> <r_i_glide_ligand_efficiency_ln>
-1.35785

> <r_i_glide_ligand_efficiency_sa>
-0.601604

> <r_i_glide_lipo>
-3.30602

> <r_i_glide_metal>
0

> <r_i_glide_rewards>
-0.349793

> <s_i_glide_gridfile>
wee1_glide-grid

> <s_m_Source_File>
wee1_decoys_glide_SP.sdf

> <s_m_Source_Path>
/Users/zhangxujun/Desktop

> <s_m_entry_id>
1012

> <s_m_entry_name>
wee1_decoys_glide_SP.737

> <s_m_subgroup_title>
wee1_decoys_glide_SP

> <s_m_subgroupid>
wee1_decoys_glide_SP


$$$$
