ZINC12700954_2544
                    3D
 Schrodinger Suite 2024-2.
 43 46  0  0  1  0            999 V2000
   -0.0599   52.0971   28.9925 C   0  0  0  0  0  0
    1.0126   52.5626   29.7565 C   0  0  0  0  0  0
    2.1229   53.0739   29.0701 C   0  0  0  0  0  0
    2.1558   53.1224   27.6510 C   0  0  0  0  0  0
    1.0594   52.6594   26.9084 C   0  0  0  0  0  0
   -0.0413   52.1519   27.5971 C   0  0  0  0  0  0
   -1.4078   51.5905   26.7098 Cl  0  0  0  0  0  0
    3.2972   53.6233   27.1135 N   0  0  0  0  0  0
    4.1698   53.9348   28.0315 C   0  0  0  0  0  0
    3.6368   53.7163   29.6813 S   0  0  0  0  0  0
    5.8133   54.4963   27.7143 S   0  0  0  0  0  0
    6.1546   53.6964   26.1161 C   0  0  0  0  0  0
    6.2823   54.6071   24.8890 C   0  0  0  0  0  0
    6.8456   55.6961   24.9899 O   0  0  0  0  0  0
    5.7643   54.0956   23.7540 N   0  0  0  0  0  0
    5.8938   54.5354   22.4340 C   0  0  0  0  0  0
    5.1595   54.0538   21.3271 C   0  0  0  0  0  0
    5.5044   54.7430   20.1261 C   0  0  0  0  0  0
    6.5529   55.6582   20.3181 C   0  0  0  0  0  0
    7.1024   55.6941   21.9514 S   0  0  0  0  0  0
    7.1174   56.5997   19.2608 C   0  0  0  0  0  0
    6.6311   56.1600   17.8668 C   0  0  0  0  0  0
    5.1309   55.8279   17.8646 C   0  0  0  0  0  0
    4.8089   54.6146   18.7627 C   0  0  0  0  0  0
    4.1064   53.0561   21.4504 C   0  0  0  0  0  0
    3.4488   52.9194   22.4797 O   0  0  0  0  0  0
    3.9222   52.2456   20.4068 N   0  0  0  0  0  0
   -0.9245   51.6788   29.4914 H   0  0  0  0  0  0
    0.9795   52.5153   30.8344 H   0  0  0  0  0  0
    1.0669   52.6885   25.8288 H   0  0  0  0  0  0
    5.4367   52.8995   25.9513 H   0  0  0  0  0  0
    7.1131   53.1970   26.2280 H   0  0  0  0  0  0
    5.1306   53.3163   23.8619 H   0  0  0  0  0  0
    8.2079   56.6211   19.2828 H   0  0  0  0  0  0
    6.7710   57.6170   19.4489 H   0  0  0  0  0  0
    7.1966   55.2856   17.5382 H   0  0  0  0  0  0
    6.8453   56.9447   17.1390 H   0  0  0  0  0  0
    4.7963   55.6301   16.8445 H   0  0  0  0  0  0
    4.5626   56.6981   18.2021 H   0  0  0  0  0  0
    3.7267   54.5325   18.8771 H   0  0  0  0  0  0
    5.1329   53.7004   18.2607 H   0  0  0  0  0  0
    4.5131   52.2858   19.5867 H   0  0  0  0  0  0
    3.2043   51.5384   20.4529 H   0  0  0  0  0  0
  1  6  2  0  0  0
  1  2  1  0  0  0
  1 28  1  0  0  0
  2  3  2  0  0  0
  2 29  1  0  0  0
  3 10  1  0  0  0
  3  4  1  0  0  0
  4  5  2  0  0  0
  4  8  1  0  0  0
  5  6  1  0  0  0
  5 30  1  0  0  0
  6  7  1  0  0  0
  8  9  2  0  0  0
  9 10  1  0  0  0
  9 11  1  0  0  0
 11 12  1  0  0  0
 12 13  1  0  0  0
 12 31  1  0  0  0
 12 32  1  0  0  0
 13 14  2  0  0  0
 13 15  1  0  0  0
 15 16  1  0  0  0
 15 33  1  0  0  0
 16 20  1  0  0  0
 16 17  2  0  0  0
 17 18  1  0  0  0
 17 25  1  0  0  0
 18 24  1  0  0  0
 18 19  2  0  0  0
 19 20  1  0  0  0
 19 21  1  0  0  0
 21 22  1  0  0  0
 21 34  1  0  0  0
 21 35  1  0  0  0
 22 23  1  0  0  0
 22 36  1  0  0  0
 22 37  1  0  0  0
 23 24  1  0  0  0
 23 38  1  0  0  0
 23 39  1  0  0  0
 24 40  1  0  0  0
 24 41  1  0  0  0
 25 26  2  0  0  0
 25 27  1  0  0  0
 27 42  1  0  0  0
 27 43  1  0  0  0
M  END
> <i_i_glide_confnum>
19

> <i_i_glide_lignum>
2545

> <i_i_glide_posenum>
362

> <i_i_glide_rotatable_bonds>
6

> <i_m_Source_File_Index>
2351

> <b_m_subgroup_collapsed>
0

> <r_i_docking_score>
-6.11844

> <r_i_glide_ecoul>
-3.53415

> <r_i_glide_eff_state_penalty>
0

> <r_i_glide_einternal>
4.0358

> <r_i_glide_emodel>
-70.8575

> <r_i_glide_energy>
-52.9304

> <r_i_glide_erotb>
0.4159

> <r_i_glide_esite>
-0.0294585

> <r_i_glide_evdw>
-49.3963

> <r_i_glide_gscore>
-6.11844

> <r_i_glide_hbond>
-0.243226

> <r_i_glide_ligand_efficiency>
-0.226609

> <r_i_glide_ligand_efficiency_ln>
-1.42427

> <r_i_glide_ligand_efficiency_sa>
-0.679827

> <r_i_glide_lipo>
-2.19558

> <r_i_glide_metal>
0

> <r_i_glide_rewards>
-1.06614

> <s_i_glide_gridfile>
wee1_glide-grid

> <s_m_Source_File>
wee1_decoys_glide_SP.sdf

> <s_m_Source_Path>
/Users/zhangxujun/Desktop

> <s_m_entry_id>
2626

> <s_m_entry_name>
wee1_decoys_glide_SP.2351

> <s_m_subgroup_title>
wee1_decoys_glide_SP

> <s_m_subgroupid>
wee1_decoys_glide_SP


$$$$
