ZINC38687056_2064
                    3D
 Schrodinger Suite 2024-2.
 59 63  0  0  1  0            999 V2000
   -2.0951   51.1632   28.9114 C   0  0  0  0  0  0
   -1.6447   51.2969   27.4484 C   0  0  0  0  0  0
   -2.7725   51.8600   26.5644 C   0  0  0  0  0  0
   -0.3430   52.0823   27.2659 C   0  0  0  0  0  0
    0.4371   51.8093   26.1451 C   0  0  0  0  0  0
    1.6242   52.4969   25.9342 C   0  0  0  0  0  0
    2.0600   53.4763   26.8376 C   0  0  0  0  0  0
    1.2714   53.7465   27.9617 C   0  0  0  0  0  0
    0.0854   53.0500   28.1826 C   0  0  0  0  0  0
    3.3619   54.2770   26.6061 C   0  0  2  0  0  0
    3.0959   55.3034   26.8384 H   0  0  0  0  0  0
    3.8895   54.3199   25.1525 C   0  0  0  0  0  0
    3.0375   54.4877   24.0514 C   0  0  0  0  0  0
    3.5140   54.4024   22.7454 C   0  0  0  0  0  0
    4.8751   54.1863   22.5015 C   0  0  0  0  0  0
    5.7530   54.1008   23.5836 C   0  0  0  0  0  0
    5.2659   54.1682   24.8891 C   0  0  0  0  0  0
    6.2059   54.0586   25.8943 O   0  0  0  0  0  0
    5.7838   53.9150   27.1739 C   0  0  0  0  0  0
    4.5008   53.9616   27.5821 C   0  0  0  0  0  0
    4.1903   53.7983   28.9660 C   0  0  0  0  0  0
    3.9044   53.6904   30.0816 N   0  0  0  0  0  0
    6.8832   53.6968   27.9563 N   0  0  0  0  0  0
    5.3795   54.1323   21.2222 O   0  0  0  0  0  0
    4.9397   53.1773   20.3462 C   0  0  0  0  0  0
    4.1187   52.2892   20.5991 O   0  0  0  0  0  0
    5.5932   53.2836   18.9497 C   0  0  1  0  0  0
    6.2720   52.4360   18.8784 H   0  0  0  0  0  0
    4.5385   53.1558   17.8124 C   0  0  0  0  0  0
    3.7389   54.3383   17.7252 O   0  0  0  0  0  0
    4.4884   55.4939   17.6909 C   0  0  0  0  0  0
    3.9134   56.6240   17.1093 C   0  0  0  0  0  0
    4.6308   57.8225   17.0723 C   0  0  0  0  0  0
    5.9079   57.8958   17.6349 C   0  0  0  0  0  0
    6.4807   56.7674   18.2267 C   0  0  0  0  0  0
    5.7718   55.5657   18.2568 C   0  0  0  0  0  0
    6.4035   54.4680   18.8101 O   0  0  0  0  0  0
   -1.2682   50.8967   29.5684 H   0  0  0  0  0  0
   -2.8722   50.4046   29.0225 H   0  0  0  0  0  0
   -2.4959   52.0963   29.2734 H   0  0  0  0  0  0
   -1.4369   50.2794   27.1109 H   0  0  0  0  0  0
   -2.4788   51.8899   25.5150 H   0  0  0  0  0  0
   -3.6714   51.2458   26.6342 H   0  0  0  0  0  0
   -3.0438   52.8752   26.8603 H   0  0  0  0  0  0
    0.1277   51.0545   25.4366 H   0  0  0  0  0  0
    2.2113   52.2414   25.0657 H   0  0  0  0  0  0
    1.5723   54.5025   28.6698 H   0  0  0  0  0  0
   -0.4953   53.2822   29.0628 H   0  0  0  0  0  0
    1.9771   54.6433   24.2071 H   0  0  0  0  0  0
    2.8264   54.5038   21.9172 H   0  0  0  0  0  0
    6.8123   53.9731   23.4122 H   0  0  0  0  0  0
    6.8279   53.7757   28.9619 H   0  0  0  0  0  0
    7.7127   53.2763   27.5671 H   0  0  0  0  0  0
    5.0638   53.0111   16.8653 H   0  0  0  0  0  0
    3.9003   52.2807   17.9456 H   0  0  0  0  0  0
    2.9203   56.5706   16.6866 H   0  0  0  0  0  0
    4.1927   58.7026   16.6245 H   0  0  0  0  0  0
    6.4487   58.8311   17.6095 H   0  0  0  0  0  0
    7.4740   56.8171   18.6489 H   0  0  0  0  0  0
  1  2  1  0  0  0
  1 38  1  0  0  0
  1 39  1  0  0  0
  1 40  1  0  0  0
  2  3  1  0  0  0
  2  4  1  0  0  0
  2 41  1  0  0  0
  3 42  1  0  0  0
  3 43  1  0  0  0
  3 44  1  0  0  0
  4  9  2  0  0  0
  4  5  1  0  0  0
  5  6  2  0  0  0
  5 45  1  0  0  0
  6  7  1  0  0  0
  6 46  1  0  0  0
  7  8  2  0  0  0
  7 10  1  0  0  0
  8  9  1  0  0  0
  8 47  1  0  0  0
  9 48  1  0  0  0
 10 11  1  0  0  0
 10 20  1  0  0  0
 10 12  1  0  0  0
 12 17  2  0  0  0
 12 13  1  0  0  0
 13 14  2  0  0  0
 13 49  1  0  0  0
 14 15  1  0  0  0
 14 50  1  0  0  0
 15 16  2  0  0  0
 15 24  1  0  0  0
 16 17  1  0  0  0
 16 51  1  0  0  0
 17 18  1  0  0  0
 18 19  1  0  0  0
 19 20  2  0  0  0
 19 23  1  0  0  0
 20 21  1  0  0  0
 21 22  3  0  0  0
 23 52  1  0  0  0
 23 53  1  0  0  0
 24 25  1  0  0  0
 25 26  2  0  0  0
 25 27  1  0  0  0
 27 28  1  0  0  0
 27 37  1  0  0  0
 27 29  1  0  0  0
 29 30  1  0  0  0
 29 54  1  0  0  0
 29 55  1  0  0  0
 30 31  1  0  0  0
 31 36  2  0  0  0
 31 32  1  0  0  0
 32 33  2  0  0  0
 32 56  1  0  0  0
 33 34  1  0  0  0
 33 57  1  0  0  0
 34 35  2  0  0  0
 34 58  1  0  0  0
 35 36  1  0  0  0
 35 59  1  0  0  0
 36 37  1  0  0  0
M  END
> <i_i_glide_confnum>
51

> <i_i_glide_lignum>
2065

> <i_i_glide_posenum>
225

> <i_i_glide_rotatable_bonds>
6

> <i_m_Source_File_Index>
5072

> <b_m_subgroup_collapsed>
0

> <r_i_docking_score>
-5.27339

> <r_i_glide_ecoul>
-4.98521

> <r_i_glide_eff_state_penalty>
0

> <r_i_glide_einternal>
6.94086

> <r_i_glide_emodel>
-57.0842

> <r_i_glide_energy>
-48.0128

> <r_i_glide_erotb>
0.367947

> <r_i_glide_esite>
-0.0177952

> <r_i_glide_evdw>
-43.0276

> <r_i_glide_gscore>
-5.27339

> <r_i_glide_hbond>
-0.2847

> <r_i_glide_ligand_efficiency>
-0.150668

> <r_i_glide_ligand_efficiency_ln>
-1.15763

> <r_i_glide_ligand_efficiency_sa>
-0.492846

> <r_i_glide_lipo>
-2.91993

> <r_i_glide_metal>
0

> <r_i_glide_rewards>
0.480247

> <s_i_glide_gridfile>
wee1_glide-grid

> <s_m_Source_File>
wee1_decoys_glide_SP.sdf

> <s_m_Source_Path>
/Users/zhangxujun/Desktop

> <s_m_entry_id>
5347

> <s_m_entry_name>
wee1_decoys_glide_SP.5072

> <s_m_subgroup_title>
wee1_decoys_glide_SP

> <s_m_subgroupid>
wee1_decoys_glide_SP


$$$$
