@<TRIPOS>MOLECULE
ZINC22516137_6042
57   60    1
SMALL
USER_CHARGES


@<TRIPOS>ATOM
      1 C1         -4.4681   51.5105   24.3551 C.ar      1 UNK         0.0000 
      2 C2         -4.1304   50.3026   24.9625 C.ar      1 UNK         0.0000 
      3 C3         -3.3712   50.3054   26.1292 C.ar      1 UNK         0.0000 
      4 C4         -2.9519   51.5173   26.6863 C.ar      1 UNK         0.0000 
      5 C5         -3.2895   52.7260   26.0675 C.ar      1 UNK         0.0000 
      6 C6         -4.0469   52.7217   24.8987 C.ar      1 UNK         0.0000 
      7 C7         -2.1530   51.5094   27.9812 C.3       1 UNK         0.0000 
      8 N8         -0.8198   52.0861   27.8315 N.am      1 UNK         0.0000 
      9 C9         -0.0951   52.6034   28.8360 C.2       1 UNK         0.0000 
     10 O10        -0.4960   52.6787   29.9973 O.2       1 UNK         0.0000 
     11 C11         1.3172   53.0957   28.4876 C.3       1 UNK         0.0000 
     12 C12         2.3168   52.1068   29.1137 C.3       1 UNK         0.0000 
     13 C13         3.7138   52.4966   28.6242 C.3       1 UNK         0.0000 
     14 N14         4.0073   53.9709   29.0041 N.4       1 UNK         0.0000 
     15 C15         2.9114   55.0152   28.6434 C.3       1 UNK         0.0000 
     16 C16         1.5329   54.5027   29.0847 C.3       1 UNK         0.0000 
     17 C17         5.4213   54.3973   28.5358 C.3       1 UNK         0.0000 
     18 C18         5.6132   54.6193   27.0358 C.2       1 UNK         0.0000 
     19 C19         6.7002   55.2663   26.4909 C.2       1 UNK         0.0000 
     20 S20         6.6023   55.2935   24.7595 S.3       1 UNK         0.0000 
     21 C21         5.0965   54.4408   24.9013 C.2       1 UNK         0.0000 
     22 N22         4.7417   54.1876   26.1398 N.2       1 UNK         0.0000 
     23 C23         4.3152   53.9804   23.7071 C.ar      1 UNK         0.0000 
     24 C24         4.9484   53.7355   22.4821 C.ar      1 UNK         0.0000 
     25 C25         4.2381   53.1833   21.4203 C.ar      1 UNK         0.0000 
     26 C26         2.8835   52.8694   21.5670 C.ar      1 UNK         0.0000 
     27 C27         2.2365   53.1591   22.7716 C.ar      1 UNK         0.0000 
     28 C28         2.9479   53.7069   23.8347 C.ar      1 UNK         0.0000 
     29 C29         2.1167   52.2166   20.4154 C.3       1 UNK         0.0000 
     30 F30         2.2642   50.8955   20.5061 F         1 UNK         0.0000 
     31 F31         0.8125   52.4958   20.4695 F         1 UNK         0.0000 
     32 F32         2.5804   52.6119   19.2290 F         1 UNK         0.0000 
     33 H33        -5.0644   51.5065   23.4535 H         1 UNK         0.0000 
     34 H34        -4.4606   49.3666   24.5341 H         1 UNK         0.0000 
     35 H35        -3.1133   49.3664   26.6042 H         1 UNK         0.0000 
     36 H36        -2.9623   53.6672   26.4829 H         1 UNK         0.0000 
     37 H37        -4.3125   53.6531   24.4200 H         1 UNK         0.0000 
     38 H38        -2.7288   52.0149   28.7559 H         1 UNK         0.0000 
     39 H39        -2.0385   50.4967   28.3514 H         1 UNK         0.0000 
     40 H40        -0.3666   51.9018   26.9501 H         1 UNK         0.0000 
     41 H41         1.3752   53.1018   27.3965 H         1 UNK         0.0000 
     42 H42         2.3258   52.1522   30.2054 H         1 UNK         0.0000 
     43 H43         2.1548   51.0849   28.7589 H         1 UNK         0.0000 
     44 H44         3.8018   52.3941   27.5465 H         1 UNK         0.0000 
     45 H45         4.4745   51.8879   29.1166 H         1 UNK         0.0000 
     46 H46         2.9414   55.2105   27.5719 H         1 UNK         0.0000 
     47 H47         3.1622   55.9300   29.1837 H         1 UNK         0.0000 
     48 H48         0.8115   55.2213   28.6909 H         1 UNK         0.0000 
     49 H49         1.5280   54.4977   30.1771 H         1 UNK         0.0000 
     50 H50         5.6309   55.2962   29.1156 H         1 UNK         0.0000 
     51 H51         6.0943   53.6192   28.8961 H         1 UNK         0.0000 
     52 H52         7.5031   55.6947   27.0603 H         1 UNK         0.0000 
     53 H53         6.0033   53.9319   22.3563 H         1 UNK         0.0000 
     54 H54         4.7485   52.9731   20.4908 H         1 UNK         0.0000 
     55 H55         1.1876   52.9340   22.8987 H         1 UNK         0.0000 
     56 H56         2.4361   53.8926   24.7672 H         1 UNK         0.0000 
     57 H57         4.0231   53.9543   30.0129 H         1 UNK         0.0000 
@<TRIPOS>BOND
     1    1    6 ar   
     2    1    2 ar   
     3    1   33 1    
     4    2    3 ar   
     5    2   34 1    
     6    3    4 ar   
     7    3   35 1    
     8    4    5 ar   
     9    4    7 1    
    10    5    6 ar   
    11    5   36 1    
    12    6   37 1    
    13    7    8 1    
    14    7   38 1    
    15    7   39 1    
    16    8    9 am   BACKBONE|DICT|INTERRES
    17    8   40 1    
    18    9   10 2    
    19    9   11 1    
    20   11   16 1    
    21   11   12 1    
    22   11   41 1    
    23   12   13 1    
    24   12   42 1    
    25   12   43 1    
    26   13   14 1    
    27   13   44 1    
    28   13   45 1    
    29   14   15 1    
    30   14   17 1    
    31   14   57 1    
    32   15   16 1    
    33   15   46 1    
    34   15   47 1    
    35   16   48 1    
    36   16   49 1    
    37   17   18 1    
    38   17   50 1    
    39   17   51 1    
    40   18   22 1    
    41   18   19 2    
    42   19   20 1    
    43   19   52 1    
    44   20   21 1    
    45   21   22 2    
    46   21   23 1    
    47   23   28 ar   
    48   23   24 ar   
    49   24   25 ar   
    50   24   53 1    
    51   25   26 ar   
    52   25   54 1    
    53   26   27 ar   
    54   26   29 1    
    55   27   28 ar   
    56   27   55 1    
    57   28   56 1    
    58   29   30 1    
    59   29   31 1    
    60   29   32 1    
@<TRIPOS>SUBSTRUCTURE
     1 UNK         1 GROUP             0       ****    0 ROOT    
