@<TRIPOS>MOLECULE
ZINC43218948_2827
65   69    1
SMALL
USER_CHARGES


@<TRIPOS>ATOM
      1 C1          6.0839   57.3570   18.3562 C.3       1 UNK         0.0000 
      2 N2          4.9113   56.7640   17.7120 N.pl3     1 UNK         0.0000 
      3 C3          4.1031   57.6381   16.8521 C.3       1 UNK         0.0000 
      4 C4          4.4548   55.4676   18.0751 C.ar      1 UNK         0.0000 
      5 C5          5.1262   54.7053   19.0434 C.ar      1 UNK         0.0000 
      6 C6          4.6591   53.4496   19.4219 C.ar      1 UNK         0.0000 
      7 C7          3.5070   52.9217   18.8414 C.ar      1 UNK         0.0000 
      8 C8          2.8410   53.6572   17.8570 C.ar      1 UNK         0.0000 
      9 C9          3.3139   54.9123   17.4781 C.ar      1 UNK         0.0000 
     10 C10         2.9905   51.5669   19.3363 C.3       1 UNK         0.0000 
     11 H11         3.8227   50.9435   19.6808 H         1 UNK         0.0000 
     12 C12         1.8650   51.6043   20.3573 C.3       1 UNK         0.0000 
     13 H13         1.1576   52.3790   20.0406 H         1 UNK         0.0000 
     14 C14         1.3619   50.2212   20.2798 C.3       1 UNK         0.0000 
     15 H15         2.1153   49.4563   20.5119 H         1 UNK         0.0000 
     16 C16         0.4263   50.1879   21.4769 C.2       1 UNK         0.0000 
     17 O17        -0.5735   49.4857   21.6204 O.2       1 UNK         0.0000 
     18 N18         1.0467   51.0020   22.3872 N.am      1 UNK         0.0000 
     19 C19         2.0468   51.7676   21.8499 C.2       1 UNK         0.0000 
     20 O20         2.8387   52.5221   22.4093 O.2       1 UNK         0.0000 
     21 C21         0.6622   51.0759   23.8124 C.3       1 UNK         0.0000 
     22 C22        -0.6479   51.8614   24.0808 C.3       1 UNK         0.0000 
     23 C23        -1.0181   51.9396   25.5752 C.3       1 UNK         0.0000 
     24 C24        -1.0379   50.5548   26.2432 C.3       1 UNK         0.0000 
     25 C25         0.3033   49.8293   26.0579 C.3       1 UNK         0.0000 
     26 C26         0.7080   49.7240   24.5751 C.3       1 UNK         0.0000 
     27 C27         1.0279   50.0147   18.7787 C.3       1 UNK         0.0000 
     28 N28         2.3044   50.7380   18.2066 N.4       1 UNK         0.0000 
     29 C29         1.0306   48.5432   18.2806 C.ar      1 UNK         0.0000 
     30 C30         0.5319   47.5170   19.0953 C.ar      1 UNK         0.0000 
     31 C31         0.5074   46.1992   18.6484 C.ar      1 UNK         0.0000 
     32 C32         0.9834   45.8915   17.3790 C.ar      1 UNK         0.0000 
     33 C33         1.4816   46.8923   16.5522 C.ar      1 UNK         0.0000 
     34 C34         1.4966   48.2108   16.9977 C.ar      1 UNK         0.0000 
     35 C35        -0.2307   50.7502   18.1865 C.2       1 UNK         0.0000 
     36 O36        -0.0854   51.5859   17.2588 O.co2     1 UNK         0.0000 
     37 O37        -1.3412   50.4793   18.6941 O.co2     1 UNK         0.0000 
     38 H38         5.9017   57.5016   19.4232 H         1 UNK         0.0000 
     39 H39         6.9491   56.6986   18.2536 H         1 UNK         0.0000 
     40 H40         6.3497   58.3256   17.9293 H         1 UNK         0.0000 
     41 H41         3.9725   57.1884   15.8670 H         1 UNK         0.0000 
     42 H42         3.1108   57.7856   17.2813 H         1 UNK         0.0000 
     43 H43         4.5481   58.6255   16.7167 H         1 UNK         0.0000 
     44 H44         6.0125   55.0788   19.5320 H         1 UNK         0.0000 
     45 H45         5.1868   52.8952   20.1840 H         1 UNK         0.0000 
     46 H46         1.9386   53.2858   17.3969 H         1 UNK         0.0000 
     47 H47         2.7601   55.4500   16.7242 H         1 UNK         0.0000 
     48 H48         1.4334   51.6738   24.3051 H         1 UNK         0.0000 
     49 H49        -0.5665   52.8725   23.6780 H         1 UNK         0.0000 
     50 H50        -1.4713   51.3772   23.5518 H         1 UNK         0.0000 
     51 H51        -0.2995   52.5765   26.0927 H         1 UNK         0.0000 
     52 H52        -1.9897   52.4230   25.6937 H         1 UNK         0.0000 
     53 H53        -1.2599   50.6527   27.3064 H         1 UNK         0.0000 
     54 H54        -1.8431   49.9504   25.8229 H         1 UNK         0.0000 
     55 H55         1.0786   50.3533   26.6192 H         1 UNK         0.0000 
     56 H56         0.2440   48.8291   26.4900 H         1 UNK         0.0000 
     57 H57         0.0312   49.0085   24.1073 H         1 UNK         0.0000 
     58 H58         1.7072   49.2991   24.4985 H         1 UNK         0.0000 
     59 H59         1.9955   51.3435   17.4557 H         1 UNK         0.0000 
     60 H60         0.1451   47.7289   20.0773 H         1 UNK         0.0000 
     61 H61         0.1186   45.4184   19.2844 H         1 UNK         0.0000 
     62 H62         0.9682   44.8714   17.0299 H         1 UNK         0.0000 
     63 H63         1.8551   46.6529   15.5672 H         1 UNK         0.0000 
     64 H64         1.8806   48.9704   16.3320 H         1 UNK         0.0000 
     65 H65         2.9696   50.0864   17.7914 H         1 UNK         0.0000 
@<TRIPOS>BOND
     1    1    2 1    
     2    1   38 1    
     3    1   39 1    
     4    1   40 1    
     5    2    3 1    
     6    2    4 1    
     7    3   41 1    
     8    3   42 1    
     9    3   43 1    
    10    4    9 ar   
    11    4    5 ar   
    12    5    6 ar   
    13    5   44 1    
    14    6    7 ar   
    15    6   45 1    
    16    7    8 ar   
    17    7   10 1    
    18    8    9 ar   
    19    8   46 1    
    20    9   47 1    
    21   10   11 1    
    22   10   28 1    
    23   10   12 1    
    24   12   13 1    
    25   12   19 1    
    26   12   14 1    
    27   14   15 1    
    28   14   16 1    
    29   14   27 1    
    30   16   17 2    
    31   16   18 am   BACKBONE|DICT|INTERRES
    32   18   19 am   BACKBONE|DICT|INTERRES
    33   18   21 1    
    34   19   20 2    
    35   21   26 1    
    36   21   22 1    
    37   21   48 1    
    38   22   23 1    
    39   22   49 1    
    40   22   50 1    
    41   23   24 1    
    42   23   51 1    
    43   23   52 1    
    44   24   25 1    
    45   24   53 1    
    46   24   54 1    
    47   25   26 1    
    48   25   55 1    
    49   25   56 1    
    50   26   57 1    
    51   26   58 1    
    52   27   28 1    
    53   27   29 1    
    54   27   35 1    
    55   28   59 1    
    56   28   65 1    
    57   29   34 ar   
    58   29   30 ar   
    59   30   31 ar   
    60   30   60 1    
    61   31   32 ar   
    62   31   61 1    
    63   32   33 ar   
    64   32   62 1    
    65   33   34 ar   
    66   33   63 1    
    67   34   64 1    
    68   35   36 2    
    69   35   37 1    
@<TRIPOS>SUBSTRUCTURE
     1 UNK         1 GROUP             0       ****    0 ROOT    
