@<TRIPOS>MOLECULE
ZINC36568497_3626
48   50    1
SMALL
USER_CHARGES


@<TRIPOS>ATOM
      1 C1          4.8907   52.7605   21.7160 C.3       1 UNK         0.0000 
      2 C2          3.4940   52.9266   22.3313 C.ar      1 UNK         0.0000 
      3 C3          2.3797   52.2758   21.7598 C.ar      1 UNK         0.0000 
      4 C4          1.1032   52.4647   22.3117 C.ar      1 UNK         0.0000 
      5 C5          0.9249   53.2724   23.4263 C.ar      1 UNK         0.0000 
      6 C6          2.0201   53.8884   24.0115 C.ar      1 UNK         0.0000 
      7 C7          3.3110   53.6969   23.5004 C.ar      1 UNK         0.0000 
      8 N8          4.4300   54.2591   24.1550 N.pl3     1 UNK         0.0000 
      9 C9          4.7746   54.2457   25.4780 C.2       1 UNK         0.0000 
     10 S10         6.2657   54.8964   25.8606 S.2       1 UNK         0.0000 
     11 N11         3.8494   53.6971   26.3312 N.am      1 UNK         0.0000 
     12 C12         3.8748   53.3214   27.6349 C.2       1 UNK         0.0000 
     13 O13         4.8849   53.2999   28.3416 O.2       1 UNK         0.0000 
     14 C14         2.5234   52.8858   28.1864 C.ar      1 UNK         0.0000 
     15 C15         1.5108   52.4176   27.3247 C.ar      1 UNK         0.0000 
     16 C16         0.2607   52.0387   27.8073 C.ar      1 UNK         0.0000 
     17 C17        -0.0067   52.0972   29.1714 C.ar      1 UNK         0.0000 
     18 C18         0.9821   52.5357   30.0456 C.ar      1 UNK         0.0000 
     19 C19         2.2424   52.9185   29.5693 C.ar      1 UNK         0.0000 
     20 O20         3.1735   53.3446   30.4815 O.3       1 UNK         0.0000 
     21 C21         3.7449   52.3080   31.2708 C.3       1 UNK         0.0000 
     22 Br22       -1.0796   51.4504   26.5949 Br        1 UNK         0.0000 
     23 N23         2.5664   51.4469   20.6366 N.am      1 UNK         0.0000 
     24 C24         1.8983   50.3180   20.3274 C.2       1 UNK         0.0000 
     25 O25         1.0302   49.8025   21.0386 O.2       1 UNK         0.0000 
     26 C26         2.3251   49.6661   19.0045 C.3       1 UNK         0.0000 
     27 C27         2.3495   48.1538   18.9818 C.3       1 UNK         0.0000 
     28 C28         1.2567   48.9024   18.2435 C.3       1 UNK         0.0000 
     29 H29         5.5398   53.6091   21.9273 H         1 UNK         0.0000 
     30 H30         5.3687   51.8529   22.0815 H         1 UNK         0.0000 
     31 H31         4.8476   52.7098   20.6272 H         1 UNK         0.0000 
     32 H32         0.2357   51.9927   21.8749 H         1 UNK         0.0000 
     33 H33        -0.0617   53.4122   23.8409 H         1 UNK         0.0000 
     34 H34         1.8461   54.4976   24.8825 H         1 UNK         0.0000 
     35 H35         5.1393   54.6131   23.5313 H         1 UNK         0.0000 
     36 H36         2.9421   53.5809   25.9087 H         1 UNK         0.0000 
     37 H37         1.6753   52.3241   26.2617 H         1 UNK         0.0000 
     38 H38        -0.9705   51.7888   29.5526 H         1 UNK         0.0000 
     39 H39         0.7705   52.5723   31.1053 H         1 UNK         0.0000 
     40 H40         4.3100   52.7508   32.0851 H         1 UNK         0.0000 
     41 H41         2.9954   51.6634   31.7281 H         1 UNK         0.0000 
     42 H42         4.4288   51.6971   30.6813 H         1 UNK         0.0000 
     43 H43         3.3514   51.6766   20.0444 H         1 UNK         0.0000 
     44 H44         3.0901   50.2047   18.4390 H         1 UNK         0.0000 
     45 H45         2.1059   47.5963   19.8895 H         1 UNK         0.0000 
     46 H46         3.1521   47.6857   18.4101 H         1 UNK         0.0000 
     47 H47         1.2880   48.9361   17.1527 H         1 UNK         0.0000 
     48 H48         0.2342   48.8677   18.6271 H         1 UNK         0.0000 
@<TRIPOS>BOND
     1    1    2 1    
     2    1   29 1    
     3    1   30 1    
     4    1   31 1    
     5    2    7 ar   
     6    2    3 ar   
     7    3    4 ar   
     8    3   23 1    
     9    4    5 ar   
    10    4   32 1    
    11    5    6 ar   
    12    5   33 1    
    13    6    7 ar   
    14    6   34 1    
    15    7    8 1    
    16    8    9 1    
    17    8   35 1    
    18    9   10 2    
    19    9   11 am   BACKBONE|DICT|INTERRES
    20   11   12 am   BACKBONE|DICT|INTERRES
    21   11   36 1    
    22   12   13 2    
    23   12   14 1    
    24   14   19 ar   
    25   14   15 ar   
    26   15   16 ar   
    27   15   37 1    
    28   16   17 ar   
    29   16   22 1    
    30   17   18 ar   
    31   17   38 1    
    32   18   19 ar   
    33   18   39 1    
    34   19   20 1    
    35   20   21 1    
    36   21   40 1    
    37   21   41 1    
    38   21   42 1    
    39   23   24 am   BACKBONE|DICT|INTERRES
    40   23   43 1    
    41   24   25 2    
    42   24   26 1    
    43   26   28 1    
    44   26   27 1    
    45   26   44 1    
    46   27   28 1    
    47   27   45 1    
    48   27   46 1    
    49   28   47 1    
    50   28   48 1    
@<TRIPOS>SUBSTRUCTURE
     1 UNK         1 GROUP             0       ****    0 ROOT    
