@<TRIPOS>MOLECULE
ZINC01631335_1824
32   34    1
SMALL
USER_CHARGES


@<TRIPOS>ATOM
      1 C1          6.2110   55.0680   20.1054 C.3       1 UNK         0.0000 
      2 S2          7.1046   55.2976   21.6711 S.3       1 UNK         0.0000 
      3 C3          6.0550   54.7321   22.9711 C.ar      1 UNK         0.0000 
      4 N4          4.8053   54.3284   22.6331 N.ar      1 UNK         0.0000 
      5 C5          3.9701   54.0321   23.6495 C.ar      1 UNK         0.0000 
      6 C6          4.3620   54.0970   25.0097 C.ar      1 UNK         0.0000 
      7 C7          5.7074   54.5079   25.2388 C.ar      1 UNK         0.0000 
      8 N8          6.5542   54.8317   24.2274 N.ar      1 UNK         0.0000 
      9 N9          6.2036   54.6216   26.4970 N.ar      1 UNK         0.0000 
     10 C10         5.3688   54.3165   27.5181 C.ar      1 UNK         0.0000 
     11 C11         4.0381   53.9010   27.3143 C.ar      1 UNK         0.0000 
     12 N12         3.5344   53.7997   26.0529 N.ar      1 UNK         0.0000 
     13 C13         3.0778   53.5707   28.4161 C.ar      1 UNK         0.0000 
     14 C14         1.7595   54.0464   28.3820 C.ar      1 UNK         0.0000 
     15 C15         0.8625   53.7436   29.4028 C.ar      1 UNK         0.0000 
     16 C16         1.2816   52.9690   30.4783 C.ar      1 UNK         0.0000 
     17 C17         2.5880   52.4933   30.5349 C.ar      1 UNK         0.0000 
     18 C18         3.4768   52.7805   29.5024 C.ar      1 UNK         0.0000 
     19 N19         5.8975   54.4938   28.7871 N.pl3     1 UNK         0.0000 
     20 N20         2.6885   53.6574   23.2626 N.pl3     1 UNK         0.0000 
     21 H21         6.8487   55.3447   19.2655 H         1 UNK         0.0000 
     22 H22         5.9070   54.0289   19.9812 H         1 UNK         0.0000 
     23 H23         5.3189   55.6956   20.0816 H         1 UNK         0.0000 
     24 H24         1.4256   54.6579   27.5562 H         1 UNK         0.0000 
     25 H25        -0.1533   54.1067   29.3585 H         1 UNK         0.0000 
     26 H26         0.5877   52.7294   31.2723 H         1 UNK         0.0000 
     27 H27         2.9086   51.8984   31.3778 H         1 UNK         0.0000 
     28 H28         4.4804   52.3812   29.5469 H         1 UNK         0.0000 
     29 H29         5.2756   54.3994   29.5733 H         1 UNK         0.0000 
     30 H30         6.7638   55.0208   28.8826 H         1 UNK         0.0000 
     31 H31         2.0122   53.3976   23.9648 H         1 UNK         0.0000 
     32 H32         2.4769   53.6377   22.2757 H         1 UNK         0.0000 
@<TRIPOS>BOND
     1    1    2 1    
     2    1   21 1    
     3    1   22 1    
     4    1   23 1    
     5    2    3 1    
     6    3    8 ar   
     7    3    4 ar   
     8    4    5 ar   
     9    5    6 ar   
    10    5   20 1    
    11    6   12 ar   
    12    6    7 ar   
    13    7    8 ar   
    14    7    9 ar   
    15    9   10 ar   
    16   10   11 ar   
    17   10   19 1    
    18   11   12 ar   
    19   11   13 1    
    20   13   18 ar   
    21   13   14 ar   
    22   14   15 ar   
    23   14   24 1    
    24   15   16 ar   
    25   15   25 1    
    26   16   17 ar   
    27   16   26 1    
    28   17   18 ar   
    29   17   27 1    
    30   18   28 1    
    31   19   29 1    
    32   19   30 1    
    33   20   31 1    
    34   20   32 1    
@<TRIPOS>SUBSTRUCTURE
     1 UNK         1 GROUP             0       ****    0 ROOT    
