@<TRIPOS>MOLECULE
ZINC14467932_3918
53   56    1
SMALL
USER_CHARGES


@<TRIPOS>ATOM
      1 C1          7.7525   55.0980   17.9192 C.3       1 UNK         0.0000 
      2 C2          8.5894   56.1029   18.7374 C.3       1 UNK         0.0000 
      3 C3          8.2240   57.5619   18.3961 C.3       1 UNK         0.0000 
      4 C4          8.6049   55.7864   20.2609 C.3       1 UNK         0.0000 
      5 C5          7.2502   55.7035   20.9904 C.2       1 UNK         0.0000 
      6 O6          6.2960   56.3673   20.5887 O.2       1 UNK         0.0000 
      7 N7          7.2158   54.9329   22.0984 N.am      1 UNK         0.0000 
      8 C8          6.0974   54.6138   22.8874 C.ar      1 UNK         0.0000 
      9 C9          4.8063   54.4963   22.3572 C.ar      1 UNK         0.0000 
     10 C10         3.7266   54.2663   23.2037 C.ar      1 UNK         0.0000 
     11 C11         3.9309   54.0968   24.5731 C.ar      1 UNK         0.0000 
     12 C12         5.2251   54.1145   25.1183 C.ar      1 UNK         0.0000 
     13 C13         6.2971   54.3897   24.2541 C.ar      1 UNK         0.0000 
     14 C14         5.4614   53.7562   26.5844 C.3       1 UNK         0.0000 
     15 H15         6.1980   52.9502   26.5823 H         1 UNK         0.0000 
     16 C16         5.9740   54.8651   27.4713 C.2       1 UNK         0.0000 
     17 C17         5.5038   54.7105   28.7208 C.2       1 UNK         0.0000 
     18 C18         4.5577   53.5461   28.8133 C.3       1 UNK         0.0000 
     19 C19         4.2038   53.2904   27.3455 C.3       1 UNK         0.0000 
     20 H20         4.0890   52.2169   27.2801 H         1 UNK         0.0000 
     21 C21         2.8682   53.9340   26.8448 C.3       1 UNK         0.0000 
     22 H22         2.8390   54.9808   27.1496 H         1 UNK         0.0000 
     23 N23         2.7981   53.9218   25.3775 N.pl3     1 UNK         0.0000 
     24 C24         1.6506   53.2314   27.4676 C.ar      1 UNK         0.0000 
     25 C25         1.0999   52.1160   26.8181 C.ar      1 UNK         0.0000 
     26 C26         0.0420   51.4076   27.3688 C.ar      1 UNK         0.0000 
     27 C27        -0.4490   51.7625   28.6229 C.ar      1 UNK         0.0000 
     28 C28         0.0830   52.8720   29.2852 C.ar      1 UNK         0.0000 
     29 C29         1.0887   53.6425   28.6878 C.ar      1 UNK         0.0000 
     30 O30         1.5088   54.7927   29.3117 O.3       1 UNK         0.0000 
     31 Cl31       -0.4890   53.2684   30.8630 Cl        1 UNK         0.0000 
     32 Cl32       -0.6347   50.0968   26.4759 Cl        1 UNK         0.0000 
     33 H33         6.6875   55.1823   18.1384 H         1 UNK         0.0000 
     34 H34         8.0532   54.0706   18.1286 H         1 UNK         0.0000 
     35 H35         7.8770   55.2602   16.8479 H         1 UNK         0.0000 
     36 H36         9.6208   55.9722   18.4024 H         1 UNK         0.0000 
     37 H37         7.2050   57.8165   18.6874 H         1 UNK         0.0000 
     38 H38         8.8996   58.2651   18.8819 H         1 UNK         0.0000 
     39 H39         8.3024   57.7414   17.3231 H         1 UNK         0.0000 
     40 H40         9.1287   54.8533   20.3893 H         1 UNK         0.0000 
     41 H41         9.2285   56.4963   20.7911 H         1 UNK         0.0000 
     42 H42         8.1090   54.6738   22.4942 H         1 UNK         0.0000 
     43 H43         4.6213   54.6262   21.3006 H         1 UNK         0.0000 
     44 H44         2.7312   54.2290   22.7848 H         1 UNK         0.0000 
     45 H45         7.2995   54.4254   24.6563 H         1 UNK         0.0000 
     46 H46         6.6994   55.5962   27.1473 H         1 UNK         0.0000 
     47 H47         5.7566   55.3055   29.5846 H         1 UNK         0.0000 
     48 H48         3.7018   53.7684   29.4389 H         1 UNK         0.0000 
     49 H49         5.0467   52.6812   29.2645 H         1 UNK         0.0000 
     50 H50         1.8787   54.0913   24.9976 H         1 UNK         0.0000 
     51 H51         1.4898   51.7860   25.8666 H         1 UNK         0.0000 
     52 H52        -1.2399   51.1785   29.0748 H         1 UNK         0.0000 
     53 H53         0.9931   54.9734   30.1018 H         1 UNK         0.0000 
@<TRIPOS>BOND
     1    1    2 1    
     2    1   33 1    
     3    1   34 1    
     4    1   35 1    
     5    2    3 1    
     6    2    4 1    
     7    2   36 1    
     8    3   37 1    
     9    3   38 1    
    10    3   39 1    
    11    4    5 1    
    12    4   40 1    
    13    4   41 1    
    14    5    6 2    
    15    5    7 am   BACKBONE|DICT|INTERRES
    16    7    8 1    
    17    7   42 1    
    18    8   13 ar   
    19    8    9 ar   
    20    9   10 ar   
    21    9   43 1    
    22   10   11 ar   
    23   10   44 1    
    24   11   23 1    
    25   11   12 ar   
    26   12   13 ar   
    27   12   14 1    
    28   13   45 1    
    29   14   15 1    
    30   14   19 1    
    31   14   16 1    
    32   16   17 2    
    33   16   46 1    
    34   17   18 1    
    35   17   47 1    
    36   18   19 1    
    37   18   48 1    
    38   18   49 1    
    39   19   20 1    
    40   19   21 1    
    41   21   22 1    
    42   21   23 1    
    43   21   24 1    
    44   23   50 1    
    45   24   29 ar   
    46   24   25 ar   
    47   25   26 ar   
    48   25   51 1    
    49   26   27 ar   
    50   26   32 1    
    51   27   28 ar   
    52   27   52 1    
    53   28   29 ar   
    54   28   31 1    
    55   29   30 1    
    56   30   53 1    
@<TRIPOS>SUBSTRUCTURE
     1 UNK         1 GROUP             0       ****    0 ROOT    
