@<TRIPOS>MOLECULE
ZINC44855391_5258
62   65    1
SMALL
USER_CHARGES


@<TRIPOS>ATOM
      1 C1         -5.3643   46.3489   20.2375 C.3       1 UNK         0.0000 
      2 C2         -4.2462   46.7408   21.1845 C.ar      1 UNK         0.0000 
      3 C3         -2.9287   46.3786   20.9028 C.ar      1 UNK         0.0000 
      4 C4         -1.9040   46.7298   21.7795 C.ar      1 UNK         0.0000 
      5 C5         -2.1536   47.4524   22.9524 C.ar      1 UNK         0.0000 
      6 C6         -3.4961   47.7899   23.2311 C.ar      1 UNK         0.0000 
      7 C7         -4.5267   47.4369   22.3602 C.ar      1 UNK         0.0000 
      8 O8         -3.9112   48.3761   24.4136 O.3       1 UNK         0.0000 
      9 C9         -2.9252   49.0841   25.1715 C.3       1 UNK         0.0000 
     10 C10        -1.6737   48.1663   25.2880 C.3       1 UNK         0.0000 
     11 C11        -1.0255   47.8483   23.9234 C.3       1 UNK         0.0000 
     12 H12        -0.3874   46.9771   24.0826 H         1 UNK         0.0000 
     13 N13        -0.0555   48.8968   23.5610 N.am      1 UNK         0.0000 
     14 C14         0.2372   49.4879   22.3856 C.2       1 UNK         0.0000 
     15 O15        -0.2951   49.2031   21.3139 O.2       1 UNK         0.0000 
     16 C16         1.2864   50.6218   22.4629 C.3       1 UNK         0.0000 
     17 C17         0.5257   51.9461   22.6699 C.3       1 UNK         0.0000 
     18 C18         1.5663   53.0172   23.0000 C.3       1 UNK         0.0000 
     19 N19         2.5584   53.1629   21.8178 N.4       1 UNK         0.0000 
     20 C20         3.2191   51.8327   21.3567 C.3       1 UNK         0.0000 
     21 C21         2.1468   50.7257   21.1788 C.3       1 UNK         0.0000 
     22 C22         3.5835   54.3057   22.0610 C.3       1 UNK         0.0000 
     23 C23         4.4472   54.2345   23.3237 C.ar      1 UNK         0.0000 
     24 C24         3.8802   54.4966   24.5765 C.ar      1 UNK         0.0000 
     25 C25         4.6719   54.5197   25.7176 C.ar      1 UNK         0.0000 
     26 C26         6.0427   54.3186   25.6083 C.ar      1 UNK         0.0000 
     27 C27         6.6277   54.0966   24.3625 C.ar      1 UNK         0.0000 
     28 C28         5.8291   54.0450   23.2210 C.ar      1 UNK         0.0000 
     29 Br29        7.1044   54.3512   27.1852 Br        1 UNK         0.0000 
     30 C30        -2.6384   50.4425   24.4940 C.3       1 UNK         0.0000 
     31 C31        -3.5565   49.2522   26.5640 C.3       1 UNK         0.0000 
     32 H32        -6.3067   46.2233   20.7717 H         1 UNK         0.0000 
     33 H33        -5.4951   47.1092   19.4684 H         1 UNK         0.0000 
     34 H34        -5.1489   45.3971   19.7509 H         1 UNK         0.0000 
     35 H35        -2.6940   45.8324   20.0020 H         1 UNK         0.0000 
     36 H36        -0.8953   46.4438   21.5345 H         1 UNK         0.0000 
     37 H37        -5.5450   47.6960   22.6100 H         1 UNK         0.0000 
     38 H38        -0.9532   48.5915   25.9899 H         1 UNK         0.0000 
     39 H39        -1.9938   47.2206   25.7328 H         1 UNK         0.0000 
     40 H40         0.5158   49.1863   24.3424 H         1 UNK         0.0000 
     41 H41         1.9072   50.3703   23.3266 H         1 UNK         0.0000 
     42 H42        -0.0157   52.2670   21.7772 H         1 UNK         0.0000 
     43 H43        -0.1332   51.9086   23.5388 H         1 UNK         0.0000 
     44 H44         2.1311   52.7357   23.8886 H         1 UNK         0.0000 
     45 H45         1.0928   53.9905   23.1339 H         1 UNK         0.0000 
     46 H46         3.9881   51.5721   22.0817 H         1 UNK         0.0000 
     47 H47         3.6967   52.0424   20.3975 H         1 UNK         0.0000 
     48 H48         2.6959   49.7998   20.9938 H         1 UNK         0.0000 
     49 H49         1.5484   51.0028   20.3074 H         1 UNK         0.0000 
     50 H50         4.1902   54.3332   21.1541 H         1 UNK         0.0000 
     51 H51         2.9902   55.2258   22.0835 H         1 UNK         0.0000 
     52 H52         2.8290   54.7165   24.6788 H         1 UNK         0.0000 
     53 H53         4.2289   54.7150   26.6835 H         1 UNK         0.0000 
     54 H54         7.6943   53.9525   24.2812 H         1 UNK         0.0000 
     55 H55         6.2949   53.8842   22.2591 H         1 UNK         0.0000 
     56 H56        -1.8373   50.9719   25.0053 H         1 UNK         0.0000 
     57 H57        -2.3608   50.3348   23.4466 H         1 UNK         0.0000 
     58 H58        -3.5227   51.0799   24.5144 H         1 UNK         0.0000 
     59 H59        -2.8960   49.8009   27.2375 H         1 UNK         0.0000 
     60 H60        -4.5014   49.7933   26.5087 H         1 UNK         0.0000 
     61 H61        -3.7661   48.2871   27.0272 H         1 UNK         0.0000 
     62 H62         1.9869   53.4679   21.0357 H         1 UNK         0.0000 
@<TRIPOS>BOND
     1    1    2 1    
     2    1   32 1    
     3    1   33 1    
     4    1   34 1    
     5    2    7 ar   
     6    2    3 ar   
     7    3    4 ar   
     8    3   35 1    
     9    4    5 ar   
    10    4   36 1    
    11    5   11 1    
    12    5    6 ar   
    13    6    7 ar   
    14    6    8 1    
    15    7   37 1    
    16    8    9 1    
    17    9   10 1    
    18    9   30 1    
    19    9   31 1    
    20   10   11 1    
    21   10   38 1    
    22   10   39 1    
    23   11   12 1    
    24   11   13 1    
    25   13   14 am   BACKBONE|DICT|INTERRES
    26   13   40 1    
    27   14   15 2    
    28   14   16 1    
    29   16   21 1    
    30   16   17 1    
    31   16   41 1    
    32   17   18 1    
    33   17   42 1    
    34   17   43 1    
    35   18   19 1    
    36   18   44 1    
    37   18   45 1    
    38   19   20 1    
    39   19   22 1    
    40   19   62 1    
    41   20   21 1    
    42   20   46 1    
    43   20   47 1    
    44   21   48 1    
    45   21   49 1    
    46   22   23 1    
    47   22   50 1    
    48   22   51 1    
    49   23   28 ar   
    50   23   24 ar   
    51   24   25 ar   
    52   24   52 1    
    53   25   26 ar   
    54   25   53 1    
    55   26   27 ar   
    56   26   29 1    
    57   27   28 ar   
    58   27   54 1    
    59   28   55 1    
    60   30   56 1    
    61   30   57 1    
    62   30   58 1    
    63   31   59 1    
    64   31   60 1    
    65   31   61 1    
@<TRIPOS>SUBSTRUCTURE
     1 UNK         1 GROUP             0       ****    0 ROOT    
