ZINC20720968_194
                    3D
 Schrodinger Suite 2024-2.
 49 52  0  0  1  0            999 V2000
    4.9581   53.5889   28.0704 C   0  0  0  0  0  0
    4.8036   53.7767   26.6696 O   0  0  0  0  0  0
    5.7114   54.4916   25.9626 C   0  0  0  0  0  0
    6.7033   55.0187   26.4838 O   0  0  0  0  0  0
    5.4728   54.4883   24.4698 C   0  0  0  0  0  0
    6.5733   54.8943   23.6901 C   0  0  0  0  0  0
    6.5272   54.8978   22.3014 C   0  0  0  0  0  0
    5.3756   54.4886   21.6483 C   0  0  0  0  0  0
    4.2686   54.0876   22.3873 C   0  0  0  0  0  0
    4.2751   54.0972   23.7974 C   0  0  0  0  0  0
    3.1042   53.7017   24.5059 N   0  0  0  0  0  0
    1.8110   53.8124   24.0951 C   0  0  0  0  0  0
    1.5045   54.4967   23.1193 O   0  0  0  0  0  0
    0.8456   53.1780   24.8296 N   0  0  0  0  0  0
   -0.5689   53.2430   24.3634 C   0  0  0  0  0  0
   -0.9147   51.9478   23.5772 C   0  0  0  0  0  0
   -0.5343   50.7901   24.4751 C   0  0  0  0  0  0
    0.3143   50.9214   25.5735 C   0  0  0  0  0  0
    0.3534   49.6807   26.1918 N   0  3  0  0  0  0
   -0.5179   48.8263   25.5583 C   0  0  0  0  0  0
   -1.0792   49.5177   24.5072 N   0  0  0  0  0  0
   -1.7838   49.1671   23.8753 H   0  0  0  0  0  0
    1.0868   52.2099   25.9414 C   0  0  2  0  0  0
    2.1577   52.0437   25.9467 H   0  0  0  0  0  0
    0.8630   52.7589   27.3632 C   0  0  0  0  0  0
    1.5097   53.9426   27.7412 C   0  0  0  0  0  0
    1.3473   54.4613   29.0216 C   0  0  0  0  0  0
    0.5443   53.7891   29.9383 C   0  0  0  0  0  0
   -0.0969   52.6065   29.5877 C   0  0  0  0  0  0
    0.0489   52.1006   28.3001 C   0  0  0  0  0  0
    0.3044   54.4961   31.6833 Br  0  0  0  0  0  0
    4.1456   52.9699   28.4541 H   0  0  0  0  0  0
    5.9009   53.0869   28.2966 H   0  0  0  0  0  0
    4.9403   54.5454   28.5975 H   0  0  0  0  0  0
    7.5036   55.2019   24.1472 H   0  0  0  0  0  0
    7.3941   55.2047   21.7365 H   0  0  0  0  0  0
    5.3364   54.4771   20.5684 H   0  0  0  0  0  0
    3.4032   53.7607   21.8295 H   0  0  0  0  0  0
    3.2782   53.3056   25.4183 H   0  0  0  0  0  0
   -1.1994   53.2966   25.2539 H   0  0  0  0  0  0
   -0.8027   54.1730   23.8458 H   0  0  0  0  0  0
   -1.9724   51.9282   23.3150 H   0  0  0  0  0  0
   -0.3648   51.9204   22.6353 H   0  0  0  0  0  0
   -0.7529   47.8190   25.8799 H   0  0  0  0  0  0
    2.1380   54.4725   27.0421 H   0  0  0  0  0  0
    1.8370   55.3838   29.2990 H   0  0  0  0  0  0
   -0.7174   52.0905   30.3084 H   0  0  0  0  0  0
   -0.4857   51.1938   28.0619 H   0  0  0  0  0  0
    0.8743   49.4526   27.0274 H   0  0  0  0  0  0
  1  2  1  0  0  0
  1 32  1  0  0  0
  1 33  1  0  0  0
  1 34  1  0  0  0
  2  3  1  0  0  0
  3  4  2  0  0  0
  3  5  1  0  0  0
  5 10  2  0  0  0
  5  6  1  0  0  0
  6  7  2  0  0  0
  6 35  1  0  0  0
  7  8  1  0  0  0
  7 36  1  0  0  0
  8  9  2  0  0  0
  8 37  1  0  0  0
  9 10  1  0  0  0
  9 38  1  0  0  0
 10 11  1  0  0  0
 11 12  1  0  0  0
 11 39  1  0  0  0
 12 13  2  0  0  0
 12 14  1  0  0  0
 14 23  1  0  0  0
 14 15  1  0  0  0
 15 16  1  0  0  0
 15 40  1  0  0  0
 15 41  1  0  0  0
 16 17  1  0  0  0
 16 42  1  0  0  0
 16 43  1  0  0  0
 17 21  1  0  0  0
 17 18  2  0  0  0
 18 19  1  0  0  0
 18 23  1  0  0  0
 19 20  2  0  0  0
 19 49  1  0  0  0
 20 21  1  0  0  0
 20 44  1  0  0  0
 21 22  1  0  0  0
 23 24  1  0  0  0
 23 25  1  0  0  0
 25 30  2  0  0  0
 25 26  1  0  0  0
 26 27  2  0  0  0
 26 45  1  0  0  0
 27 28  1  0  0  0
 27 46  1  0  0  0
 28 29  2  0  0  0
 28 31  1  0  0  0
 29 30  1  0  0  0
 29 47  1  0  0  0
 30 48  1  0  0  0
M  CHG  1  19   1
M  END
> <i_i_glide_confnum>
214

> <i_i_glide_lignum>
195

> <i_i_glide_posenum>
331

> <i_i_glide_rotatable_bonds>
6

> <i_m_Source_File_Index>
5450

> <b_m_subgroup_collapsed>
0

> <r_i_docking_score>
-7.33992

> <r_i_glide_ecoul>
-3.93851

> <r_i_glide_eff_state_penalty>
0

> <r_i_glide_einternal>
8.7008

> <r_i_glide_emodel>
-66.35

> <r_i_glide_energy>
-47.7424

> <r_i_glide_erotb>
0.482564

> <r_i_glide_esite>
-0.193036

> <r_i_glide_evdw>
-43.8039

> <r_i_glide_gscore>
-7.33992

> <r_i_glide_hbond>
-0.274391

> <r_i_glide_ligand_efficiency>
-0.253101

> <r_i_glide_ligand_efficiency_ln>
-1.68066

> <r_i_glide_ligand_efficiency_sa>
-0.777606

> <r_i_glide_lipo>
-2.77658

> <r_i_glide_metal>
0

> <r_i_glide_rewards>
-1.7975

> <s_i_glide_gridfile>
wee1_glide-grid

> <s_m_Source_File>
wee1_decoys_glide_SP.sdf

> <s_m_Source_Path>
/Users/zhangxujun/Desktop

> <s_m_entry_id>
5725

> <s_m_entry_name>
wee1_decoys_glide_SP.5450

> <s_m_subgroup_title>
wee1_decoys_glide_SP

> <s_m_subgroupid>
wee1_decoys_glide_SP


$$$$
