ZINC59452504_3846
                    3D
 Schrodinger Suite 2024-2.
 48 49  0  0  1  0            999 V2000
    3.4024   52.0666   21.1440 C   0  0  0  0  0  0
    4.1005   53.0518   20.2023 C   0  0  0  0  0  0
    3.9918   52.8967   18.8658 C   0  0  0  0  0  0
    4.6978   53.8031   17.8471 C   0  0  0  0  0  0
    5.5578   54.7342   18.6181 N   0  0  0  0  0  0
    5.6588   54.9007   19.9714 C   0  0  0  0  0  0
    6.7043   56.0976   20.4813 S   0  0  0  0  0  0
    4.8795   54.0583   20.7545 N   0  0  0  0  0  0
    4.5682   54.4138   22.0916 N   0  0  0  0  0  0
    5.3880   54.0486   23.1077 C   0  0  0  0  0  0
    6.5579   53.6966   22.9519 O   0  0  0  0  0  0
    4.8184   54.1519   24.5050 C   0  0  0  0  0  0
    5.6848   54.2131   25.6040 C   0  0  0  0  0  0
    5.1882   54.1862   26.9042 C   0  0  0  0  0  0
    3.8078   54.0968   27.1417 C   0  0  0  0  0  0
    2.9458   54.0902   26.0380 C   0  0  0  0  0  0
    3.4377   54.1103   24.7374 C   0  0  0  0  0  0
    3.2170   53.9796   28.5706 C   0  0  0  0  0  0
    2.4377   55.2668   28.9200 C   0  0  0  0  0  0
    4.3044   53.7648   29.6523 C   0  0  0  0  0  0
    2.2579   52.7642   28.6584 C   0  0  0  0  0  0
    3.5966   54.5718   17.0955 C   0  0  0  0  0  0
    5.5597   52.8998   16.9422 C   0  0  0  0  0  0
    2.9165   51.2603   20.5926 H   0  0  0  0  0  0
    4.1252   51.6045   21.8144 H   0  0  0  0  0  0
    2.6350   52.5650   21.7366 H   0  0  0  0  0  0
    3.4002   52.0743   18.4864 H   0  0  0  0  0  0
    6.1433   55.3724   18.0984 H   0  0  0  0  0  0
    3.5746   54.5164   22.2204 H   0  0  0  0  0  0
    6.7556   54.2432   25.4589 H   0  0  0  0  0  0
    5.9012   54.2084   27.7128 H   0  0  0  0  0  0
    1.8763   54.0408   26.1813 H   0  0  0  0  0  0
    2.7284   54.0569   23.9250 H   0  0  0  0  0  0
    1.9710   55.2039   29.9042 H   0  0  0  0  0  0
    1.6427   55.4744   28.2014 H   0  0  0  0  0  0
    3.0998   56.1330   28.9354 H   0  0  0  0  0  0
    4.9045   52.8786   29.4373 H   0  0  0  0  0  0
    4.9808   54.6193   29.7234 H   0  0  0  0  0  0
    3.8751   53.6178   30.6425 H   0  0  0  0  0  0
    2.7571   51.8385   28.3665 H   0  0  0  0  0  0
    1.8798   52.6209   29.6717 H   0  0  0  0  0  0
    1.3814   52.8756   28.0198 H   0  0  0  0  0  0
    2.9371   53.8967   16.5472 H   0  0  0  0  0  0
    2.9783   55.1603   17.7775 H   0  0  0  0  0  0
    4.0268   55.2637   16.3701 H   0  0  0  0  0  0
    4.9758   52.1000   16.4819 H   0  0  0  0  0  0
    6.0165   53.4757   16.1364 H   0  0  0  0  0  0
    6.3762   52.4425   17.5034 H   0  0  0  0  0  0
  1  2  1  0  0  0
  1 24  1  0  0  0
  1 25  1  0  0  0
  1 26  1  0  0  0
  2  8  1  0  0  0
  2  3  2  0  0  0
  3  4  1  0  0  0
  3 27  1  0  0  0
  4  5  1  0  0  0
  4 22  1  0  0  0
  4 23  1  0  0  0
  5  6  1  0  0  0
  5 28  1  0  0  0
  6  7  2  0  0  0
  6  8  1  0  0  0
  8  9  1  0  0  0
  9 10  1  0  0  0
  9 29  1  0  0  0
 10 11  2  0  0  0
 10 12  1  0  0  0
 12 17  2  0  0  0
 12 13  1  0  0  0
 13 14  2  0  0  0
 13 30  1  0  0  0
 14 15  1  0  0  0
 14 31  1  0  0  0
 15 16  2  0  0  0
 15 18  1  0  0  0
 16 17  1  0  0  0
 16 32  1  0  0  0
 17 33  1  0  0  0
 18 19  1  0  0  0
 18 20  1  0  0  0
 18 21  1  0  0  0
 19 34  1  0  0  0
 19 35  1  0  0  0
 19 36  1  0  0  0
 20 37  1  0  0  0
 20 38  1  0  0  0
 20 39  1  0  0  0
 21 40  1  0  0  0
 21 41  1  0  0  0
 21 42  1  0  0  0
 22 43  1  0  0  0
 22 44  1  0  0  0
 22 45  1  0  0  0
 23 46  1  0  0  0
 23 47  1  0  0  0
 23 48  1  0  0  0
M  END
> <i_i_glide_confnum>
4

> <i_i_glide_lignum>
3847

> <i_i_glide_posenum>
90

> <i_i_glide_rotatable_bonds>
4

> <i_m_Source_File_Index>
3615

> <b_m_subgroup_collapsed>
0

> <r_i_docking_score>
-5.77304

> <r_i_glide_ecoul>
-1.48168

> <r_i_glide_eff_state_penalty>
0

> <r_i_glide_einternal>
3.76836

> <r_i_glide_emodel>
-48.7345

> <r_i_glide_energy>
-37.7475

> <r_i_glide_erotb>
0.513898

> <r_i_glide_esite>
0

> <r_i_glide_evdw>
-36.2658

> <r_i_glide_gscore>
-5.77304

> <r_i_glide_hbond>
0

> <r_i_glide_ligand_efficiency>
-0.251002

> <r_i_glide_ligand_efficiency_ln>
-1.39597

> <r_i_glide_ligand_efficiency_sa>
-0.713816

> <r_i_glide_lipo>
-2.24737

> <r_i_glide_metal>
0

> <r_i_glide_rewards>
-2.00402

> <s_i_glide_gridfile>
wee1_glide-grid

> <s_m_Source_File>
wee1_decoys_glide_SP.sdf

> <s_m_Source_Path>
/Users/zhangxujun/Desktop

> <s_m_entry_id>
3890

> <s_m_entry_name>
wee1_decoys_glide_SP.3615

> <s_m_subgroup_title>
wee1_decoys_glide_SP

> <s_m_subgroupid>
wee1_decoys_glide_SP


$$$$
