@<TRIPOS>MOLECULE
ZINC66815062_1508
42   44    1
SMALL
USER_CHARGES


@<TRIPOS>ATOM
      1 C1          4.4701   53.5585   28.4720 C.ar      1 UNK         0.0000 
      2 C2          3.3675   53.4492   27.6221 C.ar      1 UNK         0.0000 
      3 C3          3.4662   53.8123   26.2712 C.ar      1 UNK         0.0000 
      4 C4          4.6922   54.3068   25.7980 C.ar      1 UNK         0.0000 
      5 C5          5.7939   54.4177   26.6469 C.ar      1 UNK         0.0000 
      6 C6          5.6834   54.0429   27.9843 C.ar      1 UNK         0.0000 
      7 F7          6.9673   54.8967   26.1741 F         1 UNK         0.0000 
      8 C8          2.2340   53.7328   25.3565 C.3       1 UNK         0.0000 
      9 H9          1.5445   54.4967   25.6977 H         1 UNK         0.0000 
     10 C10         1.5044   52.3794   25.3625 C.3       1 UNK         0.0000 
     11 N11         0.2635   52.4244   24.5860 N.pl3     1 UNK         0.0000 
     12 C12         0.6238   52.7297   23.1929 C.3       1 UNK         0.0000 
     13 C13         1.5044   54.0034   23.0915 C.3       1 UNK         0.0000 
     14 O14         2.6026   53.9826   23.9986 O.3       1 UNK         0.0000 
     15 C15        -0.7767   51.5730   24.9397 C.ar      1 UNK         0.0000 
     16 C16        -1.8281   52.2311   25.5889 C.ar      1 UNK         0.0000 
     17 C17        -2.9365   51.5518   26.0745 C.ar      1 UNK         0.0000 
     18 C18        -3.0133   50.1765   25.9121 C.ar      1 UNK         0.0000 
     19 C19        -1.9874   49.4967   25.2640 C.ar      1 UNK         0.0000 
     20 C20        -0.8458   50.1597   24.7764 C.ar      1 UNK         0.0000 
     21 N21         0.2135   49.3170   24.1535 N.pl3     1 UNK         0.0000 
     22 O22         0.0170   48.1057   24.0817 O.co2     1 UNK         0.0000 
     23 O23         1.2389   49.8215   23.7227 O.co2     1 UNK         0.0000 
     24 S24        -4.3964   49.2645   26.5651 S.o2      1 UNK         0.0000 
     25 O25        -4.9787   50.0604   27.6501 O.2       1 UNK         0.0000 
     26 O26        -5.2170   48.8293   25.4313 O.2       1 UNK         0.0000 
     27 N27        -3.6956   47.8436   27.2817 N.pl3     1 UNK         0.0000 
     28 H28         4.3830   53.2721   29.5095 H         1 UNK         0.0000 
     29 H29         2.4326   53.0882   28.0246 H         1 UNK         0.0000 
     30 H30         4.8012   54.6118   24.7679 H         1 UNK         0.0000 
     31 H31         6.5367   54.1356   28.6408 H         1 UNK         0.0000 
     32 H32         2.2007   51.6967   24.8870 H         1 UNK         0.0000 
     33 H33         1.3682   52.0003   26.3757 H         1 UNK         0.0000 
     34 H34         1.1274   51.9021   22.6984 H         1 UNK         0.0000 
     35 H35        -0.2948   52.8967   22.6304 H         1 UNK         0.0000 
     36 H36         1.8989   54.0968   22.0817 H         1 UNK         0.0000 
     37 H37         0.8963   54.8870   23.2836 H         1 UNK         0.0000 
     38 H38        -1.7811   53.2967   25.7395 H         1 UNK         0.0000 
     39 H39        -3.7219   52.0920   26.5838 H         1 UNK         0.0000 
     40 H40        -2.0782   48.4229   25.1719 H         1 UNK         0.0000 
     41 H41        -2.7797   48.0927   27.7360 H         1 UNK         0.0000 
     42 H42        -4.2639   47.5200   28.0654 H         1 UNK         0.0000 
@<TRIPOS>BOND
     1    1    6 ar   
     2    1    2 ar   
     3    1   28 1    
     4    2    3 ar   
     5    2   29 1    
     6    3    4 ar   
     7    3    8 1    
     8    4    5 ar   
     9    4   30 1    
    10    5    6 ar   
    11    5    7 1    
    12    6   31 1    
    13    8    9 1    
    14    8   14 1    
    15    8   10 1    
    16   10   11 1    
    17   10   32 1    
    18   10   33 1    
    19   11   12 1    
    20   11   15 1    
    21   12   13 1    
    22   12   34 1    
    23   12   35 1    
    24   13   14 1    
    25   13   36 1    
    26   13   37 1    
    27   15   20 ar   
    28   15   16 ar   
    29   16   17 ar   
    30   16   38 1    
    31   17   18 ar   
    32   17   39 1    
    33   18   19 ar   
    34   18   24 1    
    35   19   20 ar   
    36   19   40 1    
    37   20   21 1    
    38   21   22 2    
    39   21   23 1    
    40   24   25 2    
    41   24   26 2    
    42   24   27 1    
    43   27   41 1    
    44   27   42 1    
@<TRIPOS>SUBSTRUCTURE
     1 UNK         1 GROUP             0       ****    0 ROOT    
