@<TRIPOS>MOLECULE
ZINC62626121_5923
49   52    1
SMALL
USER_CHARGES


@<TRIPOS>ATOM
      1 C1          2.5822   52.0966   31.5204 C.ar      1 UNK         0.0000 
      2 C2          1.5032   52.8967   31.1683 C.ar      1 UNK         0.0000 
      3 C3          1.8703   53.5568   30.0113 C.ar      1 UNK         0.0000 
      4 N4          3.0815   53.0802   29.5445 N.pl3     1 UNK         0.0000 
      5 C5          3.5187   52.1910   30.5037 C.ar      1 UNK         0.0000 
      6 C6          3.7694   53.4256   28.3493 C.ar      1 UNK         0.0000 
      7 C7          5.1699   53.4839   28.3829 C.ar      1 UNK         0.0000 
      8 C8          5.9067   53.8367   27.2589 C.ar      1 UNK         0.0000 
      9 C9          5.2559   54.1481   26.0666 C.ar      1 UNK         0.0000 
     10 C10         3.8586   54.0943   26.0295 C.ar      1 UNK         0.0000 
     11 C11         3.0937   53.7149   27.1408 C.ar      1 UNK         0.0000 
     12 N12         1.7345   53.7366   26.9854 N.2       1 UNK         0.0000 
     13 S13         0.8562   52.4373   27.0460 S.o2      1 UNK         0.0000 
     14 O14         1.5078   51.2872   27.6809 O.2       1 UNK         0.0000 
     15 O15        -0.5311   52.7176   27.4276 O.2       1 UNK         0.0000 
     16 C16         0.7523   52.0426   25.2877 C.ar      1 UNK         0.0000 
     17 C17         0.7600   53.0629   24.3288 C.ar      1 UNK         0.0000 
     18 C18         0.7047   52.7576   22.9799 C.ar      1 UNK         0.0000 
     19 C19         0.6120   51.4293   22.5746 C.ar      1 UNK         0.0000 
     20 C20         0.5708   50.4015   23.5204 C.ar      1 UNK         0.0000 
     21 C21         0.6304   50.7106   24.8803 C.ar      1 UNK         0.0000 
     22 S22         0.4950   51.0921   20.8257 S.o2      1 UNK         0.0000 
     23 O23         0.8150   49.6752   20.6247 O.2       1 UNK         0.0000 
     24 O24        -0.7929   51.6501   20.3971 O.2       1 UNK         0.0000 
     25 N25         1.7537   52.0606   20.0637 N.pl3     1 UNK         0.0000 
     26 C26         3.1691   51.7112   20.2787 C.3       1 UNK         0.0000 
     27 C27         4.1766   52.8171   20.0736 C.3       1 UNK         0.0000 
     28 C28         3.8628   52.3352   21.4698 C.3       1 UNK         0.0000 
     29 C29         6.0751   54.5275   24.8313 C.3       1 UNK         0.0000 
     30 F30         7.1040   53.6967   24.6686 F         1 UNK         0.0000 
     31 F31         5.3469   54.4963   23.7140 F         1 UNK         0.0000 
     32 F32         6.5561   55.7588   24.9929 F         1 UNK         0.0000 
     33 H33         2.6507   51.4841   32.4095 H         1 UNK         0.0000 
     34 H34         0.5846   53.0209   31.7280 H         1 UNK         0.0000 
     35 H35         1.3255   54.2945   29.4432 H         1 UNK         0.0000 
     36 H36         4.4684   51.6968   30.3790 H         1 UNK         0.0000 
     37 H37         5.7176   53.2582   29.2812 H         1 UNK         0.0000 
     38 H38         6.9828   53.8656   27.3189 H         1 UNK         0.0000 
     39 H39         3.3484   54.3452   25.1113 H         1 UNK         0.0000 
     40 H40         0.8202   54.1004   24.6187 H         1 UNK         0.0000 
     41 H41         0.7369   53.5485   22.2498 H         1 UNK         0.0000 
     42 H42         0.4905   49.3706   23.2105 H         1 UNK         0.0000 
     43 H43         0.5993   49.9186   25.6146 H         1 UNK         0.0000 
     44 H44         1.5523   53.0595   19.9656 H         1 UNK         0.0000 
     45 H45         3.4515   50.7039   19.9654 H         1 UNK         0.0000 
     46 H46         5.1259   52.5516   19.6071 H         1 UNK         0.0000 
     47 H47         3.8183   53.7965   19.7495 H         1 UNK         0.0000 
     48 H48         3.3089   52.9965   22.1355 H         1 UNK         0.0000 
     49 H49         4.6029   51.7443   22.0102 H         1 UNK         0.0000 
@<TRIPOS>BOND
     1    1    5 ar   
     2    1    2 ar   
     3    1   33 1    
     4    2    3 ar   
     5    2   34 1    
     6    3    4 ar   
     7    3   35 1    
     8    4    5 ar   
     9    4    6 1    
    10    5   36 1    
    11    6   11 ar   
    12    6    7 ar   
    13    7    8 ar   
    14    7   37 1    
    15    8    9 ar   
    16    8   38 1    
    17    9   10 ar   
    18    9   29 1    
    19   10   11 ar   
    20   10   39 1    
    21   11   12 1    
    22   12   13 1    
    23   13   14 2    
    24   13   15 2    
    25   13   16 1    
    26   16   21 ar   
    27   16   17 ar   
    28   17   18 ar   
    29   17   40 1    
    30   18   19 ar   
    31   18   41 1    
    32   19   20 ar   
    33   19   22 1    
    34   20   21 ar   
    35   20   42 1    
    36   21   43 1    
    37   22   23 2    
    38   22   24 2    
    39   22   25 1    
    40   25   26 1    
    41   25   44 1    
    42   26   28 1    
    43   26   27 1    
    44   26   45 1    
    45   27   28 1    
    46   27   46 1    
    47   27   47 1    
    48   28   48 1    
    49   28   49 1    
    50   29   30 1    
    51   29   31 1    
    52   29   32 1    
@<TRIPOS>SUBSTRUCTURE
     1 UNK         1 GROUP             0       ****    0 ROOT    
