@<TRIPOS>MOLECULE
ZINC46560473_4859
66   69    1
SMALL
USER_CHARGES


@<TRIPOS>ATOM
      1 C1          2.6412   51.4654   19.4020 C.3       1 UNK         0.0000 
      2 C2          3.6661   52.3330   20.1460 C.3       1 UNK         0.0000 
      3 H3          4.4783   51.6991   20.5081 H         1 UNK         0.0000 
      4 C4          4.2448   53.3773   19.1534 C.2       1 UNK         0.0000 
      5 O5          4.0770   54.5831   19.3347 O.2       1 UNK         0.0000 
      6 N6          4.9320   52.9036   18.1025 N.am      1 UNK         0.0000 
      7 C7          5.6017   53.6912   17.0488 C.3       1 UNK         0.0000 
      8 H8          5.6362   52.9978   16.2043 H         1 UNK         0.0000 
      9 C9          7.0660   53.9947   17.4035 C.ar      1 UNK         0.0000 
     10 C10         7.3921   54.7206   18.5591 C.ar      1 UNK         0.0000 
     11 C11         8.7219   55.0070   18.8524 C.ar      1 UNK         0.0000 
     12 C12         9.7293   54.5545   18.0017 C.ar      1 UNK         0.0000 
     13 C13         9.4209   53.8115   16.8664 C.ar      1 UNK         0.0000 
     14 C14         8.0904   53.5296   16.5678 C.ar      1 UNK         0.0000 
     15 C15         4.7697   54.8884   16.5238 C.ar      1 UNK         0.0000 
     16 C16         5.2204   56.2149   16.6243 C.ar      1 UNK         0.0000 
     17 C17         4.3935   57.2689   16.2502 C.ar      1 UNK         0.0000 
     18 C18         3.1076   57.0196   15.7454 C.ar      1 UNK         0.0000 
     19 C19         2.6827   55.6991   15.5894 C.ar      1 UNK         0.0000 
     20 C20         3.5045   54.6429   15.9759 C.ar      1 UNK         0.0000 
     21 O21         2.2098   58.0063   15.3854 O.3       1 UNK         0.0000 
     22 C22         2.5408   59.3693   15.6388 C.3       1 UNK         0.0000 
     23 N23         3.1525   53.0954   21.4090 N.4       1 UNK         0.0000 
     24 C24         2.1853   52.2806   22.2949 C.3       1 UNK         0.0000 
     25 C25         1.6871   53.1572   23.4683 C.3       1 UNK         0.0000 
     26 N26         2.7694   53.7645   24.2739 N.pl3     1 UNK         0.0000 
     27 C27         3.7139   54.4860   23.4066 C.3       1 UNK         0.0000 
     28 C28         4.3093   53.6196   22.2898 C.3       1 UNK         0.0000 
     29 C29         2.9089   53.6275   25.6570 C.ar      1 UNK         0.0000 
     30 C30         4.0798   53.9911   26.3393 C.ar      1 UNK         0.0000 
     31 C31         4.1825   53.7401   27.7073 C.ar      1 UNK         0.0000 
     32 C32         3.1169   53.1426   28.3891 C.ar      1 UNK         0.0000 
     33 C33         1.9620   52.8426   27.6614 C.ar      1 UNK         0.0000 
     34 N34         1.8559   53.0748   26.3290 N.ar      1 UNK         0.0000 
     35 C35         3.2186   52.8484   29.8784 C.3       1 UNK         0.0000 
     36 F36         2.0195   52.7619   30.4543 F         1 UNK         0.0000 
     37 F37         3.8598   51.6973   30.0594 F         1 UNK         0.0000 
     38 F38         3.9044   53.8154   30.4796 F         1 UNK         0.0000 
     39 H39         3.0806   51.0027   18.5143 H         1 UNK         0.0000 
     40 H40         2.2960   50.6520   20.0383 H         1 UNK         0.0000 
     41 H41         1.7823   52.0638   19.0939 H         1 UNK         0.0000 
     42 H42         5.1044   51.8909   18.0798 H         1 UNK         0.0000 
     43 H43         6.6199   55.0755   19.2274 H         1 UNK         0.0000 
     44 H44         8.9785   55.5802   19.7319 H         1 UNK         0.0000 
     45 H45        10.7621   54.7803   18.2287 H         1 UNK         0.0000 
     46 H46        10.2107   53.4635   16.2150 H         1 UNK         0.0000 
     47 H47         7.8596   52.9572   15.6786 H         1 UNK         0.0000 
     48 H48         6.1940   56.4574   17.0246 H         1 UNK         0.0000 
     49 H49         4.7642   58.2768   16.3722 H         1 UNK         0.0000 
     50 H50         1.6979   55.4970   15.1883 H         1 UNK         0.0000 
     51 H51         3.1435   53.6276   15.8836 H         1 UNK         0.0000 
     52 H52         1.7200   60.0112   15.3253 H         1 UNK         0.0000 
     53 H53         3.4299   59.6808   15.0878 H         1 UNK         0.0000 
     54 H54         2.7042   59.5466   16.7047 H         1 UNK         0.0000 
     55 H55         1.3336   52.0311   21.6621 H         1 UNK         0.0000 
     56 H56         2.7035   51.3734   22.6142 H         1 UNK         0.0000 
     57 H57         1.1075   53.9995   23.0877 H         1 UNK         0.0000 
     58 H58         0.9950   52.5744   24.0763 H         1 UNK         0.0000 
     59 H59         4.5216   54.9629   23.9563 H         1 UNK         0.0000 
     60 H60         3.1368   55.2967   22.9671 H         1 UNK         0.0000 
     61 H61         4.9035   52.7814   22.6525 H         1 UNK         0.0000 
     62 H62         4.9384   54.2543   21.6669 H         1 UNK         0.0000 
     63 H63         4.9368   54.4186   25.8455 H         1 UNK         0.0000 
     64 H64         5.0963   53.9975   28.2272 H         1 UNK         0.0000 
     65 H65         1.0998   52.3876   28.1318 H         1 UNK         0.0000 
     66 H66         2.6383   53.8982   21.0571 H         1 UNK         0.0000 
@<TRIPOS>BOND
     1    1    2 1    
     2    1   39 1    
     3    1   40 1    
     4    1   41 1    
     5    2    3 1    
     6    2    4 1    
     7    2   23 1    
     8    4    5 2    
     9    4    6 am   BACKBONE|DICT|INTERRES
    10    6    7 1    
    11    6   42 1    
    12    7    8 1    
    13    7    9 1    
    14    7   15 1    
    15    9   14 ar   
    16    9   10 ar   
    17   10   11 ar   
    18   10   43 1    
    19   11   12 ar   
    20   11   44 1    
    21   12   13 ar   
    22   12   45 1    
    23   13   14 ar   
    24   13   46 1    
    25   14   47 1    
    26   15   20 ar   
    27   15   16 ar   
    28   16   17 ar   
    29   16   48 1    
    30   17   18 ar   
    31   17   49 1    
    32   18   19 ar   
    33   18   21 1    
    34   19   20 ar   
    35   19   50 1    
    36   20   51 1    
    37   21   22 1    
    38   22   52 1    
    39   22   53 1    
    40   22   54 1    
    41   23   28 1    
    42   23   24 1    
    43   23   66 1    
    44   24   25 1    
    45   24   55 1    
    46   24   56 1    
    47   25   26 1    
    48   25   57 1    
    49   25   58 1    
    50   26   27 1    
    51   26   29 1    
    52   27   28 1    
    53   27   59 1    
    54   27   60 1    
    55   28   61 1    
    56   28   62 1    
    57   29   34 ar   
    58   29   30 ar   
    59   30   31 ar   
    60   30   63 1    
    61   31   32 ar   
    62   31   64 1    
    63   32   33 ar   
    64   32   35 1    
    65   33   34 ar   
    66   33   65 1    
    67   35   36 1    
    68   35   37 1    
    69   35   38 1    
@<TRIPOS>SUBSTRUCTURE
     1 UNK         1 GROUP             0       ****    0 ROOT    
