@<TRIPOS>MOLECULE
ZINC38906479_2148
40   43    1
SMALL
USER_CHARGES


@<TRIPOS>ATOM
      1 C1          1.7514   56.0955   29.6225 C.2       1 UNK         0.0000 
      2 C2          1.0652   55.7323   30.8477 C.2       1 UNK         0.0000 
      3 C3          0.4028   54.5511   30.9867 C.2       1 UNK         0.0000 
      4 C4          0.3693   53.6281   29.9376 C.2       1 UNK         0.0000 
      5 N5         -0.2018   52.4466   29.8883 N.pl3     1 UNK         0.0000 
      6 C6          0.0143   51.8385   28.5621 C.3       1 UNK         0.0000 
      7 C7          0.8476   52.8969   27.8654 C.2       1 UNK         0.0000 
      8 C8          1.0141   53.9238   28.7315 C.2       1 UNK         0.0000 
      9 C9          1.7207   55.2164   28.6059 C.2       1 UNK         0.0000 
     10 C10         1.3364   52.8383   26.5134 C.2       1 UNK         0.0000 
     11 N11         2.3986   53.4456   26.1684 N.2       1 UNK         0.0000 
     12 N12         2.6855   53.3620   24.8603 N.am      1 UNK         0.0000 
     13 C13         3.8078   53.9008   24.3407 C.2       1 UNK         0.0000 
     14 O14         4.6632   54.4978   25.0042 O.2       1 UNK         0.0000 
     15 C15         3.9667   53.6960   22.9091 C.2       1 UNK         0.0000 
     16 N16         3.0289   53.4665   22.0824 N.2       1 UNK         0.0000 
     17 N17         3.5659   53.2439   20.8079 N.pl3     1 UNK         0.0000 
     18 C18         4.9770   53.5822   20.7795 C.3       1 UNK         0.0000 
     19 H19         5.5053   52.7276   20.3581 H         1 UNK         0.0000 
     20 C20         5.3278   53.7833   22.2498 C.3       1 UNK         0.0000 
     21 C21         5.2838   54.7749   19.8734 C.2       1 UNK         0.0000 
     22 C22         6.3549   55.6736   19.9384 C.2       1 UNK         0.0000 
     23 C23         6.3524   56.6679   18.9574 C.2       1 UNK         0.0000 
     24 C24         5.2863   56.5515   18.0879 C.2       1 UNK         0.0000 
     25 S25         4.3047   55.1820   18.4777 S.3       1 UNK         0.0000 
     26 Br26        4.8458   57.6811   16.6235 Br        1 UNK         0.0000 
     27 H27         2.2679   57.0413   29.5341 H         1 UNK         0.0000 
     28 H28         1.1045   56.4222   31.6815 H         1 UNK         0.0000 
     29 H29        -0.0797   54.3333   31.9302 H         1 UNK         0.0000 
     30 H30        -0.9590   51.6512   28.1055 H         1 UNK         0.0000 
     31 H31         0.5387   50.8957   28.7079 H         1 UNK         0.0000 
     32 H32         2.2433   55.5022   27.7041 H         1 UNK         0.0000 
     33 H33         0.7156   52.2341   25.8536 H         1 UNK         0.0000 
     34 H34         2.0247   52.8641   24.2806 H         1 UNK         0.0000 
     35 H35         2.9595   53.6629   20.1102 H         1 UNK         0.0000 
     36 H36         5.9831   52.9966   22.6268 H         1 UNK         0.0000 
     37 H37         5.8010   54.7424   22.4631 H         1 UNK         0.0000 
     38 H38         7.1256   55.6130   20.6932 H         1 UNK         0.0000 
     39 H39         7.0989   57.4447   18.8774 H         1 UNK         0.0000 
     40 H40        -0.7215   52.0043   30.6471 H         1 UNK         0.0000 
@<TRIPOS>BOND
     1    1    9 2    
     2    1    2 1    
     3    1   27 1    
     4    2    3 2    
     5    2   28 1    
     6    3    4 1    
     7    3   29 1    
     8    4    8 1    
     9    4    5 2    
    10    5    6 1    
    11    5   40 1    
    12    6    7 1    
    13    6   30 1    
    14    6   31 1    
    15    7    8 2    
    16    7   10 1    
    17    8    9 1    
    18    9   32 1    
    19   10   11 2    
    20   10   33 1    
    21   11   12 1    
    22   12   13 am   BACKBONE|DICT|INTERRES
    23   12   34 1    
    24   13   14 2    
    25   13   15 1    
    26   15   20 1    
    27   15   16 2    
    28   16   17 1    
    29   17   18 1    
    30   17   35 1    
    31   18   19 1    
    32   18   20 1    
    33   18   21 1    
    34   20   36 1    
    35   20   37 1    
    36   21   25 1    
    37   21   22 2    
    38   22   23 1    
    39   22   38 1    
    40   23   24 2    
    41   23   39 1    
    42   24   25 1    
    43   24   26 1    
@<TRIPOS>SUBSTRUCTURE
     1 UNK         1 GROUP             0       ****    0 ROOT    
