@<TRIPOS>MOLECULE
ZINC12429021_2448
61   64    1
SMALL
USER_CHARGES


@<TRIPOS>ATOM
      1 C1          4.5634   54.0968   23.7020 C.ar      1 UNK         0.0000 
      2 C2          4.7275   54.1981   22.3194 C.ar      1 UNK         0.0000 
      3 C3          5.8721   54.7928   21.7818 C.ar      1 UNK         0.0000 
      4 C4          6.8640   55.2604   22.6524 C.ar      1 UNK         0.0000 
      5 C5          6.7023   55.1488   24.0289 C.ar      1 UNK         0.0000 
      6 C6          5.5511   54.5767   24.5775 C.ar      1 UNK         0.0000 
      7 C7          5.4088   54.4980   26.0844 C.2       1 UNK         0.0000 
      8 O8          6.3921   54.6193   26.8172 O.2       1 UNK         0.0000 
      9 N9          4.1560   54.3521   26.5572 N.am      1 UNK         0.0000 
     10 C10         3.7643   54.2417   27.9643 C.3       1 UNK         0.0000 
     11 C11         2.2809   54.6245   28.1970 C.3       1 UNK         0.0000 
     12 C12         1.7846   54.4093   29.6410 C.3       1 UNK         0.0000 
     13 C13         2.1149   53.0041   30.1693 C.3       1 UNK         0.0000 
     14 C14         3.6230   52.7226   30.0682 C.3       1 UNK         0.0000 
     15 C15         4.1457   52.8969   28.6297 C.3       1 UNK         0.0000 
     16 N16         5.9418   54.8832   20.3749 N.am      1 UNK         0.0000 
     17 C17         6.9538   55.3238   19.5896 C.2       1 UNK         0.0000 
     18 O18         8.0153   55.7861   20.0150 O.2       1 UNK         0.0000 
     19 C19         6.7595   55.2681   18.0554 C.3       1 UNK         0.0000 
     20 H20         6.7345   56.3128   17.7477 H         1 UNK         0.0000 
     21 C21         7.9214   54.5245   17.3632 C.3       1 UNK         0.0000 
     22 C22         7.2691   53.7014   16.2694 C.3       1 UNK         0.0000 
     23 C23         5.9332   53.2993   16.8761 C.3       1 UNK         0.0000 
     24 N24         5.5347   54.5194   17.6202 N.pl3     1 UNK         0.0000 
     25 S25         4.1360   55.4517   17.0794 S.o2      1 UNK         0.0000 
     26 O26         3.9047   56.4952   18.0816 O.2       1 UNK         0.0000 
     27 O27         3.0695   54.5111   16.7199 O.2       1 UNK         0.0000 
     28 C28         4.6516   56.2790   15.5776 C.ar      1 UNK         0.0000 
     29 C29         4.6069   55.5897   14.3637 C.ar      1 UNK         0.0000 
     30 C30         5.0094   56.2297   13.1957 C.ar      1 UNK         0.0000 
     31 C31         5.4517   57.5506   13.2457 C.ar      1 UNK         0.0000 
     32 C32         5.4902   58.2406   14.4562 C.ar      1 UNK         0.0000 
     33 C33         5.0896   57.6055   15.6273 C.ar      1 UNK         0.0000 
     34 F34         5.8462   58.1671   12.1073 F         1 UNK         0.0000 
     35 H35         3.6603   53.6334   24.0773 H         1 UNK         0.0000 
     36 H36         3.9441   53.8222   21.6716 H         1 UNK         0.0000 
     37 H37         7.7754   55.7221   22.3081 H         1 UNK         0.0000 
     38 H38         7.4926   55.5284   24.6623 H         1 UNK         0.0000 
     39 H39         3.4142   54.2235   25.8894 H         1 UNK         0.0000 
     40 H40         4.3340   54.9973   28.5177 H         1 UNK         0.0000 
     41 H41         2.1185   55.6649   27.9147 H         1 UNK         0.0000 
     42 H42         1.6551   54.0083   27.5475 H         1 UNK         0.0000 
     43 H43         2.2355   55.1642   30.2870 H         1 UNK         0.0000 
     44 H44         0.7074   54.5781   29.6882 H         1 UNK         0.0000 
     45 H45         1.7838   52.8986   31.2033 H         1 UNK         0.0000 
     46 H46         1.5616   52.2557   29.6006 H         1 UNK         0.0000 
     47 H47         4.1645   53.3977   30.7344 H         1 UNK         0.0000 
     48 H48         3.8397   51.7137   30.4213 H         1 UNK         0.0000 
     49 H49         3.7085   52.0964   28.0338 H         1 UNK         0.0000 
     50 H50         5.2277   52.7515   28.6135 H         1 UNK         0.0000 
     51 H51         5.1312   54.5475   19.8763 H         1 UNK         0.0000 
     52 H52         8.4720   53.8708   18.0444 H         1 UNK         0.0000 
     53 H53         8.6479   55.2220   16.9452 H         1 UNK         0.0000 
     54 H54         7.8709   52.8374   15.9864 H         1 UNK         0.0000 
     55 H55         7.1125   54.3002   15.3714 H         1 UNK         0.0000 
     56 H56         6.1018   52.4973   17.5994 H         1 UNK         0.0000 
     57 H57         5.1571   52.8975   16.2234 H         1 UNK         0.0000 
     58 H58         4.2619   54.5622   14.3291 H         1 UNK         0.0000 
     59 H59         4.9840   55.7054   12.2525 H         1 UNK         0.0000 
     60 H60         5.8279   59.2667   14.4857 H         1 UNK         0.0000 
     61 H61         5.1159   58.1533   16.5615 H         1 UNK         0.0000 
@<TRIPOS>BOND
     1    1    6 ar   
     2    1    2 ar   
     3    1   35 1    
     4    2    3 ar   
     5    2   36 1    
     6    3    4 ar   
     7    3   16 1    
     8    4    5 ar   
     9    4   37 1    
    10    5    6 ar   
    11    5   38 1    
    12    6    7 1    
    13    7    8 2    
    14    7    9 am   BACKBONE|DICT|INTERRES
    15    9   10 1    
    16    9   39 1    
    17   10   15 1    
    18   10   11 1    
    19   10   40 1    
    20   11   12 1    
    21   11   41 1    
    22   11   42 1    
    23   12   13 1    
    24   12   43 1    
    25   12   44 1    
    26   13   14 1    
    27   13   45 1    
    28   13   46 1    
    29   14   15 1    
    30   14   47 1    
    31   14   48 1    
    32   15   49 1    
    33   15   50 1    
    34   16   17 am   BACKBONE|DICT|INTERRES
    35   16   51 1    
    36   17   18 2    
    37   17   19 1    
    38   19   20 1    
    39   19   24 1    
    40   19   21 1    
    41   21   22 1    
    42   21   52 1    
    43   21   53 1    
    44   22   23 1    
    45   22   54 1    
    46   22   55 1    
    47   23   24 1    
    48   23   56 1    
    49   23   57 1    
    50   24   25 1    
    51   25   26 2    
    52   25   27 2    
    53   25   28 1    
    54   28   33 ar   
    55   28   29 ar   
    56   29   30 ar   
    57   29   58 1    
    58   30   31 ar   
    59   30   59 1    
    60   31   32 ar   
    61   31   34 1    
    62   32   33 ar   
    63   32   60 1    
    64   33   61 1    
@<TRIPOS>SUBSTRUCTURE
     1 UNK         1 GROUP             0       ****    0 ROOT    
