@<TRIPOS>MOLECULE
ZINC27550437_688
51   54    1
SMALL
USER_CHARGES


@<TRIPOS>ATOM
      1 C1         -3.5427   50.6733   22.8684 C.3       1 UNK         0.0000 
      2 C2         -2.3307   51.5553   22.5373 C.3       1 UNK         0.0000 
      3 S3         -1.8756   52.8969   23.6816 S.3       1 UNK         0.0000 
      4 C4         -2.4100   52.2729   25.2345 C.2       1 UNK         0.0000 
      5 C5         -1.6555   51.6121   26.2217 C.2       1 UNK         0.0000 
      6 C6         -2.4791   51.2967   27.3184 C.2       1 UNK         0.0000 
      7 C7         -3.7967   51.6962   27.1888 C.2       1 UNK         0.0000 
      8 S8         -4.0615   52.5347   25.7101 S.3       1 UNK         0.0000 
      9 C9         -0.1617   51.2491   26.1908 C.3       1 UNK         0.0000 
     10 H10        -0.0410   50.4451   26.9231 H         1 UNK         0.0000 
     11 C11         0.7123   52.3846   26.6918 C.2       1 UNK         0.0000 
     12 C12         1.6132   53.0074   25.9007 C.2       1 UNK         0.0000 
     13 N13         1.9044   52.5791   24.5778 N.pl3     1 UNK         0.0000 
     14 C14         1.2964   51.3727   24.0878 C.2       1 UNK         0.0000 
     15 C15         0.3867   50.6903   24.8603 C.2       1 UNK         0.0000 
     16 C16        -0.1827   49.3842   24.4631 C.2       1 UNK         0.0000 
     17 O17        -1.1196   48.8551   25.0594 O.2       1 UNK         0.0000 
     18 C18         0.3091   48.7593   23.1667 C.3       1 UNK         0.0000 
     19 C19         1.6953   49.2373   22.7136 C.3       1 UNK         0.0000 
     20 C20         1.7810   50.7335   22.7464 C.3       1 UNK         0.0000 
     21 C21         2.8684   53.2967   23.7727 C.ar      1 UNK         0.0000 
     22 C22         4.1205   53.6967   24.2953 C.ar      1 UNK         0.0000 
     23 C23         5.1276   54.2377   23.5041 C.ar      1 UNK         0.0000 
     24 C24         4.9216   54.4328   22.1385 C.ar      1 UNK         0.0000 
     25 C25         3.6712   54.0968   21.6112 C.ar      1 UNK         0.0000 
     26 C26         2.6412   53.5964   22.4167 C.ar      1 UNK         0.0000 
     27 Cl27        1.1044   53.3007   21.6817 Cl        1 UNK         0.0000 
     28 N28         5.9884   55.0039   21.2801 N.pl3     1 UNK         0.0000 
     29 O29         7.0386   55.3580   21.8090 O.co2     1 UNK         0.0000 
     30 O30         5.7778   55.1145   20.0768 O.co2     1 UNK         0.0000 
     31 N31         2.2910   54.0967   26.4032 N.pl3     1 UNK         0.0000 
     32 C32         0.4622   52.8555   28.0219 C.1       1 UNK         0.0000 
     33 N33         0.2897   53.2725   29.0875 N.1       1 UNK         0.0000 
     34 H34        -3.7217   49.9470   22.0756 H         1 UNK         0.0000 
     35 H35        -3.3881   50.1131   23.7912 H         1 UNK         0.0000 
     36 H36        -4.4482   51.2695   22.9805 H         1 UNK         0.0000 
     37 H37        -2.4953   52.0210   21.5660 H         1 UNK         0.0000 
     38 H38        -1.4500   50.9347   22.4004 H         1 UNK         0.0000 
     39 H39        -2.1128   50.7852   28.1962 H         1 UNK         0.0000 
     40 H40        -4.6023   51.5537   27.8936 H         1 UNK         0.0000 
     41 H41        -0.4121   49.0367   22.4002 H         1 UNK         0.0000 
     42 H42         0.2302   47.6967   23.3015 H         1 UNK         0.0000 
     43 H43         1.8876   48.8743   21.7021 H         1 UNK         0.0000 
     44 H44         2.5287   48.8967   23.2817 H         1 UNK         0.0000 
     45 H45         1.1582   50.9612   21.8912 H         1 UNK         0.0000 
     46 H46         2.8264   50.9485   22.5251 H         1 UNK         0.0000 
     47 H47         4.3816   53.4869   25.3217 H         1 UNK         0.0000 
     48 H48         6.0789   54.4797   23.9579 H         1 UNK         0.0000 
     49 H49         3.5045   54.2373   20.5535 H         1 UNK         0.0000 
     50 H50         2.1246   54.3946   27.3542 H         1 UNK         0.0000 
     51 H51         2.6870   54.7804   25.7757 H         1 UNK         0.0000 
@<TRIPOS>BOND
     1    1    2 1    
     2    1   34 1    
     3    1   35 1    
     4    1   36 1    
     5    2    3 1    
     6    2   37 1    
     7    2   38 1    
     8    3    4 1    
     9    4    8 1    
    10    4    5 2    
    11    5    6 1    
    12    5    9 1    
    13    6    7 2    
    14    6   39 1    
    15    7    8 1    
    16    7   40 1    
    17    9   10 1    
    18    9   15 1    
    19    9   11 1    
    20   11   12 2    
    21   11   32 1    
    22   12   13 1    
    23   12   31 1    
    24   13   14 1    
    25   13   21 1    
    26   14   20 1    
    27   14   15 2    
    28   15   16 1    
    29   16   17 2    
    30   16   18 1    
    31   18   19 1    
    32   18   41 1    
    33   18   42 1    
    34   19   20 1    
    35   19   43 1    
    36   19   44 1    
    37   20   45 1    
    38   20   46 1    
    39   21   26 ar   
    40   21   22 ar   
    41   22   23 ar   
    42   22   47 1    
    43   23   24 ar   
    44   23   48 1    
    45   24   25 ar   
    46   24   28 1    
    47   25   26 ar   
    48   25   49 1    
    49   26   27 1    
    50   28   29 2    
    51   28   30 1    
    52   31   50 1    
    53   31   51 1    
    54   32   33 3    
@<TRIPOS>SUBSTRUCTURE
     1 UNK         1 GROUP             0       ****    0 ROOT    
