@<TRIPOS>MOLECULE
ZINC49486318_4861
52   55    1
SMALL
USER_CHARGES


@<TRIPOS>ATOM
      1 C1          0.5259   49.6113   21.5011 C.2       1 UNK         0.0000 
      2 C2          0.9106   50.4579   20.4622 C.2       1 UNK         0.0000 
      3 C3          2.2515   50.7682   20.6621 C.2       1 UNK         0.0000 
      4 O4          2.7016   50.1145   21.7665 O.3       1 UNK         0.0000 
      5 C5          1.6498   49.4386   22.2929 C.2       1 UNK         0.0000 
      6 C6          3.2597   51.6667   19.9574 C.3       1 UNK         0.0000 
      7 H7          4.1341   51.0812   19.6832 H         1 UNK         0.0000 
      8 C8          2.7667   52.3298   18.6566 C.3       1 UNK         0.0000 
      9 N9          2.3038   51.3444   17.6513 N.pl3     1 UNK         0.0000 
     10 S10         1.7761   51.9838   16.1059 S.o2      1 UNK         0.0000 
     11 O11         1.2403   50.8831   15.2991 O.2       1 UNK         0.0000 
     12 O12         2.8091   52.8927   15.5979 O.2       1 UNK         0.0000 
     13 C13         0.3698   53.0027   16.6145 C.2       1 UNK         0.0000 
     14 C14        -0.9117   52.5407   16.8844 C.2       1 UNK         0.0000 
     15 C15        -1.7846   53.5729   17.2545 C.2       1 UNK         0.0000 
     16 C16        -1.1646   54.8169   17.2803 C.2       1 UNK         0.0000 
     17 S17         0.5134   54.7154   16.8493 S.3       1 UNK         0.0000 
     18 Br18       -1.9310   56.5018   17.7106 Br        1 UNK         0.0000 
     19 N19         3.7749   52.8006   20.8996 N.4       1 UNK         0.0000 
     20 C20         2.7696   53.2895   21.9674 C.3       1 UNK         0.0000 
     21 C21         3.3863   54.4642   22.7431 C.3       1 UNK         0.0000 
     22 N22         4.6407   54.0965   23.4174 N.pl3     1 UNK         0.0000 
     23 C23         5.6312   53.5302   22.4852 C.3       1 UNK         0.0000 
     24 C24         5.1043   52.3976   21.5655 C.3       1 UNK         0.0000 
     25 C25         4.8533   54.2255   24.7881 C.ar      1 UNK         0.0000 
     26 C26         3.7908   54.0598   25.6881 C.ar      1 UNK         0.0000 
     27 C27         3.9984   54.1422   27.0616 C.ar      1 UNK         0.0000 
     28 C28         5.2714   54.4055   27.5495 C.ar      1 UNK         0.0000 
     29 C29         6.3392   54.5811   26.6763 C.ar      1 UNK         0.0000 
     30 C30         6.1325   54.4962   25.2993 C.ar      1 UNK         0.0000 
     31 F31         5.4738   54.4948   28.8818 F         1 UNK         0.0000 
     32 H32        -0.4563   49.1851   21.6645 H         1 UNK         0.0000 
     33 H33         0.2827   50.8215   19.6597 H         1 UNK         0.0000 
     34 H34         1.8456   48.8972   23.2049 H         1 UNK         0.0000 
     35 H35         3.5749   52.9109   18.2108 H         1 UNK         0.0000 
     36 H36         1.9499   53.0188   18.8736 H         1 UNK         0.0000 
     37 H37         2.9960   50.5934   17.5073 H         1 UNK         0.0000 
     38 H38        -1.2030   51.5025   16.7993 H         1 UNK         0.0000 
     39 H39        -2.8281   53.4187   17.4857 H         1 UNK         0.0000 
     40 H40         1.8827   53.6109   21.4269 H         1 UNK         0.0000 
     41 H41         2.5130   52.4644   22.6317 H         1 UNK         0.0000 
     42 H42         3.6256   55.2911   22.0753 H         1 UNK         0.0000 
     43 H43         2.6576   54.8698   23.4434 H         1 UNK         0.0000 
     44 H44         6.5268   53.1846   23.0004 H         1 UNK         0.0000 
     45 H45         5.9372   54.3816   21.8745 H         1 UNK         0.0000 
     46 H46         4.9382   51.4539   22.0817 H         1 UNK         0.0000 
     47 H47         5.7850   52.2446   20.7260 H         1 UNK         0.0000 
     48 H48         2.7948   53.8305   25.3379 H         1 UNK         0.0000 
     49 H49         3.1784   54.0018   27.7473 H         1 UNK         0.0000 
     50 H50         7.3231   54.7802   27.0781 H         1 UNK         0.0000 
     51 H51         6.9726   54.6393   24.6340 H         1 UNK         0.0000 
     52 H52         3.9761   53.5996   20.3150 H         1 UNK         0.0000 
@<TRIPOS>BOND
     1    1    5 2    
     2    1    2 1    
     3    1   32 1    
     4    2    3 2    
     5    2   33 1    
     6    3    4 1    
     7    3    6 1    
     8    4    5 1    
     9    5   34 1    
    10    6    7 1    
    11    6    8 1    
    12    6   19 1    
    13    8    9 1    
    14    8   35 1    
    15    8   36 1    
    16    9   10 1    
    17    9   37 1    
    18   10   11 2    
    19   10   12 2    
    20   10   13 1    
    21   13   17 1    
    22   13   14 2    
    23   14   15 1    
    24   14   38 1    
    25   15   16 2    
    26   15   39 1    
    27   16   17 1    
    28   16   18 1    
    29   19   24 1    
    30   19   20 1    
    31   19   52 1    
    32   20   21 1    
    33   20   40 1    
    34   20   41 1    
    35   21   22 1    
    36   21   42 1    
    37   21   43 1    
    38   22   23 1    
    39   22   25 1    
    40   23   24 1    
    41   23   44 1    
    42   23   45 1    
    43   24   46 1    
    44   24   47 1    
    45   25   30 ar   
    46   25   26 ar   
    47   26   27 ar   
    48   26   48 1    
    49   27   28 ar   
    50   27   49 1    
    51   28   29 ar   
    52   28   31 1    
    53   29   30 ar   
    54   29   50 1    
    55   30   51 1    
@<TRIPOS>SUBSTRUCTURE
     1 UNK         1 GROUP             0       ****    0 ROOT    
