@<TRIPOS>MOLECULE
ZINC13805999_5296
45   47    1
SMALL
USER_CHARGES


@<TRIPOS>ATOM
      1 C1          3.3142   53.4550   27.9094 C.2       1 UNK         0.0000 
      2 C2          3.7167   53.7767   26.6103 C.2       1 UNK         0.0000 
      3 C3          5.0773   54.0980   26.5179 C.2       1 UNK         0.0000 
      4 S4          5.8329   54.0768   28.0826 S.3       1 UNK         0.0000 
      5 C5          4.3490   53.5656   28.8249 C.2       1 UNK         0.0000 
      6 C6          5.8266   54.5425   25.3746 C.2       1 UNK         0.0000 
      7 O7          6.8150   55.2706   25.4948 O.2       1 UNK         0.0000 
      8 N8          5.3177   54.0971   24.2062 N.am      1 UNK         0.0000 
      9 C9          5.6675   54.4655   22.8993 C.ar      1 UNK         0.0000 
     10 C10         4.8324   54.0098   21.8766 C.ar      1 UNK         0.0000 
     11 C11         5.0503   54.4851   20.5835 C.ar      1 UNK         0.0000 
     12 C12         6.0966   55.3859   20.3879 C.ar      1 UNK         0.0000 
     13 N13         6.9261   55.7622   21.3946 N.ar      1 UNK         0.0000 
     14 N14         6.7159   55.2969   22.6369 N.ar      1 UNK         0.0000 
     15 S15         6.2843   56.1843   18.8307 S.3       1 UNK         0.0000 
     16 C16         6.8475   54.8931   17.6806 C.3       1 UNK         0.0000 
     17 C17         8.3209   54.4870   17.8313 C.2       1 UNK         0.0000 
     18 O18         9.0491   55.0451   18.6515 O.2       1 UNK         0.0000 
     19 N19         8.7169   53.4949   17.0100 N.am      1 UNK         0.0000 
     20 C20        10.0099   52.9731   16.8208 C.ar      1 UNK         0.0000 
     21 C21        11.1935   53.6600   17.1437 C.ar      1 UNK         0.0000 
     22 C22        12.4420   53.0890   16.8740 C.ar      1 UNK         0.0000 
     23 C23        12.5011   51.8260   16.2740 C.ar      1 UNK         0.0000 
     24 C24        11.3333   51.1357   15.9376 C.ar      1 UNK         0.0000 
     25 C25        10.0903   51.7163   16.2169 C.ar      1 UNK         0.0000 
     26 C26        11.4340   49.7742   15.2527 C.3       1 UNK         0.0000 
     27 F27        12.1812   49.8818   14.1521 F         1 UNK         0.0000 
     28 F28        10.2399   49.2967   14.9008 F         1 UNK         0.0000 
     29 F29        12.0107   48.8995   16.0808 F         1 UNK         0.0000 
     30 C30        13.7412   53.8264   17.1899 C.3       1 UNK         0.0000 
     31 F31        14.4492   53.1310   18.0826 F         1 UNK         0.0000 
     32 F32        14.4654   53.9558   16.0778 F         1 UNK         0.0000 
     33 F33        13.5290   55.0472   17.6808 F         1 UNK         0.0000 
     34 H34         2.3075   53.1610   28.1707 H         1 UNK         0.0000 
     35 H35         3.0351   53.7698   25.7714 H         1 UNK         0.0000 
     36 H36         4.3043   53.3819   29.8875 H         1 UNK         0.0000 
     37 H37         4.5334   53.4675   24.2821 H         1 UNK         0.0000 
     38 H38         3.9966   53.3543   22.0705 H         1 UNK         0.0000 
     39 H39         4.3906   54.2087   19.7750 H         1 UNK         0.0000 
     40 H40         6.6944   55.2650   16.6670 H         1 UNK         0.0000 
     41 H41         6.2114   54.0160   17.8018 H         1 UNK         0.0000 
     42 H42         7.9912   53.0355   16.4805 H         1 UNK         0.0000 
     43 H43        11.1529   54.6410   17.5923 H         1 UNK         0.0000 
     44 H44        13.4608   51.3790   16.0534 H         1 UNK         0.0000 
     45 H45         9.1826   51.1863   15.9587 H         1 UNK         0.0000 
@<TRIPOS>BOND
     1    1    5 2    
     2    1    2 1    
     3    1   34 1    
     4    2    3 2    
     5    2   35 1    
     6    3    4 1    
     7    3    6 1    
     8    4    5 1    
     9    5   36 1    
    10    6    7 2    
    11    6    8 am   BACKBONE|DICT|INTERRES
    12    8    9 1    
    13    8   37 1    
    14    9   14 ar   
    15    9   10 ar   
    16   10   11 ar   
    17   10   38 1    
    18   11   12 ar   
    19   11   39 1    
    20   12   13 ar   
    21   12   15 1    
    22   13   14 ar   
    23   15   16 1    
    24   16   17 1    
    25   16   40 1    
    26   16   41 1    
    27   17   18 2    
    28   17   19 am   BACKBONE|DICT|INTERRES
    29   19   20 1    
    30   19   42 1    
    31   20   25 ar   
    32   20   21 ar   
    33   21   22 ar   
    34   21   43 1    
    35   22   23 ar   
    36   22   30 1    
    37   23   24 ar   
    38   23   44 1    
    39   24   25 ar   
    40   24   26 1    
    41   25   45 1    
    42   26   27 1    
    43   26   28 1    
    44   26   29 1    
    45   30   31 1    
    46   30   32 1    
    47   30   33 1    
@<TRIPOS>SUBSTRUCTURE
     1 UNK         1 GROUP             0       ****    0 ROOT    
