@<TRIPOS>MOLECULE
ZINC51171108_1801
28   30    1
SMALL
USER_CHARGES


@<TRIPOS>ATOM
      1 C1          6.8688   55.2965   21.7009 C.2       1 UNK         0.0000 
      2 C2          6.4868   55.4037   20.3589 C.2       1 UNK         0.0000 
      3 C3          5.2620   54.8059   20.0995 C.2       1 UNK         0.0000 
      4 S4          4.5690   54.0957   21.5217 S.3       1 UNK         0.0000 
      5 C5          5.9211   54.6349   22.4859 C.2       1 UNK         0.0000 
      6 C6          6.0166   54.3260   23.8871 C.2       1 UNK         0.0000 
      7 O7          7.1040   54.0336   24.3811 O.2       1 UNK         0.0000 
      8 N8          4.8410   54.4264   24.5488 N.am      1 UNK         0.0000 
      9 C9          4.5218   54.2403   25.9168 C.ar      1 UNK         0.0000 
     10 C10         3.1885   53.8546   26.1491 C.ar      1 UNK         0.0000 
     11 C11         2.7583   53.7019   27.4617 C.ar      1 UNK         0.0000 
     12 C12         3.5857   53.9283   28.5211 C.ar      1 UNK         0.0000 
     13 C13         4.9028   54.3260   28.3442 C.ar      1 UNK         0.0000 
     14 C14         5.3772   54.4810   27.0332 C.ar      1 UNK         0.0000 
     15 N15         6.6961   54.8987   26.8990 N.pl3     1 UNK         0.0000 
     16 O16         2.8968   53.7527   29.6802 O.3       1 UNK         0.0000 
     17 C17         1.6677   53.1893   29.3014 C.3       1 UNK         0.0000 
     18 O18         1.5197   53.3826   27.9196 O.3       1 UNK         0.0000 
     19 Cl19        4.4311   54.7194   18.5995 Cl        1 UNK         0.0000 
     20 H20         7.8013   55.6887   22.0818 H         1 UNK         0.0000 
     21 H21         7.0833   55.8894   19.6004 H         1 UNK         0.0000 
     22 H22         4.0457   54.6295   23.9634 H         1 UNK         0.0000 
     23 H23         2.5035   53.6847   25.3311 H         1 UNK         0.0000 
     24 H24         5.5393   54.5258   29.1927 H         1 UNK         0.0000 
     25 H25         7.2604   54.9381   27.7381 H         1 UNK         0.0000 
     26 H26         7.1046   54.6549   25.9979 H         1 UNK         0.0000 
     27 H27         1.6781   52.1176   29.5109 H         1 UNK         0.0000 
     28 H28         0.8430   53.6524   29.8449 H         1 UNK         0.0000 
@<TRIPOS>BOND
     1    1    5 2    
     2    1    2 1    
     3    1   20 1    
     4    2    3 2    
     5    2   21 1    
     6    3    4 1    
     7    3   19 1    
     8    4    5 1    
     9    5    6 1    
    10    6    7 2    
    11    6    8 am   BACKBONE|DICT|INTERRES
    12    8    9 1    
    13    8   22 1    
    14    9   14 ar   
    15    9   10 ar   
    16   10   11 ar   
    17   10   23 1    
    18   11   18 1    
    19   11   12 ar   
    20   12   13 ar   
    21   12   16 1    
    22   13   14 ar   
    23   13   24 1    
    24   14   15 1    
    25   15   25 1    
    26   15   26 1    
    27   16   17 1    
    28   17   18 1    
    29   17   27 1    
    30   17   28 1    
@<TRIPOS>SUBSTRUCTURE
     1 UNK         1 GROUP             0       ****    0 ROOT    
