@<TRIPOS>MOLECULE
ZINC39686437_791
72   76    1
SMALL
USER_CHARGES


@<TRIPOS>ATOM
      1 C1         -0.4896   48.6790   24.1119 C.3       1 UNK         0.0000 
      2 C2         -1.0212   50.0901   24.4315 C.3       1 UNK         0.0000 
      3 H3         -0.9204   50.2246   25.5115 H         1 UNK         0.0000 
      4 C4         -2.5394   50.2107   24.1268 C.3       1 UNK         0.0000 
      5 C5         -3.2223   51.4370   24.7293 C.ar      1 UNK         0.0000 
      6 C6         -3.3542   52.5957   23.9596 C.ar      1 UNK         0.0000 
      7 C7         -4.0268   53.7073   24.4652 C.ar      1 UNK         0.0000 
      8 C8         -4.5772   53.6646   25.7401 C.ar      1 UNK         0.0000 
      9 C9         -4.4406   52.5164   26.5129 C.ar      1 UNK         0.0000 
     10 C10        -3.7457   51.3966   26.0320 C.ar      1 UNK         0.0000 
     11 O11        -3.5619   50.2449   26.7734 O.3       1 UNK         0.0000 
     12 C12        -3.9170   50.2347   28.1531 C.3       1 UNK         0.0000 
     13 N13        -0.1459   51.1130   23.8337 N.am      1 UNK         0.0000 
     14 C14        -0.0874   51.5028   22.5426 C.2       1 UNK         0.0000 
     15 O15        -0.9471   51.1874   21.7217 O.2       1 UNK         0.0000 
     16 C16         1.0834   52.4071   22.0586 C.3       1 UNK         0.0000 
     17 H17         0.7044   53.4155   21.9191 H         1 UNK         0.0000 
     18 C18         2.2063   52.4939   23.1104 C.3       1 UNK         0.0000 
     19 N19         3.3211   53.0550   22.3371 N.am      1 UNK         0.0000 
     20 C20         3.1625   52.7258   20.9131 C.3       1 UNK         0.0000 
     21 C21         1.8259   51.9343   20.7797 C.3       1 UNK         0.0000 
     22 C22         1.0747   52.2280   19.4511 C.3       1 UNK         0.0000 
     23 C23         1.9521   51.8827   18.2270 C.3       1 UNK         0.0000 
     24 N24         2.3042   50.3780   18.2844 N.4       1 UNK         0.0000 
     25 C25         2.9187   49.9109   19.6246 C.3       1 UNK         0.0000 
     26 C26         2.0330   50.3811   20.7824 C.3       1 UNK         0.0000 
     27 C27         4.3716   53.8273   22.7475 C.2       1 UNK         0.0000 
     28 O28         5.2033   54.2440   21.9347 O.2       1 UNK         0.0000 
     29 C29         4.6268   54.0969   24.2194 C.ar      1 UNK         0.0000 
     30 C30         5.9522   54.0970   24.6767 C.ar      1 UNK         0.0000 
     31 C31         6.2553   54.2171   26.0287 C.ar      1 UNK         0.0000 
     32 C32         5.2256   54.3324   26.9838 C.ar      1 UNK         0.0000 
     33 C33         5.4992   54.3825   28.3710 C.ar      1 UNK         0.0000 
     34 C34         4.4545   54.4844   29.2848 C.ar      1 UNK         0.0000 
     35 C35         3.1338   54.5368   28.8548 C.ar      1 UNK         0.0000 
     36 C36         2.8350   54.4940   27.4958 C.ar      1 UNK         0.0000 
     37 C37         3.8734   54.3983   26.5360 C.ar      1 UNK         0.0000 
     38 C38         3.6073   54.3462   25.1465 C.ar      1 UNK         0.0000 
     39 H39        -1.1351   47.9155   24.5469 H         1 UNK         0.0000 
     40 H40        -0.4623   48.4938   23.0374 H         1 UNK         0.0000 
     41 H41         0.5048   48.5180   24.5305 H         1 UNK         0.0000 
     42 H42        -3.0591   49.3278   24.5019 H         1 UNK         0.0000 
     43 H43        -2.7337   50.1800   23.0556 H         1 UNK         0.0000 
     44 H44        -2.9442   52.6346   22.9615 H         1 UNK         0.0000 
     45 H45        -4.1252   54.5957   23.8581 H         1 UNK         0.0000 
     46 H46        -5.1104   54.5165   26.1334 H         1 UNK         0.0000 
     47 H47        -4.8868   52.5092   27.4923 H         1 UNK         0.0000 
     48 H48        -3.6333   49.2852   28.5991 H         1 UNK         0.0000 
     49 H49        -3.3946   51.0144   28.7052 H         1 UNK         0.0000 
     50 H50        -4.9908   50.3566   28.2912 H         1 UNK         0.0000 
     51 H51         0.5614   51.4708   24.4560 H         1 UNK         0.0000 
     52 H52         1.8251   53.0319   23.9651 H         1 UNK         0.0000 
     53 H53         2.4945   51.4898   23.4223 H         1 UNK         0.0000 
     54 H54         4.0186   52.2367   20.4545 H         1 UNK         0.0000 
     55 H55         3.0505   53.6828   20.4006 H         1 UNK         0.0000 
     56 H56         0.1113   51.7155   19.4071 H         1 UNK         0.0000 
     57 H57         0.8331   53.2921   19.3908 H         1 UNK         0.0000 
     58 H58         1.4309   52.0377   17.2817 H         1 UNK         0.0000 
     59 H59         2.8997   52.4254   18.1977 H         1 UNK         0.0000 
     60 H60         1.4762   49.8324   18.0926 H         1 UNK         0.0000 
     61 H61         3.0150   48.8259   19.5624 H         1 UNK         0.0000 
     62 H62         3.9081   50.3422   19.6817 H         1 UNK         0.0000 
     63 H63         2.5261   50.0748   21.7053 H         1 UNK         0.0000 
     64 H64         1.0893   49.8332   20.7670 H         1 UNK         0.0000 
     65 H65         6.7722   53.9586   23.9844 H         1 UNK         0.0000 
     66 H66         7.2780   54.1702   26.3633 H         1 UNK         0.0000 
     67 H67         6.5226   54.3368   28.7162 H         1 UNK         0.0000 
     68 H68         4.6769   54.4963   30.3400 H         1 UNK         0.0000 
     69 H69         2.3328   54.6124   29.5764 H         1 UNK         0.0000 
     70 H70         1.8054   54.5397   27.1749 H         1 UNK         0.0000 
     71 H71         2.5897   54.5170   24.8415 H         1 UNK         0.0000 
     72 H72         2.9772   50.1416   17.5507 H         1 UNK         0.0000 
@<TRIPOS>BOND
     1    1    2 1    
     2    1   39 1    
     3    1   40 1    
     4    1   41 1    
     5    2    3 1    
     6    2    4 1    
     7    2   13 1    
     8    4    5 1    
     9    4   42 1    
    10    4   43 1    
    11    5   10 ar   
    12    5    6 ar   
    13    6    7 ar   
    14    6   44 1    
    15    7    8 ar   
    16    7   45 1    
    17    8    9 ar   
    18    8   46 1    
    19    9   10 ar   
    20    9   47 1    
    21   10   11 1    
    22   11   12 1    
    23   12   48 1    
    24   12   49 1    
    25   12   50 1    
    26   13   14 am   BACKBONE|DICT|INTERRES
    27   13   51 1    
    28   14   15 2    
    29   14   16 1    
    30   16   17 1    
    31   16   21 1    
    32   16   18 1    
    33   18   19 1    
    34   18   52 1    
    35   18   53 1    
    36   19   20 1    
    37   19   27 am   BACKBONE|DICT|INTERRES
    38   20   21 1    
    39   20   54 1    
    40   20   55 1    
    41   21   26 1    
    42   21   22 1    
    43   22   23 1    
    44   22   56 1    
    45   22   57 1    
    46   23   24 1    
    47   23   58 1    
    48   23   59 1    
    49   24   25 1    
    50   24   60 1    
    51   24   72 1    
    52   25   26 1    
    53   25   61 1    
    54   25   62 1    
    55   26   63 1    
    56   26   64 1    
    57   27   28 2    
    58   27   29 1    
    59   29   38 ar   
    60   29   30 ar   
    61   30   31 ar   
    62   30   65 1    
    63   31   32 ar   
    64   31   66 1    
    65   32   37 ar   
    66   32   33 ar   
    67   33   34 ar   
    68   33   67 1    
    69   34   35 ar   
    70   34   68 1    
    71   35   36 ar   
    72   35   69 1    
    73   36   37 ar   
    74   36   70 1    
    75   37   38 ar   
    76   38   71 1    
@<TRIPOS>SUBSTRUCTURE
     1 UNK         1 GROUP             0       ****    0 ROOT    
