ZINC62824347_3851
                    3D
 Schrodinger Suite 2024-2.
 38 40  0  0  1  0            999 V2000
    3.9043   51.9333   30.8936 C   0  0  0  0  0  0
    3.7346   53.2117   30.0819 C   0  0  2  0  0  0
    4.1873   54.0416   30.6271 H   0  0  0  0  0  0
    2.2318   53.5012   29.8728 C   0  0  0  0  0  0
    2.0384   54.8098   29.0970 C   0  0  0  0  0  0
    2.8090   54.7407   27.7670 C   0  0  0  0  0  0
    4.3183   54.4330   27.9539 C   0  0  1  0  0  0
    4.7263   55.2063   28.6074 H   0  0  0  0  0  0
    4.4411   53.0977   28.7112 C   0  0  0  0  0  0
    5.1170   54.4707   26.6556 C   0  0  0  0  0  0
    4.5399   54.3431   25.4762 N   0  0  0  0  0  0
    5.5423   54.4825   24.6501 C   0  0  0  0  0  0
    6.7294   54.6671   25.2899 O   0  0  0  0  0  0
    6.4228   54.6490   26.6496 N   0  0  0  0  0  0
    5.5045   54.4953   23.1478 C   0  0  0  0  0  0
    6.6393   54.9734   22.4794 C   0  0  0  0  0  0
    6.6695   55.0626   21.0901 C   0  0  0  0  0  0
    5.5665   54.6629   20.3397 C   0  0  0  0  0  0
    4.4340   54.1747   20.9836 C   0  0  0  0  0  0
    4.3906   54.0966   22.3770 C   0  0  0  0  0  0
    3.2100   53.6259   22.9518 N   0  0  0  0  0  0
    8.4128   55.6968   20.1318 I   0  0  0  0  0  0
    3.5043   51.1118   30.3104 H   0  0  0  0  0  0
    3.3860   51.9783   31.8539 H   0  0  0  0  0  0
    4.9500   51.6968   31.0840 H   0  0  0  0  0  0
    1.7610   52.6721   29.3418 H   0  0  0  0  0  0
    1.7086   53.5426   30.8300 H   0  0  0  0  0  0
    2.3892   55.6565   29.6902 H   0  0  0  0  0  0
    0.9777   54.9833   28.9102 H   0  0  0  0  0  0
    2.7042   55.6979   27.2817 H   0  0  0  0  0  0
    2.3404   53.9806   27.1402 H   0  0  0  0  0  0
    5.4895   52.8525   28.8886 H   0  0  0  0  0  0
    4.0124   52.2708   28.1432 H   0  0  0  0  0  0
    7.5045   55.2929   23.0375 H   0  0  0  0  0  0
    5.5922   54.7168   19.2611 H   0  0  0  0  0  0
    3.5818   53.8722   20.3913 H   0  0  0  0  0  0
    3.1335   53.6170   23.9608 H   0  0  0  0  0  0
    2.4131   53.4329   22.3621 H   0  0  0  0  0  0
  1  2  1  0  0  0
  1 23  1  0  0  0
  1 24  1  0  0  0
  1 25  1  0  0  0
  2  3  1  0  0  0
  2  9  1  0  0  0
  2  4  1  0  0  0
  4  5  1  0  0  0
  4 26  1  0  0  0
  4 27  1  0  0  0
  5  6  1  0  0  0
  5 28  1  0  0  0
  5 29  1  0  0  0
  6  7  1  0  0  0
  6 30  1  0  0  0
  6 31  1  0  0  0
  7  8  1  0  0  0
  7  9  1  0  0  0
  7 10  1  0  0  0
  9 32  1  0  0  0
  9 33  1  0  0  0
 10 14  2  0  0  0
 10 11  1  0  0  0
 11 12  2  0  0  0
 12 13  1  0  0  0
 12 15  1  0  0  0
 13 14  1  0  0  0
 15 20  2  0  0  0
 15 16  1  0  0  0
 16 17  2  0  0  0
 16 34  1  0  0  0
 17 18  1  0  0  0
 17 22  1  0  0  0
 18 19  2  0  0  0
 18 35  1  0  0  0
 19 20  1  0  0  0
 19 36  1  0  0  0
 20 21  1  0  0  0
 21 37  1  0  0  0
 21 38  1  0  0  0
M  END
> <i_i_glide_confnum>
4

> <i_i_glide_lignum>
3852

> <i_i_glide_posenum>
204

> <i_i_glide_rotatable_bonds>
2

> <i_m_Source_File_Index>
219

> <b_m_subgroup_collapsed>
0

> <r_i_docking_score>
-5.80983

> <r_i_glide_ecoul>
-1.45465

> <r_i_glide_eff_state_penalty>
0

> <r_i_glide_einternal>
2.24693

> <r_i_glide_emodel>
-49.6226

> <r_i_glide_energy>
-37.6718

> <r_i_glide_erotb>
0.264599

> <r_i_glide_esite>
0

> <r_i_glide_evdw>
-36.2171

> <r_i_glide_gscore>
-5.80983

> <r_i_glide_hbond>
0

> <r_i_glide_ligand_efficiency>
-0.290492

> <r_i_glide_ligand_efficiency_ln>
-1.45401

> <r_i_glide_ligand_efficiency_sa>
-0.788515

> <r_i_glide_lipo>
-2.73144

> <r_i_glide_metal>
0

> <r_i_glide_rewards>
-1.31394

> <s_i_glide_gridfile>
wee1_glide-grid

> <s_m_Source_File>
wee1_decoys_glide_SP.sdf

> <s_m_Source_Path>
/Users/zhangxujun/Desktop

> <s_m_entry_id>
494

> <s_m_entry_name>
wee1_decoys_glide_SP.219

> <s_m_subgroup_title>
wee1_decoys_glide_SP

> <s_m_subgroupid>
wee1_decoys_glide_SP


$$$$
