ZINC16612542_4485
                    3D
 Schrodinger Suite 2024-2.
 63 65  0  0  1  0            999 V2000
    0.0297   48.6323   24.5053 C   0  0  0  0  0  0
   -0.7507   49.5392   25.4725 C   0  0  0  0  0  0
   -0.4097   50.9834   25.3196 N   0  0  0  0  0  0
    0.5456   51.6102   26.1232 C   0  0  0  0  0  0
    1.1170   52.7911   25.7477 C   0  0  0  0  0  0
    0.8350   53.3927   24.3554 C   0  0  2  0  0  0
    0.8259   54.4818   24.4295 H   0  0  0  0  0  0
   -0.5039   52.8969   23.9738 N   0  0  0  0  0  0
   -1.0514   51.6896   24.3014 C   0  0  0  0  0  0
   -2.3845   51.2523   23.3901 S   0  0  0  0  0  0
    1.9251   53.1260   23.2995 C   0  0  0  0  0  0
    1.9029   51.9893   22.4804 C   0  0  0  0  0  0
    2.8199   51.8489   21.4393 C   0  0  0  0  0  0
    3.7712   52.8422   21.1954 C   0  0  0  0  0  0
    3.8281   53.9567   22.0455 C   0  0  0  0  0  0
    2.9041   54.0970   23.0761 C   0  0  0  0  0  0
    4.6149   52.6439   20.0814 N   0  0  0  0  0  0
    5.4588   53.5103   19.4829 C   0  0  0  0  0  0
    5.6316   54.6814   19.8208 O   0  0  0  0  0  0
    6.1056   52.8967   18.4724 N   0  0  0  0  0  0
    7.1722   53.3616   17.6815 C   0  0  0  0  0  0
    7.5027   52.5813   16.5695 C   0  0  0  0  0  0
    8.5776   52.9304   15.7515 C   0  0  0  0  0  0
    9.3359   54.0638   16.0415 C   0  0  0  0  0  0
    9.0191   54.8482   17.1517 C   0  0  0  0  0  0
    7.9441   54.5005   17.9702 C   0  0  0  0  0  0
    9.7555   55.9450   17.4421 F   0  0  0  0  0  0
   10.3777   54.3977   15.2459 F   0  0  0  0  0  0
    2.0453   53.5408   26.6041 C   0  0  0  0  0  0
    1.6991   54.0337   27.6802 O   0  0  0  0  0  0
    3.2893   53.6263   26.0863 O   0  0  0  0  0  0
    4.3515   54.2911   26.7666 C   0  0  0  0  0  0
    5.2164   53.3323   27.6189 C   0  0  0  0  0  0
    6.5158   54.0260   28.0588 C   0  0  0  0  0  0
    4.4664   52.7521   28.8347 C   0  0  0  0  0  0
    0.8301   50.9186   27.4644 C   0  0  0  0  0  0
   -0.2034   47.5837   24.6915 H   0  0  0  0  0  0
   -0.2122   48.8414   23.4627 H   0  0  0  0  0  0
    1.1037   48.7571   24.6419 H   0  0  0  0  0  0
   -0.5675   49.1777   26.4815 H   0  0  0  0  0  0
   -1.8215   49.3642   25.3632 H   0  0  0  0  0  0
   -0.9806   53.3492   23.2089 H   0  0  0  0  0  0
    1.1614   51.2184   22.6250 H   0  0  0  0  0  0
    2.7646   50.9757   20.8044 H   0  0  0  0  0  0
    4.5568   54.7398   21.9157 H   0  0  0  0  0  0
    2.9425   54.9818   23.6938 H   0  0  0  0  0  0
    4.5256   51.7450   19.6260 H   0  0  0  0  0  0
    5.8046   51.9456   18.2517 H   0  0  0  0  0  0
    6.9275   51.6963   16.3368 H   0  0  0  0  0  0
    8.8264   52.3213   14.8950 H   0  0  0  0  0  0
    7.7469   55.1203   18.8302 H   0  0  0  0  0  0
    3.9864   55.1259   27.3677 H   0  0  0  0  0  0
    4.9779   54.7307   25.9897 H   0  0  0  0  0  0
    5.5044   52.4990   26.9778 H   0  0  0  0  0  0
    6.3039   54.8861   28.6931 H   0  0  0  0  0  0
    7.0900   54.3800   27.2020 H   0  0  0  0  0  0
    7.1610   53.3497   28.6201 H   0  0  0  0  0  0
    4.0945   53.5414   29.4891 H   0  0  0  0  0  0
    3.6170   52.1467   28.5244 H   0  0  0  0  0  0
    5.1041   52.0996   29.4292 H   0  0  0  0  0  0
    1.4241   51.5067   28.1591 H   0  0  0  0  0  0
   -0.0971   50.6833   27.9891 H   0  0  0  0  0  0
    1.3836   49.9986   27.2817 H   0  0  0  0  0  0
  1  2  1  0  0  0
  1 37  1  0  0  0
  1 38  1  0  0  0
  1 39  1  0  0  0
  2  3  1  0  0  0
  2 40  1  0  0  0
  2 41  1  0  0  0
  3  9  1  0  0  0
  3  4  1  0  0  0
  4  5  2  0  0  0
  4 36  1  0  0  0
  5  6  1  0  0  0
  5 29  1  0  0  0
  6  7  1  0  0  0
  6  8  1  0  0  0
  6 11  1  0  0  0
  8  9  1  0  0  0
  8 42  1  0  0  0
  9 10  2  0  0  0
 11 16  2  0  0  0
 11 12  1  0  0  0
 12 13  2  0  0  0
 12 43  1  0  0  0
 13 14  1  0  0  0
 13 44  1  0  0  0
 14 15  2  0  0  0
 14 17  1  0  0  0
 15 16  1  0  0  0
 15 45  1  0  0  0
 16 46  1  0  0  0
 17 18  1  0  0  0
 17 47  1  0  0  0
 18 19  2  0  0  0
 18 20  1  0  0  0
 20 21  1  0  0  0
 20 48  1  0  0  0
 21 26  2  0  0  0
 21 22  1  0  0  0
 22 23  2  0  0  0
 22 49  1  0  0  0
 23 24  1  0  0  0
 23 50  1  0  0  0
 24 25  2  0  0  0
 24 28  1  0  0  0
 25 26  1  0  0  0
 25 27  1  0  0  0
 26 51  1  0  0  0
 29 30  2  0  0  0
 29 31  1  0  0  0
 31 32  1  0  0  0
 32 33  1  0  0  0
 32 52  1  0  0  0
 32 53  1  0  0  0
 33 34  1  0  0  0
 33 35  1  0  0  0
 33 54  1  0  0  0
 34 55  1  0  0  0
 34 56  1  0  0  0
 34 57  1  0  0  0
 35 58  1  0  0  0
 35 59  1  0  0  0
 35 60  1  0  0  0
 36 61  1  0  0  0
 36 62  1  0  0  0
 36 63  1  0  0  0
M  END
> <i_i_glide_confnum>
159

> <i_i_glide_lignum>
4486

> <i_i_glide_posenum>
196

> <i_i_glide_rotatable_bonds>
10

> <i_m_Source_File_Index>
3476

> <b_m_subgroup_collapsed>
0

> <r_i_docking_score>
-5.19088

> <r_i_glide_ecoul>
-5.11503

> <r_i_glide_eff_state_penalty>
0

> <r_i_glide_einternal>
4.22124

> <r_i_glide_emodel>
-62.3193

> <r_i_glide_energy>
-47.4625

> <r_i_glide_erotb>
0.566302

> <r_i_glide_esite>
-0.225544

> <r_i_glide_evdw>
-42.3475

> <r_i_glide_gscore>
-5.19088

> <r_i_glide_hbond>
-0.239347

> <r_i_glide_ligand_efficiency>
-0.148311

> <r_i_glide_ligand_efficiency_ln>
-1.13951

> <r_i_glide_ligand_efficiency_sa>
-0.485135

> <r_i_glide_lipo>
-2.17838

> <r_i_glide_metal>
0

> <r_i_glide_rewards>
-0.229282

> <s_i_glide_gridfile>
wee1_glide-grid

> <s_m_Source_File>
wee1_decoys_glide_SP.sdf

> <s_m_Source_Path>
/Users/zhangxujun/Desktop

> <s_m_entry_id>
3751

> <s_m_entry_name>
wee1_decoys_glide_SP.3476

> <s_m_subgroup_title>
wee1_decoys_glide_SP

> <s_m_subgroupid>
wee1_decoys_glide_SP


$$$$
