@<TRIPOS>MOLECULE
ZINC50986407_1751
37   39    1
SMALL
USER_CHARGES


@<TRIPOS>ATOM
      1 C1          1.0954   50.0374   23.4861 C.3       1 UNK         0.0000 
      2 C2          0.7613   50.9743   22.3160 C.3       1 UNK         0.0000 
      3 N3          1.8353   51.9396   22.0478 N.pl3     1 UNK         0.0000 
      4 C4          2.8070   51.7367   21.1471 C.2       1 UNK         0.0000 
      5 N5          3.6328   52.7752   21.1795 N.pl3     1 UNK         0.0000 
      6 C6          3.2257   53.7471   22.1762 C.3       1 UNK         0.0000 
      7 C7          1.9596   53.1281   22.6587 C.2       1 UNK         0.0000 
      8 N8          1.1040   53.6915   23.5144 N.pl3     1 UNK         0.0000 
      9 C9          4.3005   54.0245   23.2208 C.ar      1 UNK         0.0000 
     10 C10         5.5604   54.4966   22.8139 C.ar      1 UNK         0.0000 
     11 C11         6.5458   54.8054   23.7575 C.ar      1 UNK         0.0000 
     12 C12         6.2487   54.6181   25.1039 C.ar      1 UNK         0.0000 
     13 C13         5.0226   54.1460   25.5239 C.ar      1 UNK         0.0000 
     14 C14         4.0384   53.8470   24.5868 C.ar      1 UNK         0.0000 
     15 C15         5.0241   54.0925   27.0138 C.3       1 UNK         0.0000 
     16 C16         6.4641   54.4956   27.3486 C.3       1 UNK         0.0000 
     17 O17         7.1044   54.8976   26.1364 O.3       1 UNK         0.0000 
     18 C18         2.9606   50.5582   20.2288 C.3       1 UNK         0.0000 
     19 H19         0.2939   49.3156   23.6552 H         1 UNK         0.0000 
     20 H20         1.2368   50.5864   24.4194 H         1 UNK         0.0000 
     21 H21         2.0079   49.4637   23.3002 H         1 UNK         0.0000 
     22 H22         0.5992   50.4055   21.4004 H         1 UNK         0.0000 
     23 H23        -0.1511   51.5374   22.5045 H         1 UNK         0.0000 
     24 H24         1.3127   54.6041   23.8974 H         1 UNK         0.0000 
     25 H25         2.9889   54.6882   21.6786 H         1 UNK         0.0000 
     26 H26         5.7765   54.6532   21.7649 H         1 UNK         0.0000 
     27 H27         7.5044   55.1925   23.4414 H         1 UNK         0.0000 
     28 H28         3.0961   53.4620   24.9371 H         1 UNK         0.0000 
     29 H29         4.3203   54.8016   27.4543 H         1 UNK         0.0000 
     30 H30         4.8041   53.0973   27.4082 H         1 UNK         0.0000 
     31 H31         6.9998   53.6396   27.7616 H         1 UNK         0.0000 
     32 H32         6.4781   55.2993   28.0815 H         1 UNK         0.0000 
     33 H33         2.9489   49.6270   20.7986 H         1 UNK         0.0000 
     34 H34         2.1539   50.5445   19.4966 H         1 UNK         0.0000 
     35 H35         3.9041   50.6186   19.6823 H         1 UNK         0.0000 
     36 H36         0.2695   53.2043   23.8118 H         1 UNK         0.0000 
     37 H37         4.4505   52.8811   20.5925 H         1 UNK         0.0000 
@<TRIPOS>BOND
     1    1    2 1    
     2    1   19 1    
     3    1   20 1    
     4    1   21 1    
     5    2   22 1    
     6    2   23 1    
     7    2    3 1    
     8    3    4 1    
     9    3    7 1    
    10    4    5 2    
    11    4   18 1    
    12    5    6 1    
    13    5   37 1    
    14    6    9 1    
    15    6   25 1    
    16    6    7 1    
    17    7    8 2    
    18    8   24 1    
    19    8   36 1    
    20    9   14 ar   
    21    9   10 ar   
    22   10   11 ar   
    23   10   26 1    
    24   11   12 ar   
    25   11   27 1    
    26   12   17 1    
    27   12   13 ar   
    28   13   14 ar   
    29   13   15 1    
    30   14   28 1    
    31   15   16 1    
    32   15   29 1    
    33   15   30 1    
    34   16   17 1    
    35   16   31 1    
    36   16   32 1    
    37   18   33 1    
    38   18   34 1    
    39   18   35 1    
@<TRIPOS>SUBSTRUCTURE
     1 UNK         1 GROUP             0       ****    0 ROOT    
