@<TRIPOS>MOLECULE
ZINC58908331_2271
57   60    1
SMALL
USER_CHARGES


@<TRIPOS>ATOM
      1 C1          0.0235   51.9071   26.6336 C.3       1 UNK         0.0000 
      2 O2          1.1650   52.4969   26.0258 O.3       1 UNK         0.0000 
      3 C3          1.1334   52.8970   24.7365 C.2       1 UNK         0.0000 
      4 O4          0.1524   52.7846   23.9944 O.2       1 UNK         0.0000 
      5 C5          2.4374   53.4212   24.2782 C.2       1 UNK         0.0000 
      6 C6          3.4213   54.0956   25.0717 C.2       1 UNK         0.0000 
      7 C7          4.5773   54.4432   24.3558 C.2       1 UNK         0.0000 
      8 S8          4.4592   53.9518   22.7044 S.3       1 UNK         0.0000 
      9 C9          2.8818   53.2777   22.9528 C.2       1 UNK         0.0000 
     10 N10         2.1773   52.6180   21.9441 N.am      1 UNK         0.0000 
     11 C11         2.5669   52.2811   20.6947 C.2       1 UNK         0.0000 
     12 O12         3.6908   52.4809   20.2328 O.2       1 UNK         0.0000 
     13 C13         1.5223   51.5497   19.8773 C.ar      1 UNK         0.0000 
     14 C14         0.1466   51.6964   20.1284 C.ar      1 UNK         0.0000 
     15 C15        -0.7940   50.9957   19.3734 C.ar      1 UNK         0.0000 
     16 C16        -0.3804   50.1350   18.3579 C.ar      1 UNK         0.0000 
     17 C17         0.9856   49.9754   18.0893 C.ar      1 UNK         0.0000 
     18 C18         1.9219   50.6950   18.8388 C.ar      1 UNK         0.0000 
     19 N19         1.5044   49.1389   17.0893 N.am      1 UNK         0.0000 
     20 C20         0.9569   48.0660   16.4840 C.2       1 UNK         0.0000 
     21 O21        -0.1703   47.6281   16.7258 O.2       1 UNK         0.0000 
     22 C22         1.8958   47.3360   15.4854 C.3       1 UNK         0.0000 
     23 H23         2.5223   48.0976   15.0167 H         1 UNK         0.0000 
     24 C24         2.7730   46.2862   16.1804 C.3       1 UNK         0.0000 
     25 C25         1.9862   44.9909   16.0963 C.3       1 UNK         0.0000 
     26 C26         0.9335   45.2378   15.0110 C.3       1 UNK         0.0000 
     27 O27         1.1851   46.5559   14.5183 O.3       1 UNK         0.0000 
     28 C28         5.8094   55.1318   24.9074 C.3       1 UNK         0.0000 
     29 C29         6.5120   54.3151   26.0083 C.3       1 UNK         0.0000 
     30 C30         5.8077   54.2973   27.3823 C.3       1 UNK         0.0000 
     31 C31         4.3720   53.7302   27.4329 C.3       1 UNK         0.0000 
     32 C32         3.3359   54.4583   26.5500 C.3       1 UNK         0.0000 
     33 H33         0.2510   51.6348   27.6645 H         1 UNK         0.0000 
     34 H34        -0.8192   52.6000   26.6425 H         1 UNK         0.0000 
     35 H35        -0.2791   51.0012   26.1054 H         1 UNK         0.0000 
     36 H36         1.2631   52.2945   22.2253 H         1 UNK         0.0000 
     37 H37        -0.2116   52.3572   20.9048 H         1 UNK         0.0000 
     38 H38        -1.8477   51.1176   19.5754 H         1 UNK         0.0000 
     39 H39        -1.1292   49.6111   17.7836 H         1 UNK         0.0000 
     40 H40         2.9773   50.5715   18.6214 H         1 UNK         0.0000 
     41 H41         2.4953   49.2940   16.8816 H         1 UNK         0.0000 
     42 H42         3.0438   46.5575   17.2032 H         1 UNK         0.0000 
     43 H43         3.7236   46.2053   15.6529 H         1 UNK         0.0000 
     44 H44         1.5002   44.7717   17.0481 H         1 UNK         0.0000 
     45 H45         2.6339   44.1476   15.8527 H         1 UNK         0.0000 
     46 H46        -0.0756   45.1861   15.4230 H         1 UNK         0.0000 
     47 H47         1.0057   44.5147   14.1975 H         1 UNK         0.0000 
     48 H48         6.5180   55.3504   24.1067 H         1 UNK         0.0000 
     49 H49         5.5365   56.1001   25.3253 H         1 UNK         0.0000 
     50 H50         6.6778   53.2967   25.6606 H         1 UNK         0.0000 
     51 H51         7.5044   54.7321   26.1591 H         1 UNK         0.0000 
     52 H52         6.4260   53.7229   28.0741 H         1 UNK         0.0000 
     53 H53         5.8003   55.3085   27.7880 H         1 UNK         0.0000 
     54 H54         4.3844   52.6672   27.1910 H         1 UNK         0.0000 
     55 H55         4.0342   53.7826   28.4689 H         1 UNK         0.0000 
     56 H56         3.5042   55.5268   26.6427 H         1 UNK         0.0000 
     57 H57         2.3406   54.3346   26.9695 H         1 UNK         0.0000 
@<TRIPOS>BOND
     1    1    2 1    
     2    1   33 1    
     3    1   34 1    
     4    1   35 1    
     5    2    3 1    
     6    3    4 2    
     7    3    5 1    
     8    5    9 2    
     9    5    6 1    
    10    6   32 1    
    11    6    7 2    
    12    7    8 1    
    13    7   28 1    
    14    8    9 1    
    15    9   10 am   BACKBONE|DICT|INTERRES
    16   10   11 am   BACKBONE|DICT|INTERRES
    17   10   36 1    
    18   11   12 2    
    19   11   13 1    
    20   13   18 ar   
    21   13   14 ar   
    22   14   15 ar   
    23   14   37 1    
    24   15   16 ar   
    25   15   38 1    
    26   16   17 ar   
    27   16   39 1    
    28   17   18 ar   
    29   17   19 1    
    30   18   40 1    
    31   19   20 am   BACKBONE|DICT|INTERRES
    32   19   41 1    
    33   20   21 2    
    34   20   22 1    
    35   22   23 1    
    36   22   27 1    
    37   22   24 1    
    38   24   25 1    
    39   24   42 1    
    40   24   43 1    
    41   25   26 1    
    42   25   44 1    
    43   25   45 1    
    44   26   27 1    
    45   26   46 1    
    46   26   47 1    
    47   28   29 1    
    48   28   48 1    
    49   28   49 1    
    50   29   30 1    
    51   29   50 1    
    52   29   51 1    
    53   30   31 1    
    54   30   52 1    
    55   30   53 1    
    56   31   32 1    
    57   31   54 1    
    58   31   55 1    
    59   32   56 1    
    60   32   57 1    
@<TRIPOS>SUBSTRUCTURE
     1 UNK         1 GROUP             0       ****    0 ROOT    
