@<TRIPOS>MOLECULE
ZINC18058732_3625
65   69    1
SMALL
USER_CHARGES


@<TRIPOS>ATOM
      1 C1          7.0704   55.2414   22.9424 C.3       1 UNK         0.0000 
      2 O2          7.1037   55.3459   24.3681 O.3       1 UNK         0.0000 
      3 C3          6.0166   54.9060   25.0962 C.ar      1 UNK         0.0000 
      4 C4          4.8047   54.4962   24.5277 C.ar      1 UNK         0.0000 
      5 C5          3.7441   54.1000   25.3322 C.ar      1 UNK         0.0000 
      6 C6          3.8675   54.0869   26.7275 C.ar      1 UNK         0.0000 
      7 C7          5.0855   54.4963   27.2896 C.ar      1 UNK         0.0000 
      8 C8          6.1473   54.8957   26.4832 C.ar      1 UNK         0.0000 
      9 C9          2.7160   53.6013   27.6441 C.3       1 UNK         0.0000 
     10 C10         3.2630   52.5290   28.6383 C.3       1 UNK         0.0000 
     11 C11         2.1647   52.0168   29.5874 C.3       1 UNK         0.0000 
     12 H12         2.6012   51.2975   30.2709 H         1 UNK         0.0000 
     13 C13         1.6399   53.2142   30.3980 C.3       1 UNK         0.0000 
     14 C14         1.0230   54.2663   29.4562 C.3       1 UNK         0.0000 
     15 H15         0.6415   55.1021   30.0459 H         1 UNK         0.0000 
     16 C16         2.1176   54.7789   28.4759 C.3       1 UNK         0.0000 
     17 C17        -0.1351   53.6021   28.6777 C.3       1 UNK         0.0000 
     18 C18         0.4085   52.4222   27.8107 C.3       1 UNK         0.0000 
     19 C19         1.0379   51.3600   28.7596 C.3       1 UNK         0.0000 
     20 C20         1.5264   52.9460   26.8557 C.3       1 UNK         0.0000 
     21 C21        -0.7318   51.8232   26.9322 C.2       1 UNK         0.0000 
     22 O22        -1.4858   52.5583   26.2989 O.2       1 UNK         0.0000 
     23 N23        -0.8637   50.4962   26.8245 N.am      1 UNK         0.0000 
     24 C24        -0.2229   49.7210   25.7635 C.3       1 UNK         0.0000 
     25 C25        -0.6290   50.0881   24.3153 C.3       1 UNK         0.0000 
     26 C26         0.4950   50.7092   23.4939 C.ar      1 UNK         0.0000 
     27 C27         0.6138   52.0971   23.3753 C.ar      1 UNK         0.0000 
     28 C28         1.6405   52.6472   22.6053 C.ar      1 UNK         0.0000 
     29 C29         2.5506   51.8055   21.9575 C.ar      1 UNK         0.0000 
     30 C30         2.4221   50.4206   22.0670 C.ar      1 UNK         0.0000 
     31 C31         1.4040   49.8752   22.8415 C.ar      1 UNK         0.0000 
     32 S32         3.9084   52.4747   20.9935 S.o2      1 UNK         0.0000 
     33 O33         3.8944   53.9337   21.1330 O.2       1 UNK         0.0000 
     34 O34         5.1017   51.6978   21.3433 O.2       1 UNK         0.0000 
     35 N35         3.5047   52.0938   19.3416 N.pl3     1 UNK         0.0000 
     36 H36         7.9041   55.7737   22.4960 H         1 UNK         0.0000 
     37 H37         7.1226   54.1987   22.6284 H         1 UNK         0.0000 
     38 H38         6.1856   55.6943   22.5031 H         1 UNK         0.0000 
     39 H39         4.6589   54.4822   23.4612 H         1 UNK         0.0000 
     40 H40         2.8369   53.7938   24.8393 H         1 UNK         0.0000 
     41 H41         5.2244   54.5221   28.3598 H         1 UNK         0.0000 
     42 H42         7.0716   55.2085   26.9450 H         1 UNK         0.0000 
     43 H43         3.6673   51.6979   28.0835 H         1 UNK         0.0000 
     44 H44         4.0887   52.9120   29.2385 H         1 UNK         0.0000 
     45 H45         0.9314   52.8970   31.1657 H         1 UNK         0.0000 
     46 H46         2.4942   53.6567   30.8865 H         1 UNK         0.0000 
     47 H47         2.9033   55.2865   29.0364 H         1 UNK         0.0000 
     48 H48         1.6943   55.5337   27.8139 H         1 UNK         0.0000 
     49 H49        -0.6266   54.3646   28.0810 H         1 UNK         0.0000 
     50 H50        -0.8961   53.2402   29.3750 H         1 UNK         0.0000 
     51 H51         0.2770   50.9316   29.4145 H         1 UNK         0.0000 
     52 H52         1.4606   50.5319   28.1866 H         1 UNK         0.0000 
     53 H53         1.8917   52.1200   26.2403 H         1 UNK         0.0000 
     54 H54         1.1073   53.6791   26.1654 H         1 UNK         0.0000 
     55 H55        -1.0203   49.9440   27.6682 H         1 UNK         0.0000 
     56 H56        -0.5932   48.7099   25.9463 H         1 UNK         0.0000 
     57 H57         0.8549   49.5993   25.8913 H         1 UNK         0.0000 
     58 H58        -1.5196   50.7189   24.2955 H         1 UNK         0.0000 
     59 H59        -0.9663   49.1870   23.8002 H         1 UNK         0.0000 
     60 H60        -0.0872   52.7472   23.8792 H         1 UNK         0.0000 
     61 H61         1.7279   53.7217   22.5149 H         1 UNK         0.0000 
     62 H62         3.1119   49.7631   21.5570 H         1 UNK         0.0000 
     63 H63         1.3244   48.8030   22.9350 H         1 UNK         0.0000 
     64 H64         3.2362   52.9063   18.7844 H         1 UNK         0.0000 
     65 H65         4.1649   51.4490   18.8731 H         1 UNK         0.0000 
@<TRIPOS>BOND
     1    1    2 1    
     2    1   36 1    
     3    1   37 1    
     4    1   38 1    
     5    2    3 1    
     6    3    8 ar   
     7    3    4 ar   
     8    4    5 ar   
     9    4   39 1    
    10    5    6 ar   
    11    5   40 1    
    12    6    7 ar   
    13    6    9 1    
    14    7    8 ar   
    15    7   41 1    
    16    8   42 1    
    17    9   16 1    
    18    9   20 1    
    19    9   10 1    
    20   10   11 1    
    21   10   43 1    
    22   10   44 1    
    23   11   12 1    
    24   11   19 1    
    25   11   13 1    
    26   13   14 1    
    27   13   45 1    
    28   13   46 1    
    29   14   15 1    
    30   14   16 1    
    31   14   17 1    
    32   16   47 1    
    33   16   48 1    
    34   17   18 1    
    35   17   49 1    
    36   17   50 1    
    37   18   19 1    
    38   18   20 1    
    39   18   21 1    
    40   19   51 1    
    41   19   52 1    
    42   20   53 1    
    43   20   54 1    
    44   21   22 2    
    45   21   23 am   BACKBONE|DICT|INTERRES
    46   23   24 1    
    47   23   55 1    
    48   24   25 1    
    49   24   56 1    
    50   24   57 1    
    51   25   26 1    
    52   25   58 1    
    53   25   59 1    
    54   26   31 ar   
    55   26   27 ar   
    56   27   28 ar   
    57   27   60 1    
    58   28   29 ar   
    59   28   61 1    
    60   29   30 ar   
    61   29   32 1    
    62   30   31 ar   
    63   30   62 1    
    64   31   63 1    
    65   32   33 2    
    66   32   34 2    
    67   32   35 1    
    68   35   64 1    
    69   35   65 1    
@<TRIPOS>SUBSTRUCTURE
     1 UNK         1 GROUP             0       ****    0 ROOT    
