ZINC13016721_5879
                    3D
 Schrodinger Suite 2024-2.
 56 59  0  0  1  0            999 V2000
    1.4316   50.8270   22.9451 C   0  0  0  0  0  0
    0.4633   51.9402   23.4183 C   0  0  1  0  0  0
    0.5998   52.8141   22.7776 H   0  0  0  0  0  0
   -0.9972   51.4949   23.2331 C   0  0  0  0  0  0
   -1.7366   52.0979   22.4536 O   0  0  0  0  0  0
   -1.4019   50.4402   23.9647 N   0  0  0  0  0  0
   -2.7186   49.8037   23.9151 C   0  0  0  0  0  0
   -2.8623   48.8426   22.7069 C   0  0  0  0  0  0
   -1.8890   47.6432   22.7910 C   0  0  0  0  0  0
   -2.0644   46.8656   24.1131 C   0  0  0  0  0  0
   -2.0135   47.7851   25.3517 C   0  0  0  0  0  0
   -2.9763   48.9874   25.2058 C   0  0  0  0  0  0
    0.7223   52.4967   25.1452 S   0  0  0  0  0  0
    2.3454   53.3245   25.1225 C   0  0  0  0  0  0
    2.8719   53.5304   23.9687 N   0  0  0  0  0  0
    4.1449   54.0865   23.8362 C   0  0  0  0  0  0
    4.6519   54.2820   22.5533 C   0  0  0  0  0  0
    5.9044   54.8966   22.3717 C   0  0  0  0  0  0
    6.6571   55.2284   23.5107 C   0  0  0  0  0  0
    6.1725   54.9883   24.7971 C   0  0  0  0  0  0
    4.8983   54.4366   24.9517 C   0  0  0  0  0  0
    4.3015   54.2171   26.3245 C   0  0  0  0  0  0
    4.9190   54.4963   27.3586 O   0  0  0  0  0  0
    3.0106   53.7061   26.2942 N   0  0  0  0  0  0
    2.3483   53.6124   27.5540 C   0  0  0  0  0  0
    2.0302   52.3618   28.1021 C   0  0  0  0  0  0
    1.3330   52.2785   29.3025 C   0  0  0  0  0  0
    0.9844   53.4441   29.9820 C   0  0  0  0  0  0
    1.3205   54.6922   29.4666 C   0  0  0  0  0  0
    1.9944   54.7787   28.2518 C   0  0  0  0  0  0
    0.3154   53.3657   31.1527 F   0  0  0  0  0  0
    6.3740   55.2972   21.0045 C   0  0  0  0  0  0
    7.1039   56.3156   20.9132 O   0  0  0  0  0  0
    1.1825   50.4694   21.9444 H   0  0  0  0  0  0
    2.4605   51.1796   22.8925 H   0  0  0  0  0  0
    1.4195   49.9663   23.6155 H   0  0  0  0  0  0
   -0.7091   49.9611   24.5202 H   0  0  0  0  0  0
   -3.4734   50.5920   23.8516 H   0  0  0  0  0  0
   -2.6961   49.3883   21.7764 H   0  0  0  0  0  0
   -3.8891   48.4790   22.6499 H   0  0  0  0  0  0
   -0.8605   47.9978   22.7101 H   0  0  0  0  0  0
   -2.0450   46.9747   21.9428 H   0  0  0  0  0  0
   -1.2981   46.0952   24.1985 H   0  0  0  0  0  0
   -3.0224   46.3452   24.0981 H   0  0  0  0  0  0
   -0.9935   48.1394   25.5086 H   0  0  0  0  0  0
   -2.2640   47.2182   26.2504 H   0  0  0  0  0  0
   -4.0073   48.6284   25.2125 H   0  0  0  0  0  0
   -2.8846   49.6345   26.0822 H   0  0  0  0  0  0
    4.0426   54.0226   21.6978 H   0  0  0  0  0  0
    7.6003   55.7364   23.3897 H   0  0  0  0  0  0
    6.7657   55.2739   25.6542 H   0  0  0  0  0  0
    2.2931   51.4500   27.5895 H   0  0  0  0  0  0
    1.0557   51.3093   29.6884 H   0  0  0  0  0  0
    1.0517   55.5912   30.0023 H   0  0  0  0  0  0
    2.2450   55.7506   27.8563 H   0  0  0  0  0  0
    5.9788   54.6136   20.0341 O   0  5  0  0  0  0
  1  2  1  0  0  0
  1 34  1  0  0  0
  1 35  1  0  0  0
  1 36  1  0  0  0
  2  3  1  0  0  0
  2  4  1  0  0  0
  2 13  1  0  0  0
  4  5  2  0  0  0
  4  6  1  0  0  0
  6  7  1  0  0  0
  6 37  1  0  0  0
  7 12  1  0  0  0
  7  8  1  0  0  0
  7 38  1  0  0  0
  8  9  1  0  0  0
  8 39  1  0  0  0
  8 40  1  0  0  0
  9 10  1  0  0  0
  9 41  1  0  0  0
  9 42  1  0  0  0
 10 11  1  0  0  0
 10 43  1  0  0  0
 10 44  1  0  0  0
 11 12  1  0  0  0
 11 45  1  0  0  0
 11 46  1  0  0  0
 12 47  1  0  0  0
 12 48  1  0  0  0
 13 14  1  0  0  0
 14 24  1  0  0  0
 14 15  2  0  0  0
 15 16  1  0  0  0
 16 21  2  0  0  0
 16 17  1  0  0  0
 17 18  2  0  0  0
 17 49  1  0  0  0
 18 19  1  0  0  0
 18 32  1  0  0  0
 19 20  2  0  0  0
 19 50  1  0  0  0
 20 21  1  0  0  0
 20 51  1  0  0  0
 21 22  1  0  0  0
 22 23  2  0  0  0
 22 24  1  0  0  0
 24 25  1  0  0  0
 25 30  2  0  0  0
 25 26  1  0  0  0
 26 27  2  0  0  0
 26 52  1  0  0  0
 27 28  1  0  0  0
 27 53  1  0  0  0
 28 29  2  0  0  0
 28 31  1  0  0  0
 29 30  1  0  0  0
 29 54  1  0  0  0
 30 55  1  0  0  0
 32 33  2  0  0  0
 32 56  1  0  0  0
M  CHG  1  56  -1
M  END
> <i_i_glide_confnum>
46

> <i_i_glide_lignum>
5880

> <i_i_glide_posenum>
341

> <i_i_glide_rotatable_bonds>
7

> <i_m_Source_File_Index>
1430

> <b_m_subgroup_collapsed>
0

> <r_i_docking_score>
-6.57951

> <r_i_glide_ecoul>
-4.01403

> <r_i_glide_eff_state_penalty>
0

> <r_i_glide_einternal>
4.42022

> <r_i_glide_emodel>
-65.1814

> <r_i_glide_energy>
-46.9636

> <r_i_glide_erotb>
0.459896

> <r_i_glide_esite>
-0.0330177

> <r_i_glide_evdw>
-42.9496

> <r_i_glide_gscore>
-6.57951

> <r_i_glide_hbond>
-0.103207

> <r_i_glide_ligand_efficiency>
-0.199379

> <r_i_glide_ligand_efficiency_ln>
-1.46325

> <r_i_glide_ligand_efficiency_sa>
-0.639516

> <r_i_glide_lipo>
-3.12501

> <r_i_glide_metal>
0

> <r_i_glide_rewards>
-1.02859

> <s_i_glide_gridfile>
wee1_glide-grid

> <s_m_Source_File>
wee1_decoys_glide_SP.sdf

> <s_m_Source_Path>
/Users/zhangxujun/Desktop

> <s_m_entry_id>
1705

> <s_m_entry_name>
wee1_decoys_glide_SP.1430

> <s_m_subgroup_title>
wee1_decoys_glide_SP

> <s_m_subgroupid>
wee1_decoys_glide_SP


$$$$
