@<TRIPOS>MOLECULE
ZINC35201758_4239
73   78    1
SMALL
USER_CHARGES


@<TRIPOS>ATOM
      1 C1         -5.2003   50.2538   31.6890 C.3       1 UNK         0.0000 
      2 C2         -5.2553   50.4970   30.1934 C.ar      1 UNK         0.0000 
      3 C3         -6.4526   50.8714   29.5782 C.ar      1 UNK         0.0000 
      4 C4         -6.4873   51.1106   28.2046 C.ar      1 UNK         0.0000 
      5 C5         -5.3253   50.9843   27.4403 C.ar      1 UNK         0.0000 
      6 C6         -4.1131   50.6245   28.0514 C.ar      1 UNK         0.0000 
      7 C7         -4.0952   50.3727   29.4254 C.ar      1 UNK         0.0000 
      8 N8         -2.8962   50.4969   27.3544 N.am      1 UNK         0.0000 
      9 C9         -2.4719   51.2854   26.3414 C.2       1 UNK         0.0000 
     10 O10        -3.1478   52.2004   25.8668 O.2       1 UNK         0.0000 
     11 C11        -1.0278   51.1019   25.8213 C.3       1 UNK         0.0000 
     12 H12        -0.4517   51.8531   26.3657 H         1 UNK         0.0000 
     13 C13        -0.3682   49.7069   26.0280 C.3       1 UNK         0.0000 
     14 H14        -0.0275   49.4903   27.0370 H         1 UNK         0.0000 
     15 C15        -1.0576   48.5683   25.2817 C.2       1 UNK         0.0000 
     16 C16        -0.7926   48.7674   23.9775 C.2       1 UNK         0.0000 
     17 C17        -0.0373   50.0879   23.9485 C.3       1 UNK         0.0000 
     18 C18        -0.8919   51.2883   24.2855 C.3       1 UNK         0.0000 
     19 H19        -1.8434   51.2519   23.7511 H         1 UNK         0.0000 
     20 C20        -0.0926   52.5003   23.8027 C.2       1 UNK         0.0000 
     21 O21        -0.3375   53.6723   24.0816 O.2       1 UNK         0.0000 
     22 N22         0.8671   52.0206   22.9678 N.am      1 UNK         0.0000 
     23 C23         0.8684   50.5519   22.8005 C.3       1 UNK         0.0000 
     24 H24         1.8705   50.1384   22.9061 H         1 UNK         0.0000 
     25 C25         0.3146   50.1368   21.4182 C.2       1 UNK         0.0000 
     26 O26        -0.8768   50.3089   21.1487 O.2       1 UNK         0.0000 
     27 N27         1.1795   49.5681   20.5599 N.am      1 UNK         0.0000 
     28 C28         0.8270   49.1041   19.2136 C.3       1 UNK         0.0000 
     29 H29        -0.0490   48.4605   19.3379 H         1 UNK         0.0000 
     30 C30         1.8831   48.1293   18.6375 C.3       1 UNK         0.0000 
     31 C31         1.5081   47.5633   17.2496 C.3       1 UNK         0.0000 
     32 C32         1.0657   48.6604   16.2640 C.3       1 UNK         0.0000 
     33 C33        -0.0601   49.5321   16.8540 C.3       1 UNK         0.0000 
     34 H34        -0.8897   48.8713   17.1084 H         1 UNK         0.0000 
     35 C35         0.4140   50.2007   18.1779 C.3       1 UNK         0.0000 
     36 H36        -0.4781   50.6826   18.5795 H         1 UNK         0.0000 
     37 C37         1.4971   51.2969   18.0198 C.3       1 UNK         0.0000 
     38 C38        -0.5889   50.5436   15.8181 C.3       1 UNK         0.0000 
     39 C39         1.6990   52.9397   22.1720 C.3       1 UNK         0.0000 
     40 C40         2.9757   53.4126   22.8521 C.2       1 UNK         0.0000 
     41 C41         4.2136   53.6747   22.2636 C.2       1 UNK         0.0000 
     42 C42         5.2079   54.0961   23.1532 C.2       1 UNK         0.0000 
     43 C43         4.7542   54.1594   24.4566 C.2       1 UNK         0.0000 
     44 S44         3.0886   53.7027   24.5729 S.3       1 UNK         0.0000 
     45 O45         0.7044   49.9398   25.1435 O.3       1 UNK         0.0000 
     46 H46        -5.9112   50.8860   32.2247 H         1 UNK         0.0000 
     47 H47        -4.2099   50.4956   32.0817 H         1 UNK         0.0000 
     48 H48        -5.4180   49.2092   31.9150 H         1 UNK         0.0000 
     49 H49        -7.3580   50.9707   30.1601 H         1 UNK         0.0000 
     50 H50        -7.4141   51.3913   27.7265 H         1 UNK         0.0000 
     51 H51        -5.3759   51.1678   26.3762 H         1 UNK         0.0000 
     52 H52        -3.1662   50.0967   29.9086 H         1 UNK         0.0000 
     53 H53        -2.2533   49.8070   27.7420 H         1 UNK         0.0000 
     54 H54        -1.6273   47.7868   25.7650 H         1 UNK         0.0000 
     55 H55        -1.1132   48.2043   23.1146 H         1 UNK         0.0000 
     56 H56         2.1672   49.6011   20.7696 H         1 UNK         0.0000 
     57 H57         2.8375   48.6488   18.5481 H         1 UNK         0.0000 
     58 H58         2.0472   47.3014   19.3287 H         1 UNK         0.0000 
     59 H59         2.3603   47.0219   16.8369 H         1 UNK         0.0000 
     60 H60         0.7062   46.8324   17.3610 H         1 UNK         0.0000 
     61 H61         1.9041   49.2882   15.9666 H         1 UNK         0.0000 
     62 H62         0.7310   48.1992   15.3347 H         1 UNK         0.0000 
     63 H63         2.4304   50.8963   17.6233 H         1 UNK         0.0000 
     64 H64         1.1694   52.0963   17.3546 H         1 UNK         0.0000 
     65 H65         1.7288   51.7659   18.9760 H         1 UNK         0.0000 
     66 H66         0.2010   51.1931   15.4409 H         1 UNK         0.0000 
     67 H67        -1.0219   50.0319   14.9576 H         1 UNK         0.0000 
     68 H68        -1.3664   51.1769   16.2445 H         1 UNK         0.0000 
     69 H69         1.9016   52.5005   21.1957 H         1 UNK         0.0000 
     70 H70         1.1050   53.8244   21.9506 H         1 UNK         0.0000 
     71 H71         4.3877   53.5640   21.2021 H         1 UNK         0.0000 
     72 H72         6.2176   54.3427   22.8543 H         1 UNK         0.0000 
     73 H73         5.3022   54.4453   25.3416 H         1 UNK         0.0000 
@<TRIPOS>BOND
     1    1    2 1    
     2    1   46 1    
     3    1   47 1    
     4    1   48 1    
     5    2    7 ar   
     6    2    3 ar   
     7    3    4 ar   
     8    3   49 1    
     9    4    5 ar   
    10    4   50 1    
    11    5    6 ar   
    12    5   51 1    
    13    6    7 ar   
    14    6    8 1    
    15    7   52 1    
    16    8    9 am   BACKBONE|DICT|INTERRES
    17    8   53 1    
    18    9   10 2    
    19    9   11 1    
    20   11   12 1    
    21   11   18 1    
    22   11   13 1    
    23   13   14 1    
    24   13   45 1    
    25   13   15 1    
    26   15   16 2    
    27   15   54 1    
    28   16   17 1    
    29   16   55 1    
    30   17   23 1    
    31   17   18 1    
    32   17   45 1    
    33   18   19 1    
    34   18   20 1    
    35   20   21 2    
    36   20   22 am   BACKBONE|DICT|INTERRES
    37   22   23 1    
    38   22   39 1    
    39   23   24 1    
    40   23   25 1    
    41   25   26 2    
    42   25   27 am   BACKBONE|DICT|INTERRES
    43   27   28 1    
    44   27   56 1    
    45   28   29 1    
    46   28   35 1    
    47   28   30 1    
    48   30   31 1    
    49   30   57 1    
    50   30   58 1    
    51   31   32 1    
    52   31   59 1    
    53   31   60 1    
    54   32   33 1    
    55   32   61 1    
    56   32   62 1    
    57   33   34 1    
    58   33   35 1    
    59   33   38 1    
    60   35   36 1    
    61   35   37 1    
    62   37   63 1    
    63   37   64 1    
    64   37   65 1    
    65   38   66 1    
    66   38   67 1    
    67   38   68 1    
    68   39   40 1    
    69   39   69 1    
    70   39   70 1    
    71   40   44 1    
    72   40   41 2    
    73   41   42 1    
    74   41   71 1    
    75   42   43 2    
    76   42   72 1    
    77   43   44 1    
    78   43   73 1    
@<TRIPOS>SUBSTRUCTURE
     1 UNK         1 GROUP             0       ****    0 ROOT    
