ZINC62648944_1393
                    3D
 Schrodinger Suite 2024-2.
 42 45  0  0  1  0            999 V2000
    4.9378   56.9224   17.6797 C   0  0  0  0  0  0
    5.4098   58.1212   17.1582 C   0  0  0  0  0  0
    6.7405   58.4864   17.3449 C   0  0  0  0  0  0
    7.6177   57.6597   18.0678 C   0  0  0  0  0  0
    7.1200   56.4732   18.6638 C   0  0  0  0  0  0
    5.7871   56.1118   18.4242 C   0  0  0  0  0  0
    7.9606   55.5228   19.5307 C   0  0  0  0  0  0
    7.8131   55.6972   20.9817 N   0  0  0  0  0  0
    6.7699   55.2969   21.7310 C   0  0  0  0  0  0
    5.6779   54.9754   21.2705 O   0  0  0  0  0  0
    7.1039   55.2503   23.0338 N   0  0  0  0  0  0
    6.3033   54.9004   24.1114 C   0  0  0  0  0  0
    6.7044   55.1238   25.3361 N   0  0  0  0  0  0
    5.7791   54.7246   26.2902 N   0  0  0  0  0  0
    4.6925   54.1956   25.7715 C   0  0  0  0  0  0
    4.7413   54.1118   24.0218 S   0  0  0  0  0  0
    3.5293   53.7056   26.5828 C   0  0  0  0  0  0
    3.5765   53.6620   27.9845 C   0  0  0  0  0  0
    2.4721   53.1743   28.6859 C   0  0  0  0  0  0
    1.3453   52.7485   27.9835 C   0  0  0  0  0  0
    1.3609   52.8340   26.5893 C   0  0  0  0  0  0
    2.4275   53.3013   25.8913 N   0  0  0  0  0  0
    8.9775   58.0485   18.1183 N   0  0  0  0  0  0
   10.0809   57.3121   17.7552 C   0  0  0  0  0  0
   11.1767   58.1309   17.9437 C   0  0  0  0  0  0
   10.6373   59.3402   18.3871 C   0  0  0  0  0  0
    9.3264   59.3014   18.4810 N   0  0  0  0  0  0
    3.9112   56.6269   17.5251 H   0  0  0  0  0  0
    4.7500   58.7701   16.6013 H   0  0  0  0  0  0
    7.0797   59.4160   16.9064 H   0  0  0  0  0  0
    5.3978   55.1873   18.8246 H   0  0  0  0  0  0
    7.7208   54.4922   19.2558 H   0  0  0  0  0  0
    9.0189   55.6206   19.3173 H   0  0  0  0  0  0
    8.6008   56.1121   21.4568 H   0  0  0  0  0  0
    8.0475   55.5242   23.2819 H   0  0  0  0  0  0
    4.4544   53.9909   28.5203 H   0  0  0  0  0  0
    2.4881   53.1304   29.7637 H   0  0  0  0  0  0
    0.4826   52.3565   28.5043 H   0  0  0  0  0  0
    0.5088   52.5101   26.0102 H   0  0  0  0  0  0
    9.9865   56.2983   17.3950 H   0  0  0  0  0  0
   12.2162   57.8889   17.7683 H   0  0  0  0  0  0
   11.1970   60.2309   18.6281 H   0  0  0  0  0  0
  1  6  2  0  0  0
  1  2  1  0  0  0
  1 28  1  0  0  0
  2  3  2  0  0  0
  2 29  1  0  0  0
  3  4  1  0  0  0
  3 30  1  0  0  0
  4  5  2  0  0  0
  4 23  1  0  0  0
  5  6  1  0  0  0
  5  7  1  0  0  0
  6 31  1  0  0  0
  7  8  1  0  0  0
  7 32  1  0  0  0
  7 33  1  0  0  0
  8  9  1  0  0  0
  8 34  1  0  0  0
  9 10  2  0  0  0
  9 11  1  0  0  0
 11 12  1  0  0  0
 11 35  1  0  0  0
 12 16  1  0  0  0
 12 13  2  0  0  0
 13 14  1  0  0  0
 14 15  2  0  0  0
 15 16  1  0  0  0
 15 17  1  0  0  0
 17 22  2  0  0  0
 17 18  1  0  0  0
 18 19  2  0  0  0
 18 36  1  0  0  0
 19 20  1  0  0  0
 19 37  1  0  0  0
 20 21  2  0  0  0
 20 38  1  0  0  0
 21 22  1  0  0  0
 21 39  1  0  0  0
 23 27  1  0  0  0
 23 24  1  0  0  0
 24 25  2  0  0  0
 24 40  1  0  0  0
 25 26  1  0  0  0
 25 41  1  0  0  0
 26 27  2  0  0  0
 26 42  1  0  0  0
M  END
> <i_i_glide_confnum>
3

> <i_i_glide_lignum>
1394

> <i_i_glide_posenum>
30

> <i_i_glide_rotatable_bonds>
7

> <i_m_Source_File_Index>
1098

> <b_m_subgroup_collapsed>
0

> <r_i_docking_score>
-5.10753

> <r_i_glide_ecoul>
-4.48171

> <r_i_glide_eff_state_penalty>
0

> <r_i_glide_einternal>
1.45944

> <r_i_glide_emodel>
-60.7803

> <r_i_glide_energy>
-44.5023

> <r_i_glide_erotb>
0.951766

> <r_i_glide_esite>
-0.0185672

> <r_i_glide_evdw>
-40.0206

> <r_i_glide_gscore>
-5.10753

> <r_i_glide_hbond>
-0.32

> <r_i_glide_ligand_efficiency>
-0.189168

> <r_i_glide_ligand_efficiency_ln>
-1.18895

> <r_i_glide_ligand_efficiency_sa>
-0.567503

> <r_i_glide_lipo>
-1.9456

> <r_i_glide_metal>
0

> <r_i_glide_rewards>
-1.10184

> <s_i_glide_gridfile>
wee1_glide-grid

> <s_m_Source_File>
wee1_decoys_glide_SP.sdf

> <s_m_Source_Path>
/Users/zhangxujun/Desktop

> <s_m_entry_id>
1373

> <s_m_entry_name>
wee1_decoys_glide_SP.1098

> <s_m_subgroup_title>
wee1_decoys_glide_SP

> <s_m_subgroupid>
wee1_decoys_glide_SP


$$$$
