@<TRIPOS>MOLECULE
ZINC40377042_1588
35   35    1
SMALL
USER_CHARGES


@<TRIPOS>ATOM
      1 C1          5.7936   54.4201   28.4817 C.3       1 UNK         0.0000 
      2 C2          5.0466   54.3078   27.1677 C.ar      1 UNK         0.0000 
      3 C3          5.7957   54.2111   25.9901 C.ar      1 UNK         0.0000 
      4 C4          5.1647   54.0967   24.7549 C.ar      1 UNK         0.0000 
      5 C5          3.7768   54.0293   24.6897 C.ar      1 UNK         0.0000 
      6 C6          3.0217   54.1003   25.8583 C.ar      1 UNK         0.0000 
      7 C7          3.6396   54.3006   27.1001 C.ar      1 UNK         0.0000 
      8 S8          2.5894   54.6631   28.5293 S.o2      1 UNK         0.0000 
      9 O9          2.3044   56.0967   28.4860 O.2       1 UNK         0.0000 
     10 O10         3.1887   54.0744   29.7324 O.2       1 UNK         0.0000 
     11 N11         1.0392   53.9034   28.2061 N.pl3     1 UNK         0.0000 
     12 C12         0.6186   52.5753   28.7209 C.3       1 UNK         0.0000 
     13 C13        -0.4167   52.0570   27.6863 C.3       1 UNK         0.0000 
     14 C14         1.8110   51.5879   28.7152 C.3       1 UNK         0.0000 
     15 C15         0.0072   52.6902   30.1639 C.2       1 UNK         0.0000 
     16 N16         0.3994   53.6626   30.8995 N.2       1 UNK         0.0000 
     17 O17        -0.0956   53.6967   32.2260 O.3       1 UNK         0.0000 
     18 N18        -0.8956   51.6967   30.4817 N.pl3     1 UNK         0.0000 
     19 F19         5.9008   54.0279   23.6232 F         1 UNK         0.0000 
     20 H20         6.8721   54.4967   28.3427 H         1 UNK         0.0000 
     21 H21         5.4702   55.2967   29.0430 H         1 UNK         0.0000 
     22 H22         5.5963   53.5388   29.0906 H         1 UNK         0.0000 
     23 H23         6.8742   54.2259   26.0226 H         1 UNK         0.0000 
     24 H24         3.2888   53.9229   23.7321 H         1 UNK         0.0000 
     25 H25         1.9456   54.0740   25.7765 H         1 UNK         0.0000 
     26 H26         0.2841   54.5442   27.9553 H         1 UNK         0.0000 
     27 H27        -0.7612   51.0445   27.9065 H         1 UNK         0.0000 
     28 H28        -1.2956   52.6979   27.6338 H         1 UNK         0.0000 
     29 H29         0.0099   52.0206   26.6825 H         1 UNK         0.0000 
     30 H30         1.4826   50.5622   28.8589 H         1 UNK         0.0000 
     31 H31         2.3433   51.6150   27.7642 H         1 UNK         0.0000 
     32 H32         2.5354   51.7788   29.5045 H         1 UNK         0.0000 
     33 H33        -0.5947   52.8688   32.3363 H         1 UNK         0.0000 
     34 H34        -1.2956   51.6335   31.4214 H         1 UNK         0.0000 
     35 H35        -1.0676   50.9228   29.8544 H         1 UNK         0.0000 
@<TRIPOS>BOND
     1    1    2 1    
     2    1   20 1    
     3    1   21 1    
     4    1   22 1    
     5    2    7 ar   
     6    2    3 ar   
     7    3    4 ar   
     8    3   23 1    
     9    4    5 ar   
    10    4   19 1    
    11    5    6 ar   
    12    5   24 1    
    13    6    7 ar   
    14    6   25 1    
    15    7    8 1    
    16    8    9 2    
    17    8   10 2    
    18    8   11 1    
    19   11   12 1    
    20   11   26 1    
    21   12   13 1    
    22   12   14 1    
    23   12   15 1    
    24   13   27 1    
    25   13   28 1    
    26   13   29 1    
    27   14   30 1    
    28   14   31 1    
    29   14   32 1    
    30   15   16 2    
    31   15   18 1    
    32   16   17 1    
    33   17   33 1    
    34   18   34 1    
    35   18   35 1    
@<TRIPOS>SUBSTRUCTURE
     1 UNK         1 GROUP             0       ****    0 ROOT    
