@<TRIPOS>MOLECULE
ZINC14269388_2710
51   55    1
SMALL
USER_CHARGES


@<TRIPOS>ATOM
      1 C1         -5.7332   51.2505   26.1236 C.3       1 UNK         0.0000 
      2 C2         -4.2969   51.0723   25.6709 C.ar      1 UNK         0.0000 
      3 C3         -3.5785   49.9392   26.0814 C.ar      1 UNK         0.0000 
      4 C4         -2.2581   49.7199   25.6816 C.ar      1 UNK         0.0000 
      5 C5         -1.6929   50.6935   24.8559 C.ar      1 UNK         0.0000 
      6 C6         -2.3818   51.8445   24.4398 C.ar      1 UNK         0.0000 
      7 C7         -3.7117   52.0382   24.8400 C.ar      1 UNK         0.0000 
      8 N8         -1.5533   52.6218   23.6817 N.2       1 UNK         0.0000 
      9 C9         -0.4254   51.9369   23.6588 C.2       1 UNK         0.0000 
     10 O10        -0.4379   50.7476   24.3336 O.3       1 UNK         0.0000 
     11 C11         0.8726   52.3964   23.1031 C.ar      1 UNK         0.0000 
     12 C12         1.2826   53.6955   23.3971 C.ar      1 UNK         0.0000 
     13 C13         2.5105   54.1496   22.9444 C.ar      1 UNK         0.0000 
     14 C14         3.3395   53.3119   22.1950 C.ar      1 UNK         0.0000 
     15 C15         2.9161   52.0250   21.8577 C.ar      1 UNK         0.0000 
     16 C16         1.6867   51.5603   22.3307 C.ar      1 UNK         0.0000 
     17 N17         4.6061   53.7687   21.7915 N.pl3     1 UNK         0.0000 
     18 C18         5.5384   54.4000   22.5666 C.2       1 UNK         0.0000 
     19 S19         6.7047   55.2967   21.7745 S.2       1 UNK         0.0000 
     20 N20         5.3936   54.1962   23.9191 N.am      1 UNK         0.0000 
     21 C21         5.9878   54.7258   25.0163 C.2       1 UNK         0.0000 
     22 O22         7.0543   55.3448   25.0208 O.2       1 UNK         0.0000 
     23 C23         5.2472   54.4854   26.3192 C.ar      1 UNK         0.0000 
     24 C24         5.9042   54.6747   27.5461 C.ar      1 UNK         0.0000 
     25 C25         5.2360   54.4966   28.7581 C.ar      1 UNK         0.0000 
     26 C26         3.9013   54.1029   28.7687 C.ar      1 UNK         0.0000 
     27 C27         3.2247   53.9162   27.5554 C.ar      1 UNK         0.0000 
     28 C28         3.8929   54.0967   26.3466 C.ar      1 UNK         0.0000 
     29 O29         1.9112   53.4944   27.5009 O.3       1 UNK         0.0000 
     30 C30         1.1901   53.6718   28.7251 C.3       1 UNK         0.0000 
     31 C31         2.0487   53.2249   29.9342 C.3       1 UNK         0.0000 
     32 O32         3.2680   53.9782   29.9915 O.3       1 UNK         0.0000 
     33 H33        -6.3078   51.8259   25.3968 H         1 UNK         0.0000 
     34 H34        -6.2302   50.2847   26.2207 H         1 UNK         0.0000 
     35 H35        -5.7708   51.7587   27.0867 H         1 UNK         0.0000 
     36 H36        -4.0440   49.2170   26.7374 H         1 UNK         0.0000 
     37 H37        -1.6961   48.8615   26.0257 H         1 UNK         0.0000 
     38 H38        -4.2597   52.9145   24.5278 H         1 UNK         0.0000 
     39 H39         0.6623   54.3473   23.9952 H         1 UNK         0.0000 
     40 H40         2.8274   55.1506   23.1960 H         1 UNK         0.0000 
     41 H41         3.5456   51.3757   21.2652 H         1 UNK         0.0000 
     42 H42         1.3688   50.5532   22.1001 H         1 UNK         0.0000 
     43 H43         4.7620   53.7799   20.7934 H         1 UNK         0.0000 
     44 H44         4.5923   53.6290   24.1471 H         1 UNK         0.0000 
     45 H45         6.9393   54.9861   27.5784 H         1 UNK         0.0000 
     46 H46         5.7564   54.6920   29.6814 H         1 UNK         0.0000 
     47 H47         3.3294   53.9280   25.4449 H         1 UNK         0.0000 
     48 H48         0.9305   54.7261   28.8379 H         1 UNK         0.0000 
     49 H49         0.2612   53.1031   28.6824 H         1 UNK         0.0000 
     50 H50         1.4952   53.3477   30.8656 H         1 UNK         0.0000 
     51 H51         2.2862   52.1646   29.8287 H         1 UNK         0.0000 
@<TRIPOS>BOND
     1    1    2 1    
     2    1   33 1    
     3    1   34 1    
     4    1   35 1    
     5    2    7 ar   
     6    2    3 ar   
     7    3    4 ar   
     8    3   36 1    
     9    4    5 ar   
    10    4   37 1    
    11    5   10 1    
    12    5    6 ar   
    13    6    7 ar   
    14    6    8 1    
    15    7   38 1    
    16    8    9 2    
    17    9   10 1    
    18    9   11 1    
    19   11   16 ar   
    20   11   12 ar   
    21   12   13 ar   
    22   12   39 1    
    23   13   14 ar   
    24   13   40 1    
    25   14   15 ar   
    26   14   17 1    
    27   15   16 ar   
    28   15   41 1    
    29   16   42 1    
    30   17   18 1    
    31   17   43 1    
    32   18   19 2    
    33   18   20 am   BACKBONE|DICT|INTERRES
    34   20   21 am   BACKBONE|DICT|INTERRES
    35   20   44 1    
    36   21   22 2    
    37   21   23 1    
    38   23   28 ar   
    39   23   24 ar   
    40   24   25 ar   
    41   24   45 1    
    42   25   26 ar   
    43   25   46 1    
    44   26   32 1    
    45   26   27 ar   
    46   27   28 ar   
    47   27   29 1    
    48   28   47 1    
    49   29   30 1    
    50   30   31 1    
    51   30   48 1    
    52   30   49 1    
    53   31   32 1    
    54   31   50 1    
    55   31   51 1    
@<TRIPOS>SUBSTRUCTURE
     1 UNK         1 GROUP             0       ****    0 ROOT    
