ZINC35004422_3735
                    3D
 Schrodinger Suite 2024-2.
 79 82  0  0  1  0            999 V2000
   -2.0920   46.7498   25.9520 C   0  0  0  0  0  0
   -1.9698   46.9560   24.4351 C   0  0  0  0  0  0
   -2.2134   48.3988   23.9265 C   0  0  1  0  0  0
   -2.2358   48.2867   22.8416 H   0  0  0  0  0  0
   -3.6280   48.8973   24.3101 C   0  0  0  0  0  0
   -1.0371   49.3801   24.2663 C   0  0  1  0  0  0
   -0.0944   48.8452   24.1827 H   0  0  0  0  0  0
   -1.0887   50.5913   23.2730 C   0  0  0  0  0  0
   -1.9778   51.4329   23.4442 O   0  0  0  0  0  0
   -0.1610   50.7097   22.2794 N   0  0  0  0  0  0
    0.8574   49.7118   21.9233 C   0  0  0  0  0  0
    2.2481   50.3202   22.2114 C   0  0  0  0  0  0
    2.3892   51.5600   21.4129 N   0  0  0  0  0  0
    1.3320   52.5931   21.5957 C   0  0  1  0  0  0
    1.3825   53.2959   20.7661 H   0  0  0  0  0  0
   -0.0803   51.9425   21.4788 C   0  0  0  0  0  0
    1.5266   53.4018   22.8968 C   0  0  0  0  0  0
    3.6303   51.8955   20.9556 C   0  0  0  0  0  0
    4.6579   51.2968   21.2813 O   0  0  0  0  0  0
    3.6645   52.8982   20.0553 N   0  0  0  0  0  0
    4.8636   53.3990   19.3831 C   0  0  0  0  0  0
    4.4862   54.0193   18.0293 C   0  0  0  0  0  0
    5.6354   54.3959   20.2662 C   0  0  0  0  0  0
   -1.0528   49.8086   25.6788 N   0  0  0  0  0  0
   -0.1808   50.6804   26.2082 C   0  0  0  0  0  0
    0.7044   51.2359   25.5628 O   0  0  0  0  0  0
   -0.3947   50.8978   27.5117 N   0  0  0  0  0  0
    0.3109   51.8690   28.3680 C   0  0  0  0  0  0
   -0.3771   51.8925   29.7623 C   0  0  0  0  0  0
    0.3785   52.8005   30.7634 C   0  0  1  0  0  0
    1.8514   52.3319   30.8958 C   0  0  0  0  0  0
    2.5528   52.4438   29.5237 C   0  0  1  0  0  0
    1.8198   51.5098   28.5365 C   0  0  0  0  0  0
    2.4824   53.8977   28.9935 C   0  0  0  0  0  0
    0.9984   54.3120   28.8286 C   0  0  2  0  0  0
    0.3050   54.2413   30.2092 C   0  0  0  0  0  0
    0.2824   53.3399   27.8437 C   0  0  0  0  0  0
   -2.0024   45.6969   26.2165 H   0  0  0  0  0  0
   -1.2993   47.2745   26.4816 H   0  0  0  0  0  0
   -3.0445   47.1034   26.3483 H   0  0  0  0  0  0
   -2.6680   46.2828   23.9378 H   0  0  0  0  0  0
   -0.9770   46.6283   24.1208 H   0  0  0  0  0  0
   -3.7124   49.1055   25.3760 H   0  0  0  0  0  0
   -3.9001   49.8088   23.7795 H   0  0  0  0  0  0
   -4.3845   48.1534   24.0615 H   0  0  0  0  0  0
    0.7672   49.5161   20.8526 H   0  0  0  0  0  0
    0.7280   48.7350   22.3832 H   0  0  0  0  0  0
    3.0103   49.5808   21.9597 H   0  0  0  0  0  0
    2.3060   50.5554   23.2748 H   0  0  0  0  0  0
   -0.2671   51.6897   20.4352 H   0  0  0  0  0  0
   -0.8462   52.6686   21.7528 H   0  0  0  0  0  0
    0.7055   54.0925   23.0740 H   0  0  0  0  0  0
    1.5876   52.7583   23.7723 H   0  0  0  0  0  0
    2.4299   54.0100   22.8476 H   0  0  0  0  0  0
    2.7948   53.3325   19.7838 H   0  0  0  0  0  0
    5.5180   52.5481   19.1673 H   0  0  0  0  0  0
    5.3671   54.4186   17.5255 H   0  0  0  0  0  0
    3.7892   54.8501   18.1482 H   0  0  0  0  0  0
    4.0487   53.2762   17.3610 H   0  0  0  0  0  0
    6.5544   54.7206   19.7774 H   0  0  0  0  0  0
    5.0500   55.2950   20.4532 H   0  0  0  0  0  0
    5.9034   53.9594   21.2280 H   0  0  0  0  0  0
   -1.6863   49.3108   26.2916 H   0  0  0  0  0  0
   -1.0142   50.2536   27.9905 H   0  0  0  0  0  0
   -1.4026   52.2388   29.6559 H   0  0  0  0  0  0
   -0.4964   50.8967   30.1586 H   0  0  0  0  0  0
   -0.0963   52.7569   31.7418 H   0  0  0  0  0  0
    2.3807   52.8967   31.6556 H   0  0  0  0  0  0
    1.8942   51.3080   31.2590 H   0  0  0  0  0  0
    3.5961   52.1380   29.6151 H   0  0  0  0  0  0
    1.9229   50.4945   28.8814 H   0  0  0  0  0  0
    2.3110   51.5506   27.5678 H   0  0  0  0  0  0
    2.9967   54.5794   29.6728 H   0  0  0  0  0  0
    3.0018   53.9737   28.0376 H   0  0  0  0  0  0
    0.9447   55.3299   28.4391 H   0  0  0  0  0  0
   -0.7448   54.5037   30.0890 H   0  0  0  0  0  0
    0.7417   54.9555   30.9095 H   0  0  0  0  0  0
    0.7710   53.3934   26.8702 H   0  0  0  0  0  0
   -0.7487   53.6551   27.6850 H   0  0  0  0  0  0
  1  2  1  0  0  0
  1 38  1  0  0  0
  1 39  1  0  0  0
  1 40  1  0  0  0
  2  3  1  0  0  0
  2 41  1  0  0  0
  2 42  1  0  0  0
  3  4  1  0  0  0
  3  5  1  0  0  0
  3  6  1  0  0  0
  5 43  1  0  0  0
  5 44  1  0  0  0
  5 45  1  0  0  0
  6  7  1  0  0  0
  6  8  1  0  0  0
  6 24  1  0  0  0
  8  9  2  0  0  0
  8 10  1  0  0  0
 10 16  1  0  0  0
 10 11  1  0  0  0
 11 12  1  0  0  0
 11 46  1  0  0  0
 11 47  1  0  0  0
 12 13  1  0  0  0
 12 48  1  0  0  0
 12 49  1  0  0  0
 13 14  1  0  0  0
 13 18  1  0  0  0
 14 15  1  0  0  0
 14 16  1  0  0  0
 14 17  1  0  0  0
 16 50  1  0  0  0
 16 51  1  0  0  0
 17 52  1  0  0  0
 17 53  1  0  0  0
 17 54  1  0  0  0
 18 19  2  0  0  0
 18 20  1  0  0  0
 20 21  1  0  0  0
 20 55  1  0  0  0
 21 22  1  0  0  0
 21 23  1  0  0  0
 21 56  1  0  0  0
 22 57  1  0  0  0
 22 58  1  0  0  0
 22 59  1  0  0  0
 23 60  1  0  0  0
 23 61  1  0  0  0
 23 62  1  0  0  0
 24 25  1  0  0  0
 24 63  1  0  0  0
 25 26  2  0  0  0
 25 27  1  0  0  0
 27 28  1  0  0  0
 27 64  1  0  0  0
 28 33  1  0  0  0
 28 37  1  0  0  0
 28 29  1  0  0  0
 29 30  1  0  0  0
 29 65  1  0  0  0
 29 66  1  0  0  0
 30 36  1  0  0  0
 30 31  1  0  0  0
 30 67  1  0  0  0
 31 32  1  0  0  0
 31 68  1  0  0  0
 31 69  1  0  0  0
 32 33  1  0  0  0
 32 34  1  0  0  0
 32 70  1  0  0  0
 33 71  1  0  0  0
 33 72  1  0  0  0
 34 35  1  0  0  0
 34 73  1  0  0  0
 34 74  1  0  0  0
 35 36  1  0  0  0
 35 37  1  0  0  0
 35 75  1  0  0  0
 36 76  1  0  0  0
 36 77  1  0  0  0
 37 78  1  0  0  0
 37 79  1  0  0  0
M  END
> <i_i_glide_confnum>
72

> <i_i_glide_lignum>
3736

> <i_i_glide_posenum>
334

> <i_i_glide_rotatable_bonds>
11

> <i_m_Source_File_Index>
483

> <b_m_subgroup_collapsed>
0

> <r_i_docking_score>
-4.26528

> <r_i_glide_ecoul>
-6.89908

> <r_i_glide_eff_state_penalty>
0

> <r_i_glide_einternal>
12.4918

> <r_i_glide_emodel>
-47.6576

> <r_i_glide_energy>
-42.3969

> <r_i_glide_erotb>
0.715783

> <r_i_glide_esite>
-0.233314

> <r_i_glide_evdw>
-35.4978

> <r_i_glide_gscore>
-4.26528

> <r_i_glide_hbond>
-0.217995

> <r_i_glide_ligand_efficiency>
-0.125449

> <r_i_glide_ligand_efficiency_ln>
-0.942319

> <r_i_glide_ligand_efficiency_sa>
-0.406407

> <r_i_glide_lipo>
-1.42019

> <r_i_glide_metal>
0

> <r_i_glide_rewards>
-0.299806

> <s_i_glide_gridfile>
wee1_glide-grid

> <s_m_Source_File>
wee1_decoys_glide_SP.sdf

> <s_m_Source_Path>
/Users/zhangxujun/Desktop

> <s_m_entry_id>
758

> <s_m_entry_name>
wee1_decoys_glide_SP.483

> <s_m_subgroup_title>
wee1_decoys_glide_SP

> <s_m_subgroupid>
wee1_decoys_glide_SP


$$$$
