ZINC19703057_1472
                    3D
 Schrodinger Suite 2024-2.
 48 50  0  0  1  0            999 V2000
   -0.5354   47.3303   24.8795 C   0  0  0  0  0  0
   -1.0146   48.2249   23.7247 C   0  0  0  0  0  0
   -1.3313   47.5835   22.7208 O   0  0  0  0  0  0
   -1.1274   49.5997   23.8551 N   0  0  0  0  0  0
   -0.5571   50.2517   24.9406 C   0  0  0  0  0  0
   -1.1803   51.5240   25.3027 C   0  0  0  0  0  0
   -2.1121   52.0055   24.4473 C   0  0  0  0  0  0
   -2.7991   53.0624   24.6804 O   0  5  0  0  0  0
   -2.3729   51.4765   23.2307 N   0  0  0  0  0  0
   -1.8602   50.3452   22.9172 C   0  0  0  0  0  0
   -2.1439   49.9393   21.1714 S   0  0  0  0  0  0
   -0.4131   49.8323   20.6145 C   0  0  0  0  0  0
   -0.7754   52.2018   26.6290 C   0  0  2  0  0  0
   -1.3807   53.0881   26.8321 H   0  0  0  0  0  0
    0.7039   52.6312   26.7822 C   0  0  0  0  0  0
    1.3948   53.1624   25.6850 C   0  0  0  0  0  0
    2.6869   53.6969   25.7893 C   0  0  0  0  0  0
    3.3237   53.6885   27.0340 C   0  0  0  0  0  0
    2.6590   53.1215   28.1308 C   0  0  0  0  0  0
    1.3723   52.5817   28.0238 C   0  0  0  0  0  0
    0.7437   51.8987   29.2345 C   0  0  0  0  0  0
   -0.7875   51.7939   29.1764 C   0  0  0  0  0  0
   -1.1949   51.2850   27.7881 N   0  3  0  0  0  0
    4.5937   54.2396   27.1030 O   0  0  0  0  0  0
    5.2975   54.2416   28.3395 C   0  0  0  0  0  0
    3.3647   54.2701   24.7260 O   0  0  0  0  0  0
    2.7402   54.3461   23.4476 C   0  0  0  0  0  0
    0.4017   49.8509   25.6005 O   0  0  0  0  0  0
   -0.8961   47.6737   25.8510 H   0  0  0  0  0  0
    0.5536   47.2995   24.8816 H   0  0  0  0  0  0
   -0.9003   46.3110   24.7567 H   0  0  0  0  0  0
   -0.3756   49.8274   19.5234 H   0  0  0  0  0  0
    0.1673   50.6865   20.9686 H   0  0  0  0  0  0
    0.0632   48.9172   20.9694 H   0  0  0  0  0  0
    0.8747   53.1906   24.7406 H   0  0  0  0  0  0
    3.1481   53.0761   29.0907 H   0  0  0  0  0  0
    1.0398   52.3906   30.1624 H   0  0  0  0  0  0
    1.1627   50.8959   29.2822 H   0  0  0  0  0  0
   -1.2955   52.7405   29.3383 H   0  0  0  0  0  0
   -1.1794   51.0756   29.8998 H   0  0  0  0  0  0
   -2.1926   51.1436   27.7452 H   0  0  0  0  0  0
    6.2732   54.7066   28.1950 H   0  0  0  0  0  0
    4.7700   54.8189   29.0997 H   0  0  0  0  0  0
    5.4676   53.2296   28.7092 H   0  0  0  0  0  0
    3.3955   54.8797   22.7578 H   0  0  0  0  0  0
    2.5569   53.3538   23.0331 H   0  0  0  0  0  0
    1.7991   54.8956   23.4911 H   0  0  0  0  0  0
   -0.7931   50.3653   27.6363 H   0  0  0  0  0  0
  1  2  1  0  0  0
  1 29  1  0  0  0
  1 30  1  0  0  0
  1 31  1  0  0  0
  2  3  2  0  0  0
  2  4  1  0  0  0
  4 10  1  0  0  0
  4  5  1  0  0  0
  5  6  1  0  0  0
  5 28  2  0  0  0
  6  7  2  0  0  0
  6 13  1  0  0  0
  7  8  1  0  0  0
  7  9  1  0  0  0
  9 10  2  0  0  0
 10 11  1  0  0  0
 11 12  1  0  0  0
 12 32  1  0  0  0
 12 33  1  0  0  0
 12 34  1  0  0  0
 13 14  1  0  0  0
 13 23  1  0  0  0
 13 15  1  0  0  0
 15 20  2  0  0  0
 15 16  1  0  0  0
 16 17  2  0  0  0
 16 35  1  0  0  0
 17 18  1  0  0  0
 17 26  1  0  0  0
 18 19  2  0  0  0
 18 24  1  0  0  0
 19 20  1  0  0  0
 19 36  1  0  0  0
 20 21  1  0  0  0
 21 22  1  0  0  0
 21 37  1  0  0  0
 21 38  1  0  0  0
 22 23  1  0  0  0
 22 39  1  0  0  0
 22 40  1  0  0  0
 23 41  1  0  0  0
 23 48  1  0  0  0
 24 25  1  0  0  0
 25 42  1  0  0  0
 25 43  1  0  0  0
 25 44  1  0  0  0
 26 27  1  0  0  0
 27 45  1  0  0  0
 27 46  1  0  0  0
 27 47  1  0  0  0
M  CHG  2   8  -1  23   1
M  END
> <i_i_glide_confnum>
1

> <i_i_glide_lignum>
1473

> <i_i_glide_posenum>
118

> <i_i_glide_rotatable_bonds>
5

> <i_m_Source_File_Index>
5144

> <b_m_subgroup_collapsed>
0

> <r_i_docking_score>
-4.07376

> <r_i_glide_ecoul>
-1.3125

> <r_i_glide_eff_state_penalty>
0

> <r_i_glide_einternal>
2.8614

> <r_i_glide_emodel>
-41.6056

> <r_i_glide_energy>
-32.2671

> <r_i_glide_erotb>
0.127358

> <r_i_glide_esite>
-0.125736

> <r_i_glide_evdw>
-30.9546

> <r_i_glide_gscore>
-4.07376

> <r_i_glide_hbond>
-0.0596027

> <r_i_glide_ligand_efficiency>
-0.15088

> <r_i_glide_ligand_efficiency_ln>
-0.948303

> <r_i_glide_ligand_efficiency_sa>
-0.45264

> <r_i_glide_lipo>
-1.531

> <r_i_glide_metal>
0

> <r_i_glide_rewards>
-0.740165

> <s_i_glide_gridfile>
wee1_glide-grid

> <s_m_Source_File>
wee1_decoys_glide_SP.sdf

> <s_m_Source_Path>
/Users/zhangxujun/Desktop

> <s_m_entry_id>
5419

> <s_m_entry_name>
wee1_decoys_glide_SP.5144

> <s_m_subgroup_title>
wee1_decoys_glide_SP

> <s_m_subgroupid>
wee1_decoys_glide_SP


$$$$
