@<TRIPOS>MOLECULE
ZINC36161521_4889
67   70    1
SMALL
USER_CHARGES


@<TRIPOS>ATOM
      1 C1          2.1534   53.3772   29.5250 C.3       1 UNK         0.0000 
      2 C2          2.8414   53.9122   28.2553 C.3       1 UNK         0.0000 
      3 H3          2.7666   55.0013   28.2938 H         1 UNK         0.0000 
      4 C4          4.3200   53.4802   28.1943 C.3       1 UNK         0.0000 
      5 C5          5.0769   54.1825   27.0491 C.3       1 UNK         0.0000 
      6 C6          4.2569   54.0954   25.7562 C.2       1 UNK         0.0000 
      7 C7          2.8934   53.7581   25.7536 C.2       1 UNK         0.0000 
      8 S8          2.2187   53.7120   24.1468 S.3       1 UNK         0.0000 
      9 C9          3.7592   54.0988   23.4659 C.ar      1 UNK         0.0000 
     10 C10         4.7502   54.2257   24.4432 C.ar      1 UNK         0.0000 
     11 C11         6.1179   54.4977   24.0106 C.ar      1 UNK         0.0000 
     12 O12         7.1044   54.6895   24.7112 O.2       1 UNK         0.0000 
     13 N13         6.1995   54.5501   22.6425 N.pl3     1 UNK         0.0000 
     14 H14         7.1388   54.7251   22.3189 H         1 UNK         0.0000 
     15 C15         5.1710   54.4433   21.7196 C.ar      1 UNK         0.0000 
     16 N16         3.9582   54.2394   22.1217 N.2       1 UNK         0.0000 
     17 C17         5.5509   54.5844   20.2334 C.3       1 UNK         0.0000 
     18 N18         4.3042   54.6797   19.2919 N.4       1 UNK         0.0000 
     19 C19         3.8057   53.3497   18.6384 C.3       1 UNK         0.0000 
     20 C20         3.5208   52.2150   19.6485 C.3       1 UNK         0.0000 
     21 H21         2.9666   52.5987   20.5028 H         1 UNK         0.0000 
     22 C22         2.6572   51.0798   19.0576 C.3       1 UNK         0.0000 
     23 O23         2.4524   50.0801   20.0549 O.3       1 UNK         0.0000 
     24 C24         2.2696   48.7543   19.5704 C.3       1 UNK         0.0000 
     25 C25         0.9548   48.5863   18.8296 C.2       1 UNK         0.0000 
     26 C26        -0.0337   47.7548   19.1979 C.2       1 UNK         0.0000 
     27 O27         4.7617   51.6967   20.0817 O.3       1 UNK         0.0000 
     28 C28         4.4537   55.8642   18.2826 C.3       1 UNK         0.0000 
     29 C29         5.6747   55.6972   17.3420 C.3       1 UNK         0.0000 
     30 C30         5.8374   56.9363   16.4323 C.3       1 UNK         0.0000 
     31 C31         4.5408   57.2844   15.6648 C.3       1 UNK         0.0000 
     32 C32         3.3000   57.3598   16.5832 C.3       1 UNK         0.0000 
     33 C33         3.1721   56.0891   17.4463 C.3       1 UNK         0.0000 
     34 C34         2.0899   53.4081   26.9989 C.3       1 UNK         0.0000 
     35 H35         2.1576   52.2866   29.5554 H         1 UNK         0.0000 
     36 H36         2.6521   53.7317   30.4259 H         1 UNK         0.0000 
     37 H37         1.1140   53.7036   29.5795 H         1 UNK         0.0000 
     38 H38         4.8133   53.7237   29.1367 H         1 UNK         0.0000 
     39 H39         4.3966   52.3948   28.1249 H         1 UNK         0.0000 
     40 H40         6.0602   53.7249   26.9329 H         1 UNK         0.0000 
     41 H41         5.2624   55.2272   27.3021 H         1 UNK         0.0000 
     42 H42         6.1744   53.7779   19.8492 H         1 UNK         0.0000 
     43 H43         6.1051   55.5160   20.1174 H         1 UNK         0.0000 
     44 H44         4.5374   53.0624   17.8810 H         1 UNK         0.0000 
     45 H45         2.8666   53.6085   18.1535 H         1 UNK         0.0000 
     46 H46         3.1044   50.6742   18.1516 H         1 UNK         0.0000 
     47 H47         1.6855   51.4698   18.7515 H         1 UNK         0.0000 
     48 H48         2.2863   48.0914   20.4360 H         1 UNK         0.0000 
     49 H49         3.1042   48.4476   18.9363 H         1 UNK         0.0000 
     50 H50         0.8314   49.1954   17.9454 H         1 UNK         0.0000 
     51 H51         0.0506   47.1319   20.0767 H         1 UNK         0.0000 
     52 H52        -0.9453   47.6871   18.6222 H         1 UNK         0.0000 
     53 H53         5.1042   51.1366   19.3460 H         1 UNK         0.0000 
     54 H54         4.6100   56.7636   18.8818 H         1 UNK         0.0000 
     55 H55         6.5931   55.4966   17.8926 H         1 UNK         0.0000 
     56 H56         5.5415   54.8089   16.7236 H         1 UNK         0.0000 
     57 H57         6.1323   57.7947   17.0391 H         1 UNK         0.0000 
     58 H58         6.6540   56.7762   15.7266 H         1 UNK         0.0000 
     59 H59         4.6668   58.2313   15.1373 H         1 UNK         0.0000 
     60 H60         4.3693   56.5320   14.8934 H         1 UNK         0.0000 
     61 H61         3.3699   58.2411   17.2247 H         1 UNK         0.0000 
     62 H62         2.3996   57.4993   15.9830 H         1 UNK         0.0000 
     63 H63         3.0056   55.2461   16.7756 H         1 UNK         0.0000 
     64 H64         2.2873   56.0966   18.0777 H         1 UNK         0.0000 
     65 H65         1.1042   53.8597   26.9539 H         1 UNK         0.0000 
     66 H66         1.9546   52.3266   27.0471 H         1 UNK         0.0000 
     67 H67         3.5489   54.9501   19.9128 H         1 UNK         0.0000 
@<TRIPOS>BOND
     1    1    2 1    
     2    1   35 1    
     3    1   36 1    
     4    1   37 1    
     5    2    3 1    
     6    2   34 1    
     7    2    4 1    
     8    4    5 1    
     9    4   38 1    
    10    4   39 1    
    11    5    6 1    
    12    5   40 1    
    13    5   41 1    
    14    6   10 1    
    15    6    7 2    
    16    7    8 1    
    17    7   34 1    
    18    8    9 1    
    19    9   16 ar   
    20    9   10 ar   
    21   10   11 ar   
    22   11   12 2    
    23   11   13 ar   
    24   13   14 1    
    25   13   15 ar   
    26   15   16 ar   
    27   15   17 1    
    28   17   18 1    
    29   17   42 1    
    30   17   43 1    
    31   18   19 1    
    32   18   28 1    
    33   18   67 1    
    34   19   20 1    
    35   19   44 1    
    36   19   45 1    
    37   20   21 1    
    38   20   22 1    
    39   20   27 1    
    40   22   23 1    
    41   22   46 1    
    42   22   47 1    
    43   23   24 1    
    44   24   25 1    
    45   24   48 1    
    46   24   49 1    
    47   25   26 2    
    48   25   50 1    
    49   26   51 1    
    50   26   52 1    
    51   27   53 1    
    52   28   33 1    
    53   28   29 1    
    54   28   54 1    
    55   29   30 1    
    56   29   55 1    
    57   29   56 1    
    58   30   31 1    
    59   30   57 1    
    60   30   58 1    
    61   31   32 1    
    62   31   59 1    
    63   31   60 1    
    64   32   33 1    
    65   32   61 1    
    66   32   62 1    
    67   33   63 1    
    68   33   64 1    
    69   34   65 1    
    70   34   66 1    
@<TRIPOS>SUBSTRUCTURE
     1 UNK         1 GROUP             0       ****    0 ROOT    
