@<TRIPOS>MOLECULE
ZINC12064259_5476
67   70    1
SMALL
USER_CHARGES


@<TRIPOS>ATOM
      1 C1          5.1061   54.2218   28.9669 C.3       1 UNK         0.0000 
      2 C2          4.8705   53.8792   27.4846 C.3       1 UNK         0.0000 
      3 H3          5.0544   52.8083   27.3719 H         1 UNK         0.0000 
      4 C4          3.4299   54.2275   27.0652 C.3       1 UNK         0.0000 
      5 C5          3.0934   53.7399   25.6417 C.3       1 UNK         0.0000 
      6 C6          4.2297   54.0968   24.6698 C.2       1 UNK         0.0000 
      7 C7          5.4884   54.5028   25.1421 C.2       1 UNK         0.0000 
      8 S8          6.5733   54.8949   23.8618 S.3       1 UNK         0.0000 
      9 C9          5.3738   54.4967   22.6594 C.2       1 UNK         0.0000 
     10 C10         4.1849   54.0118   23.2493 C.2       1 UNK         0.0000 
     11 C11         3.0118   53.5722   22.5098 C.2       1 UNK         0.0000 
     12 O12         1.8682   53.8352   22.8825 O.2       1 UNK         0.0000 
     13 N13         3.2867   52.8533   21.4060 N.am      1 UNK         0.0000 
     14 C14         2.2869   52.3381   20.4779 C.3       1 UNK         0.0000 
     15 N15         5.6297   54.6132   21.2912 N.am      1 UNK         0.0000 
     16 C16         6.6158   55.2965   20.6635 C.2       1 UNK         0.0000 
     17 O17         7.3682   56.0966   21.2199 O.2       1 UNK         0.0000 
     18 C18         6.7569   55.0109   19.1779 C.ar      1 UNK         0.0000 
     19 C19         7.6178   55.7954   18.3959 C.ar      1 UNK         0.0000 
     20 C20         7.8415   55.4893   17.0556 C.ar      1 UNK         0.0000 
     21 C21         7.1994   54.3952   16.4741 C.ar      1 UNK         0.0000 
     22 C22         6.3264   53.6145   17.2303 C.ar      1 UNK         0.0000 
     23 C23         6.1088   53.9176   18.5701 C.ar      1 UNK         0.0000 
     24 S24         7.5195   53.9649   14.7624 S.o2      1 UNK         0.0000 
     25 O25         6.2955   53.3550   14.2294 O.2       1 UNK         0.0000 
     26 O26         8.0960   55.1560   14.1262 O.2       1 UNK         0.0000 
     27 N27         8.7727   52.7113   14.8533 N.pl3     1 UNK         0.0000 
     28 C28         8.3040   51.3145   15.0406 C.3       1 UNK         0.0000 
     29 C29         9.4275   50.4573   15.6681 C.3       1 UNK         0.0000 
     30 H30         9.1044   49.4157   15.6280 H         1 UNK         0.0000 
     31 C31        10.7135   50.5615   14.8037 C.3       1 UNK         0.0000 
     32 C32        11.1315   52.0284   14.5113 C.3       1 UNK         0.0000 
     33 H33        11.3937   52.4948   15.4626 H         1 UNK         0.0000 
     34 C34         9.9351   52.8253   13.9360 C.3       1 UNK         0.0000 
     35 C35        12.3595   52.0957   13.5889 C.3       1 UNK         0.0000 
     36 C36         9.6475   50.8290   17.1476 C.3       1 UNK         0.0000 
     37 C37         5.8872   54.6440   26.6061 C.3       1 UNK         0.0000 
     38 H38         4.8899   55.2693   29.1805 H         1 UNK         0.0000 
     39 H39         4.4736   53.6169   29.6178 H         1 UNK         0.0000 
     40 H40         6.1430   54.0457   29.2560 H         1 UNK         0.0000 
     41 H41         3.2562   55.2967   27.1687 H         1 UNK         0.0000 
     42 H42         2.7249   53.7751   27.7646 H         1 UNK         0.0000 
     43 H43         2.9336   52.6625   25.6476 H         1 UNK         0.0000 
     44 H44         2.1468   54.1872   25.3423 H         1 UNK         0.0000 
     45 H45         4.2194   52.4850   21.3026 H         1 UNK         0.0000 
     46 H46         2.6646   52.3981   19.4554 H         1 UNK         0.0000 
     47 H47         2.0765   51.2904   20.7001 H         1 UNK         0.0000 
     48 H48         1.3481   52.8947   20.5225 H         1 UNK         0.0000 
     49 H49         4.8987   54.2572   20.6933 H         1 UNK         0.0000 
     50 H50         8.1464   56.6345   18.8270 H         1 UNK         0.0000 
     51 H51         8.5230   56.0967   16.4779 H         1 UNK         0.0000 
     52 H52         5.8314   52.7559   16.7948 H         1 UNK         0.0000 
     53 H53         5.4537   53.2586   19.1211 H         1 UNK         0.0000 
     54 H54         7.4029   51.3072   15.6537 H         1 UNK         0.0000 
     55 H55         8.1013   50.9021   14.0507 H         1 UNK         0.0000 
     56 H56        11.5429   50.0190   15.2594 H         1 UNK         0.0000 
     57 H57        10.5362   50.0509   13.8541 H         1 UNK         0.0000 
     58 H58         9.6618   52.3488   12.9933 H         1 UNK         0.0000 
     59 H59        10.1983   53.8712   13.7751 H         1 UNK         0.0000 
     60 H60        12.1550   51.6371   12.6201 H         1 UNK         0.0000 
     61 H61        12.6648   53.1274   13.4123 H         1 UNK         0.0000 
     62 H62        13.2097   51.5727   14.0259 H         1 UNK         0.0000 
     63 H63        10.1267   51.8000   17.2732 H         1 UNK         0.0000 
     64 H64         8.7005   50.8891   17.6819 H         1 UNK         0.0000 
     65 H65        10.2683   50.0882   17.6517 H         1 UNK         0.0000 
     66 H66         5.9043   55.6967   26.8813 H         1 UNK         0.0000 
     67 H67         6.8924   54.2529   26.7722 H         1 UNK         0.0000 
@<TRIPOS>BOND
     1    1    2 1    
     2    1   38 1    
     3    1   39 1    
     4    1   40 1    
     5    2    3 1    
     6    2   37 1    
     7    2    4 1    
     8    4    5 1    
     9    4   41 1    
    10    4   42 1    
    11    5    6 1    
    12    5   43 1    
    13    5   44 1    
    14    6   10 1    
    15    6    7 2    
    16    7    8 1    
    17    7   37 1    
    18    8    9 1    
    19    9   10 2    
    20    9   15 am   BACKBONE|DICT|INTERRES
    21   10   11 1    
    22   11   12 2    
    23   11   13 am   BACKBONE|DICT|INTERRES
    24   13   14 1    
    25   13   45 1    
    26   14   46 1    
    27   14   47 1    
    28   14   48 1    
    29   15   16 am   BACKBONE|DICT|INTERRES
    30   15   49 1    
    31   16   17 2    
    32   16   18 1    
    33   18   23 ar   
    34   18   19 ar   
    35   19   20 ar   
    36   19   50 1    
    37   20   21 ar   
    38   20   51 1    
    39   21   22 ar   
    40   21   24 1    
    41   22   23 ar   
    42   22   52 1    
    43   23   53 1    
    44   24   25 2    
    45   24   26 2    
    46   24   27 1    
    47   27   34 1    
    48   27   28 1    
    49   28   29 1    
    50   28   54 1    
    51   28   55 1    
    52   29   30 1    
    53   29   31 1    
    54   29   36 1    
    55   31   32 1    
    56   31   56 1    
    57   31   57 1    
    58   32   33 1    
    59   32   34 1    
    60   32   35 1    
    61   34   58 1    
    62   34   59 1    
    63   35   60 1    
    64   35   61 1    
    65   35   62 1    
    66   36   63 1    
    67   36   64 1    
    68   36   65 1    
    69   37   66 1    
    70   37   67 1    
@<TRIPOS>SUBSTRUCTURE
     1 UNK         1 GROUP             0       ****    0 ROOT    
