@<TRIPOS>MOLECULE
ZINC11979692_843
59   62    1
SMALL
USER_CHARGES


@<TRIPOS>ATOM
      1 C1          2.4022   50.0794   19.2463 C.3       1 UNK         0.0000 
      2 C2          2.4145   51.1628   20.3398 C.3       1 UNK         0.0000 
      3 H3          1.5961   51.8562   20.1321 H         1 UNK         0.0000 
      4 C4          3.7280   51.9705   20.2998 C.2       1 UNK         0.0000 
      5 O5          4.7052   51.5499   20.9223 O.2       1 UNK         0.0000 
      6 N6          3.7061   53.1173   19.5812 N.am      1 UNK         0.0000 
      7 C7          4.7348   53.9554   19.3216 C.2       1 UNK         0.0000 
      8 O8          5.9036   53.7899   19.6805 O.2       1 UNK         0.0000 
      9 N9          4.2989   55.0111   18.6067 N.am      1 UNK         0.0000 
     10 C10         5.0014   56.1542   18.1757 C.ar      1 UNK         0.0000 
     11 C11         4.3169   56.9818   17.2809 C.ar      1 UNK         0.0000 
     12 C12         4.9123   58.1494   16.8117 C.ar      1 UNK         0.0000 
     13 C13         6.1927   58.4920   17.2365 C.ar      1 UNK         0.0000 
     14 C14         6.8824   57.6809   18.1327 C.ar      1 UNK         0.0000 
     15 C15         6.2905   56.5130   18.6063 C.ar      1 UNK         0.0000 
     16 S16         2.1217   50.4446   21.9976 S.3       1 UNK         0.0000 
     17 C17         0.4808   51.0293   22.2659 C.ar      1 UNK         0.0000 
     18 N18        -0.5482   50.4600   21.6872 N.2       1 UNK         0.0000 
     19 N19        -1.6858   51.1403   22.0808 N.2       1 UNK         0.0000 
     20 C20        -1.3029   52.0986   22.8849 C.ar      1 UNK         0.0000 
     21 N21         0.0747   52.1003   23.0547 N.pl3     1 UNK         0.0000 
     22 C22         0.8741   53.0579   23.8599 C.3       1 UNK         0.0000 
     23 C23         1.7228   52.3163   24.9176 C.3       1 UNK         0.0000 
     24 C24         2.6467   53.2892   25.6753 C.3       1 UNK         0.0000 
     25 C25         3.5914   54.0157   24.7043 C.3       1 UNK         0.0000 
     26 C26         2.8039   54.7710   23.6226 C.3       1 UNK         0.0000 
     27 C27         1.7573   53.8995   22.9076 C.3       1 UNK         0.0000 
     28 C28        -2.2952   53.0258   23.5703 C.3       1 UNK         0.0000 
     29 C29        -2.8010   52.4626   24.8915 C.2       1 UNK         0.0000 
     30 C30        -4.0956   52.5000   25.4113 C.2       1 UNK         0.0000 
     31 C31        -4.2551   51.8387   26.6343 C.2       1 UNK         0.0000 
     32 C32        -3.0705   51.2971   27.1003 C.2       1 UNK         0.0000 
     33 S33        -1.7593   51.6321   26.0257 S.3       1 UNK         0.0000 
     34 H34         2.6063   50.4936   18.2569 H         1 UNK         0.0000 
     35 H35         3.1494   49.3063   19.4304 H         1 UNK         0.0000 
     36 H36         1.4312   49.5865   19.1975 H         1 UNK         0.0000 
     37 H37         2.8145   53.3729   19.1861 H         1 UNK         0.0000 
     38 H38         3.3323   54.9950   18.3201 H         1 UNK         0.0000 
     39 H39         3.3200   56.7327   16.9453 H         1 UNK         0.0000 
     40 H40         4.3798   58.7990   16.1300 H         1 UNK         0.0000 
     41 H41         6.6465   59.4045   16.8764 H         1 UNK         0.0000 
     42 H42         7.8721   57.9616   18.4598 H         1 UNK         0.0000 
     43 H43         6.8510   55.9155   19.3079 H         1 UNK         0.0000 
     44 H44         0.1578   53.6918   24.3794 H         1 UNK         0.0000 
     45 H45         1.0660   51.8629   25.6592 H         1 UNK         0.0000 
     46 H46         2.2968   51.5032   24.4816 H         1 UNK         0.0000 
     47 H47         2.0462   54.0208   26.2182 H         1 UNK         0.0000 
     48 H48         3.2250   52.7595   26.4326 H         1 UNK         0.0000 
     49 H49         4.2315   54.7087   25.2517 H         1 UNK         0.0000 
     50 H50         4.2609   53.2968   24.2299 H         1 UNK         0.0000 
     51 H51         2.3030   55.6187   24.0818 H         1 UNK         0.0000 
     52 H52         3.4943   55.1800   22.8845 H         1 UNK         0.0000 
     53 H53         2.2155   53.3003   22.1300 H         1 UNK         0.0000 
     54 H54         1.1058   54.5934   22.3870 H         1 UNK         0.0000 
     55 H55        -1.8770   54.0222   23.6976 H         1 UNK         0.0000 
     56 H56        -3.1439   53.1989   22.9084 H         1 UNK         0.0000 
     57 H57        -4.9174   52.9745   24.8957 H         1 UNK         0.0000 
     58 H58        -5.1982   51.7516   27.1531 H         1 UNK         0.0000 
     59 H59        -2.8972   50.7179   27.9992 H         1 UNK         0.0000 
@<TRIPOS>BOND
     1    1    2 1    
     2    1   34 1    
     3    1   35 1    
     4    1   36 1    
     5    2    3 1    
     6    2    4 1    
     7    2   16 1    
     8    4    5 2    
     9    4    6 am   BACKBONE|DICT|INTERRES
    10    6    7 am   BACKBONE|DICT|INTERRES
    11    6   37 1    
    12    7    8 2    
    13    7    9 am   BACKBONE|DICT|INTERRES
    14    9   10 1    
    15    9   38 1    
    16   10   15 ar   
    17   10   11 ar   
    18   11   12 ar   
    19   11   39 1    
    20   12   13 ar   
    21   12   40 1    
    22   13   14 ar   
    23   13   41 1    
    24   14   15 ar   
    25   14   42 1    
    26   15   43 1    
    27   16   17 1    
    28   17   21 ar   
    29   17   18 ar   
    30   18   19 ar   
    31   19   20 ar   
    32   20   21 ar   
    33   20   28 1    
    34   21   22 1    
    35   22   27 1    
    36   22   23 1    
    37   22   44 1    
    38   23   24 1    
    39   23   45 1    
    40   23   46 1    
    41   24   25 1    
    42   24   47 1    
    43   24   48 1    
    44   25   26 1    
    45   25   49 1    
    46   25   50 1    
    47   26   27 1    
    48   26   51 1    
    49   26   52 1    
    50   27   53 1    
    51   27   54 1    
    52   28   29 1    
    53   28   55 1    
    54   28   56 1    
    55   29   33 1    
    56   29   30 2    
    57   30   31 1    
    58   30   57 1    
    59   31   32 2    
    60   31   58 1    
    61   32   33 1    
    62   32   59 1    
@<TRIPOS>SUBSTRUCTURE
     1 UNK         1 GROUP             0       ****    0 ROOT    
