@<TRIPOS>MOLECULE
ZINC38700652_5053
60   64    1
SMALL
USER_CHARGES


@<TRIPOS>ATOM
      1 C1          8.9810   58.6714   17.7604 C.3       1 UNK         0.0000 
      2 C2          7.6051   58.7989   18.4282 C.3       1 UNK         0.0000 
      3 C3          6.4383   58.4965   17.4783 C.3       1 UNK         0.0000 
      4 O4          6.3810   57.0885   17.2647 O.3       1 UNK         0.0000 
      5 C5          5.4824   56.5551   16.3584 C.ar      1 UNK         0.0000 
      6 C6          4.6368   57.3493   15.5637 C.ar      1 UNK         0.0000 
      7 C7          3.7597   56.7663   14.6520 C.ar      1 UNK         0.0000 
      8 C8          3.7147   55.3829   14.5195 C.ar      1 UNK         0.0000 
      9 C9          4.5362   54.5808   15.3073 C.ar      1 UNK         0.0000 
     10 C10         5.4167   55.1523   16.2358 C.ar      1 UNK         0.0000 
     11 C11         6.2598   54.2134   17.1164 C.3       1 UNK         0.0000 
     12 H12         6.0642   53.1932   16.7755 H         1 UNK         0.0000 
     13 C13         5.8326   54.2807   18.5887 C.ar      1 UNK         0.0000 
     14 C14         4.6480   53.6941   19.0443 C.ar      1 UNK         0.0000 
     15 C15         4.3039   53.7306   20.3938 C.ar      1 UNK         0.0000 
     16 C16         5.1314   54.3572   21.3251 C.ar      1 UNK         0.0000 
     17 C17         6.3059   54.9776   20.8771 C.ar      1 UNK         0.0000 
     18 C18         6.6715   54.8970   19.5362 C.ar      1 UNK         0.0000 
     19 O19         7.9286   55.3665   19.2069 O.3       1 UNK         0.0000 
     20 C20         8.4736   54.9552   18.0320 C.2       1 UNK         0.0000 
     21 C21         7.7765   54.4022   17.0174 C.2       1 UNK         0.0000 
     22 C22         8.4374   53.9861   15.8252 C.1       1 UNK         0.0000 
     23 N23         8.9877   53.6696   14.8581 N.1       1 UNK         0.0000 
     24 N24         9.8257   55.1676   18.0815 N.pl3     1 UNK         0.0000 
     25 O25         4.7328   54.3320   22.6471 O.3       1 UNK         0.0000 
     26 C26         5.6019   54.0970   23.6757 C.2       1 UNK         0.0000 
     27 O27         6.8134   53.8887   23.5733 O.2       1 UNK         0.0000 
     28 C28         4.9012   54.1067   24.9595 C.2       1 UNK         0.0000 
     29 C29         3.5357   54.0972   25.2919 C.2       1 UNK         0.0000 
     30 C30         3.5059   54.1106   26.7272 C.ar      1 UNK         0.0000 
     31 C31         2.5024   54.1041   27.7117 C.ar      1 UNK         0.0000 
     32 C32         2.8779   54.1588   29.0558 C.ar      1 UNK         0.0000 
     33 C33         4.2214   54.2106   29.4285 C.ar      1 UNK         0.0000 
     34 C34         5.2462   54.2043   28.4815 C.ar      1 UNK         0.0000 
     35 C35         4.8572   54.1510   27.1403 C.ar      1 UNK         0.0000 
     36 O36         5.6953   54.1442   26.0707 O.3       1 UNK         0.0000 
     37 F37         1.9273   54.1708   30.0154 F         1 UNK         0.0000 
     38 C38         2.3288   54.0552   24.3736 C.3       1 UNK         0.0000 
     39 H39         9.7828   58.8035   18.4881 H         1 UNK         0.0000 
     40 H40         9.1150   59.4206   16.9785 H         1 UNK         0.0000 
     41 H41         9.1088   57.6923   17.3003 H         1 UNK         0.0000 
     42 H42         7.5453   58.1250   19.2812 H         1 UNK         0.0000 
     43 H43         7.5011   59.8102   18.8232 H         1 UNK         0.0000 
     44 H44         5.5043   58.8357   17.9272 H         1 UNK         0.0000 
     45 H45         6.5769   59.0464   16.5440 H         1 UNK         0.0000 
     46 H46         4.6428   58.4260   15.6352 H         1 UNK         0.0000 
     47 H47         3.1186   57.3903   14.0476 H         1 UNK         0.0000 
     48 H48         3.0381   54.9299   13.8090 H         1 UNK         0.0000 
     49 H49         4.4766   53.5074   15.1951 H         1 UNK         0.0000 
     50 H50         3.9949   53.1890   18.3457 H         1 UNK         0.0000 
     51 H51         3.3872   53.2604   20.7175 H         1 UNK         0.0000 
     52 H52         6.9736   55.4642   21.5714 H         1 UNK         0.0000 
     53 H53        10.4050   54.9681   17.2786 H         1 UNK         0.0000 
     54 H54        10.2985   55.3037   18.9674 H         1 UNK         0.0000 
     55 H55         1.4587   54.0695   27.4419 H         1 UNK         0.0000 
     56 H56         4.4652   54.2636   30.4781 H         1 UNK         0.0000 
     57 H57         6.2879   54.2520   28.7673 H         1 UNK         0.0000 
     58 H58         1.3862   54.0919   24.9200 H         1 UNK         0.0000 
     59 H59         2.3207   54.8965   23.6818 H         1 UNK         0.0000 
     60 H60         2.3163   53.1455   23.7732 H         1 UNK         0.0000 
@<TRIPOS>BOND
     1    1    2 1    
     2    1   39 1    
     3    1   40 1    
     4    1   41 1    
     5    2    3 1    
     6    2   42 1    
     7    2   43 1    
     8    3    4 1    
     9    3   44 1    
    10    3   45 1    
    11    4    5 1    
    12    5   10 ar   
    13    5    6 ar   
    14    6    7 ar   
    15    6   46 1    
    16    7    8 ar   
    17    7   47 1    
    18    8    9 ar   
    19    8   48 1    
    20    9   10 ar   
    21    9   49 1    
    22   10   11 1    
    23   11   12 1    
    24   11   21 1    
    25   11   13 1    
    26   13   18 ar   
    27   13   14 ar   
    28   14   15 ar   
    29   14   50 1    
    30   15   16 ar   
    31   15   51 1    
    32   16   17 ar   
    33   16   25 1    
    34   17   18 ar   
    35   17   52 1    
    36   18   19 1    
    37   19   20 1    
    38   20   21 2    
    39   20   24 1    
    40   21   22 1    
    41   22   23 3    
    42   24   53 1    
    43   24   54 1    
    44   25   26 1    
    45   26   27 2    
    46   26   28 1    
    47   28   36 1    
    48   28   29 2    
    49   29   30 1    
    50   29   38 1    
    51   30   35 ar   
    52   30   31 ar   
    53   31   32 ar   
    54   31   55 1    
    55   32   33 ar   
    56   32   37 1    
    57   33   34 ar   
    58   33   56 1    
    59   34   35 ar   
    60   34   57 1    
    61   35   36 1    
    62   38   58 1    
    63   38   59 1    
    64   38   60 1    
@<TRIPOS>SUBSTRUCTURE
     1 UNK         1 GROUP             0       ****    0 ROOT    
