@<TRIPOS>MOLECULE
ZINC02458746_4359
46   49    1
SMALL
USER_CHARGES


@<TRIPOS>ATOM
      1 C1          2.1310   52.3293   31.5326 C.3       1 UNK         0.0000 
      2 C2          1.9511   52.7057   30.0710 C.2       1 UNK         0.0000 
      3 C3          2.3124   54.1479   29.6040 C.3       1 UNK         0.0000 
      4 C4          2.5585   54.2461   28.0374 C.3       1 UNK         0.0000 
      5 H5          2.2102   55.2036   27.6473 H         1 UNK         0.0000 
      6 N6          1.8126   53.1938   27.3467 N.pl3     1 UNK         0.0000 
      7 C7          1.3545   52.0522   27.9522 C.ar      1 UNK         0.0000 
      8 N8          0.7065   51.3328   27.0733 N.2       1 UNK         0.0000 
      9 C9          0.8381   52.0307   25.9493 C.ar      1 UNK         0.0000 
     10 N10         1.5050   53.1645   26.0497 N.2       1 UNK         0.0000 
     11 S11         0.1858   51.4058   24.4316 S.3       1 UNK         0.0000 
     12 C12         0.5336   52.7491   23.2466 C.3       1 UNK         0.0000 
     13 C13         1.8727   52.5797   22.5377 C.ar      1 UNK         0.0000 
     14 C14         2.0440   51.5433   21.6116 C.ar      1 UNK         0.0000 
     15 C15         3.2524   51.3984   20.9287 C.ar      1 UNK         0.0000 
     16 C16         4.2980   52.2897   21.1643 C.ar      1 UNK         0.0000 
     17 C17         4.1355   53.3254   22.0849 C.ar      1 UNK         0.0000 
     18 C18         2.9276   53.4728   22.7682 C.ar      1 UNK         0.0000 
     19 F19         2.7822   54.4969   23.6386 F         1 UNK         0.0000 
     20 N20         1.5294   51.7952   29.2803 N.2       1 UNK         0.0000 
     21 C21         4.0340   54.2333   27.6234 C.ar      1 UNK         0.0000 
     22 C22         5.0122   53.6342   28.4310 C.ar      1 UNK         0.0000 
     23 C23         6.3551   53.6989   28.0785 C.ar      1 UNK         0.0000 
     24 C24         6.7249   54.3159   26.8919 C.ar      1 UNK         0.0000 
     25 C25         5.7679   54.8674   26.0519 C.ar      1 UNK         0.0000 
     26 C26         4.4236   54.8261   26.4139 C.ar      1 UNK         0.0000 
     27 Br27        6.3184   55.6973   24.4354 Br        1 UNK         0.0000 
     28 C28         1.2802   55.1972   30.0833 C.2       1 UNK         0.0000 
     29 O29         0.3031   54.8961   30.7596 O.2       1 UNK         0.0000 
     30 N30         1.5333   56.4792   29.8199 N.am      1 UNK         0.0000 
     31 H31         1.8979   51.2911   31.7356 H         1 UNK         0.0000 
     32 H32         3.1572   52.4967   31.8599 H         1 UNK         0.0000 
     33 H33         1.4603   52.9031   32.1705 H         1 UNK         0.0000 
     34 H34        -0.2613   52.7349   22.5010 H         1 UNK         0.0000 
     35 H35         0.4479   53.7261   23.7226 H         1 UNK         0.0000 
     36 H36         1.2386   50.8491   21.4175 H         1 UNK         0.0000 
     37 H37         3.3779   50.6027   20.2073 H         1 UNK         0.0000 
     38 H38         5.2266   52.1801   20.6239 H         1 UNK         0.0000 
     39 H39         4.9408   54.0218   22.2636 H         1 UNK         0.0000 
     40 H40         3.1994   54.4749   30.1410 H         1 UNK         0.0000 
     41 H41         4.7530   53.1278   29.3474 H         1 UNK         0.0000 
     42 H42         7.1137   53.2951   28.7304 H         1 UNK         0.0000 
     43 H43         7.7621   54.3723   26.6275 H         1 UNK         0.0000 
     44 H44         3.6883   55.2760   25.7639 H         1 UNK         0.0000 
     45 H45         2.3731   56.7666   29.3412 H         1 UNK         0.0000 
     46 H46         0.9017   57.1775   30.1804 H         1 UNK         0.0000 
@<TRIPOS>BOND
     1    1   31 1    
     2    1   32 1    
     3    1   33 1    
     4    1    2 1    
     5    2   20 2    
     6    2    3 1    
     7    3    4 1    
     8    3   28 1    
     9    3   40 1    
    10    4    5 1    
    11    4    6 1    
    12    4   21 1    
    13    6   10 ar   
    14    6    7 ar   
    15    7    8 ar   
    16    7   20 1    
    17    8    9 ar   
    18    9   10 ar   
    19    9   11 1    
    20   11   12 1    
    21   12   13 1    
    22   12   34 1    
    23   12   35 1    
    24   13   18 ar   
    25   13   14 ar   
    26   14   15 ar   
    27   14   36 1    
    28   15   16 ar   
    29   15   37 1    
    30   16   17 ar   
    31   16   38 1    
    32   17   18 ar   
    33   17   39 1    
    34   18   19 1    
    35   21   26 ar   
    36   21   22 ar   
    37   22   23 ar   
    38   22   41 1    
    39   23   24 ar   
    40   23   42 1    
    41   24   25 ar   
    42   24   43 1    
    43   25   26 ar   
    44   25   27 1    
    45   26   44 1    
    46   28   29 2    
    47   28   30 am   BACKBONE|DICT|INTERRES
    48   30   45 1    
    49   30   46 1    
@<TRIPOS>SUBSTRUCTURE
     1 UNK         1 GROUP             0       ****    0 ROOT    
