@<TRIPOS>MOLECULE
ZINC00995802_3722
52   56    1
SMALL
USER_CHARGES


@<TRIPOS>ATOM
      1 C1          1.6276   58.6068   14.2364 C.2       1 UNK         0.0000 
      2 C2          2.8291   58.8138   14.9146 C.2       1 UNK         0.0000 
      3 C3          3.0699   57.6806   15.6840 C.2       1 UNK         0.0000 
      4 O4          2.0537   56.7932   15.4916 O.3       1 UNK         0.0000 
      5 C5          1.1819   57.3533   14.6158 C.2       1 UNK         0.0000 
      6 C6          4.1648   57.3056   16.6248 C.ar      1 UNK         0.0000 
      7 C7          5.3296   58.0762   16.6976 C.ar      1 UNK         0.0000 
      8 C8          6.2860   57.7627   17.6674 C.ar      1 UNK         0.0000 
      9 N9          5.9843   56.7358   18.5334 N.pl3     1 UNK         0.0000 
     10 C10         4.8268   55.9615   18.3788 C.ar      1 UNK         0.0000 
     11 N11         3.9332   56.2197   17.4181 N.2       1 UNK         0.0000 
     12 C12         4.8818   55.0149   19.4257 C.ar      1 UNK         0.0000 
     13 C13         5.9531   55.4381   20.2422 C.ar      1 UNK         0.0000 
     14 N14         6.6827   56.3608   19.6321 N.2       1 UNK         0.0000 
     15 C15         6.2497   54.9701   21.5827 C.2       1 UNK         0.0000 
     16 O16         7.3735   55.0957   22.0707 O.2       1 UNK         0.0000 
     17 N17         5.1611   54.4968   22.2307 N.am      1 UNK         0.0000 
     18 C18         5.0065   54.1997   23.5868 C.2       1 UNK         0.0000 
     19 C19         3.7914   53.9235   24.2424 C.2       1 UNK         0.0000 
     20 C20         3.9566   53.7733   25.6538 C.2       1 UNK         0.0000 
     21 C21         5.3087   53.8082   26.0320 C.2       1 UNK         0.0000 
     22 S22         6.3239   54.2626   24.7101 S.3       1 UNK         0.0000 
     23 C23         5.8815   53.5116   27.3959 C.3       1 UNK         0.0000 
     24 C24         5.4252   54.5104   28.4527 C.3       1 UNK         0.0000 
     25 C25         3.9737   54.3180   28.9392 C.3       1 UNK         0.0000 
     26 C26         2.8543   54.4913   27.8893 C.3       1 UNK         0.0000 
     27 C27         2.8701   53.5066   26.6994 C.3       1 UNK         0.0000 
     28 C28         2.5023   53.9046   23.5716 C.2       1 UNK         0.0000 
     29 O29         1.5044   54.4443   24.0351 O.2       1 UNK         0.0000 
     30 N30         2.4737   53.2976   22.3831 N.am      1 UNK         0.0000 
     31 C31         7.6043   58.5266   17.7978 C.3       1 UNK         0.0000 
     32 F32         7.8349   59.2991   16.7353 F         1 UNK         0.0000 
     33 F33         7.5656   59.2968   18.8818 F         1 UNK         0.0000 
     34 F34         8.6301   57.6812   17.9061 F         1 UNK         0.0000 
     35 H35         1.1414   59.2907   13.5569 H         1 UNK         0.0000 
     36 H36         3.4490   59.6983   14.8696 H         1 UNK         0.0000 
     37 H37         0.3135   56.7622   14.3650 H         1 UNK         0.0000 
     38 H38         5.4697   58.9266   16.0434 H         1 UNK         0.0000 
     39 H39         4.1565   54.2420   19.6323 H         1 UNK         0.0000 
     40 H40         4.3092   54.4710   21.6895 H         1 UNK         0.0000 
     41 H41         6.9715   53.4758   27.3600 H         1 UNK         0.0000 
     42 H42         5.5743   52.5147   27.7154 H         1 UNK         0.0000 
     43 H43         5.5724   55.5193   28.0716 H         1 UNK         0.0000 
     44 H44         6.1025   54.4376   29.2982 H         1 UNK         0.0000 
     45 H45         3.7905   55.0322   29.7406 H         1 UNK         0.0000 
     46 H46         3.8809   53.3331   29.3995 H         1 UNK         0.0000 
     47 H47         2.8457   55.5142   27.5175 H         1 UNK         0.0000 
     48 H48         1.9008   54.3736   28.4071 H         1 UNK         0.0000 
     49 H49         2.9908   52.4974   27.0929 H         1 UNK         0.0000 
     50 H50         1.8734   53.4963   26.2637 H         1 UNK         0.0000 
     51 H51         1.6336   53.3535   21.8257 H         1 UNK         0.0000 
     52 H52         3.2364   52.7087   22.0856 H         1 UNK         0.0000 
@<TRIPOS>BOND
     1    1    5 2    
     2    1    2 1    
     3    1   35 1    
     4    2    3 2    
     5    2   36 1    
     6    3    4 1    
     7    3    6 1    
     8    4    5 1    
     9    5   37 1    
    10    6   11 ar   
    11    6    7 ar   
    12    7    8 ar   
    13    7   38 1    
    14    8    9 ar   
    15    8   31 1    
    16    9   14 ar   
    17    9   10 ar   
    18   10   11 ar   
    19   10   12 ar   
    20   12   13 ar   
    21   12   39 1    
    22   13   14 ar   
    23   13   15 1    
    24   15   16 2    
    25   15   17 am   BACKBONE|DICT|INTERRES
    26   17   18 am   BACKBONE|DICT|INTERRES
    27   17   40 1    
    28   18   22 1    
    29   18   19 2    
    30   19   20 1    
    31   19   28 1    
    32   20   27 1    
    33   20   21 2    
    34   21   22 1    
    35   21   23 1    
    36   23   24 1    
    37   23   41 1    
    38   23   42 1    
    39   24   25 1    
    40   24   43 1    
    41   24   44 1    
    42   25   26 1    
    43   25   45 1    
    44   25   46 1    
    45   26   27 1    
    46   26   47 1    
    47   26   48 1    
    48   27   49 1    
    49   27   50 1    
    50   28   29 2    
    51   28   30 am   BACKBONE|DICT|INTERRES
    52   30   51 1    
    53   30   52 1    
    54   31   32 1    
    55   31   33 1    
    56   31   34 1    
@<TRIPOS>SUBSTRUCTURE
     1 UNK         1 GROUP             0       ****    0 ROOT    
