@<TRIPOS>MOLECULE
ZINC36090382_1542
45   47    1
SMALL
USER_CHARGES


@<TRIPOS>ATOM
      1 C1          5.6117   54.7125   27.9025 C.3       1 UNK         0.0000 
      2 C2          4.4899   54.3738   26.9263 C.ar      1 UNK         0.0000 
      3 C3          4.7313   54.4953   25.5534 C.ar      1 UNK         0.0000 
      4 C4          3.7461   54.1674   24.6151 C.ar      1 UNK         0.0000 
      5 C5          2.5120   53.6969   25.0652 C.ar      1 UNK         0.0000 
      6 C6          2.2544   53.5882   26.4324 C.ar      1 UNK         0.0000 
      7 C7          3.2271   53.9463   27.3726 C.ar      1 UNK         0.0000 
      8 N8          2.9218   53.9016   28.7432 N.pl3     1 UNK         0.0000 
      9 C9          2.3898   55.0682   29.4332 C.3       1 UNK         0.0000 
     10 C10         1.1099   54.6781   30.2016 C.3       1 UNK         0.0000 
     11 C11         0.7667   53.2061   29.9222 C.3       1 UNK         0.0000 
     12 S12         2.4341   52.4311   29.5843 S.o2      1 UNK         0.0000 
     13 O13         2.2759   51.2966   28.6732 O.2       1 UNK         0.0000 
     14 O14         3.1052   52.2891   30.8815 O.2       1 UNK         0.0000 
     15 N15         3.9464   54.3453   23.2388 N.pl3     1 UNK         0.0000 
     16 S16         5.4711   53.9531   22.4297 S.o2      1 UNK         0.0000 
     17 O17         5.6203   52.4979   22.4816 O.2       1 UNK         0.0000 
     18 O18         6.5086   54.8506   22.9487 O.2       1 UNK         0.0000 
     19 C19         5.1717   54.3814   20.7021 C.ar      1 UNK         0.0000 
     20 C20         5.7660   55.4061   19.9773 C.ar      1 UNK         0.0000 
     21 N21         5.1964   55.3017   18.7382 N.pl3     1 UNK         0.0000 
     22 H22         5.4063   55.9110   17.9607 H         1 UNK         0.0000 
     23 N23         4.3225   54.3015   18.6256 N.2       1 UNK         0.0000 
     24 C24         4.3037   53.7286   19.8077 C.ar      1 UNK         0.0000 
     25 C25         3.4030   52.5350   20.0298 C.3       1 UNK         0.0000 
     26 C26         6.7751   56.4783   20.3152 C.3       1 UNK         0.0000 
     27 H27         6.0504   53.7988   28.3047 H         1 UNK         0.0000 
     28 H28         6.3990   55.3049   27.4348 H         1 UNK         0.0000 
     29 H29         5.2417   55.2965   28.7443 H         1 UNK         0.0000 
     30 H30         5.6932   54.8551   25.2235 H         1 UNK         0.0000 
     31 H31         1.7392   53.4330   24.3581 H         1 UNK         0.0000 
     32 H32         1.2857   53.2406   26.7603 H         1 UNK         0.0000 
     33 H33         3.1124   55.5478   30.0819 H         1 UNK         0.0000 
     34 H34         2.1062   55.8591   28.7360 H         1 UNK         0.0000 
     35 H35         1.2216   54.8420   31.2755 H         1 UNK         0.0000 
     36 H36         0.3044   55.3363   29.9075 H         1 UNK         0.0000 
     37 H37         0.3101   52.7017   30.7754 H         1 UNK         0.0000 
     38 H38         0.1269   53.0599   29.0526 H         1 UNK         0.0000 
     39 H39         3.1426   54.4941   22.6483 H         1 UNK         0.0000 
     40 H40         3.4596   52.1485   21.0466 H         1 UNK         0.0000 
     41 H41         2.3573   52.7848   19.8445 H         1 UNK         0.0000 
     42 H42         3.6615   51.7112   19.3612 H         1 UNK         0.0000 
     43 H43         7.5813   56.0916   20.9392 H         1 UNK         0.0000 
     44 H44         7.2439   56.9006   19.4257 H         1 UNK         0.0000 
     45 H45         6.3041   57.2956   20.8600 H         1 UNK         0.0000 
@<TRIPOS>BOND
     1    1    2 1    
     2    1   27 1    
     3    1   28 1    
     4    1   29 1    
     5    2    7 ar   
     6    2    3 ar   
     7    3    4 ar   
     8    3   30 1    
     9    4    5 ar   
    10    4   15 1    
    11    5    6 ar   
    12    5   31 1    
    13    6    7 ar   
    14    6   32 1    
    15    7    8 1    
    16    8   12 1    
    17    8    9 1    
    18    9   10 1    
    19    9   33 1    
    20    9   34 1    
    21   10   11 1    
    22   10   35 1    
    23   10   36 1    
    24   11   12 1    
    25   11   37 1    
    26   11   38 1    
    27   12   13 2    
    28   12   14 2    
    29   15   16 1    
    30   15   39 1    
    31   16   17 2    
    32   16   18 2    
    33   16   19 1    
    34   19   24 ar   
    35   19   20 ar   
    36   20   21 ar   
    37   20   26 1    
    38   21   22 1    
    39   21   23 ar   
    40   23   24 ar   
    41   24   25 1    
    42   25   40 1    
    43   25   41 1    
    44   25   42 1    
    45   26   43 1    
    46   26   44 1    
    47   26   45 1    
@<TRIPOS>SUBSTRUCTURE
     1 UNK         1 GROUP             0       ****    0 ROOT    
