@<TRIPOS>MOLECULE
ZINC14980411_3462
63   65    1
SMALL
USER_CHARGES


@<TRIPOS>ATOM
      1 C1          1.5495   57.8609   16.0727 C.3       1 UNK         0.0000 
      2 C2          0.2102   57.1672   16.2916 C.ar      1 UNK         0.0000 
      3 C3         -0.9690   57.8932   16.0955 C.ar      1 UNK         0.0000 
      4 C4         -2.2112   57.2955   16.3018 C.ar      1 UNK         0.0000 
      5 C5         -2.2870   55.9727   16.7335 C.ar      1 UNK         0.0000 
      6 C6         -1.1206   55.2412   16.9510 C.ar      1 UNK         0.0000 
      7 C7          0.1263   55.8247   16.7101 C.ar      1 UNK         0.0000 
      8 N8          1.2624   55.0264   16.8816 N.am      1 UNK         0.0000 
      9 C9          1.9796   54.5238   15.8577 C.2       1 UNK         0.0000 
     10 O10         1.7072   54.7191   14.6716 O.2       1 UNK         0.0000 
     11 C11         3.2009   53.6695   16.2135 C.3       1 UNK         0.0000 
     12 C12         2.8897   52.3455   16.9596 C.3       1 UNK         0.0000 
     13 C13         2.6123   52.4324   18.4849 C.3       1 UNK         0.0000 
     14 H14         1.7319   53.0478   18.6703 H         1 UNK         0.0000 
     15 C15         2.2938   51.0330   19.0651 C.3       1 UNK         0.0000 
     16 C16         2.1210   51.0456   20.5960 C.3       1 UNK         0.0000 
     17 C17         3.3253   51.6858   21.3132 C.3       1 UNK         0.0000 
     18 C18         3.7946   53.0802   19.2446 C.3       1 UNK         0.0000 
     19 C19         4.6566   53.9119   21.4431 C.3       1 UNK         0.0000 
     20 C20         4.5759   54.0172   22.9583 C.2       1 UNK         0.0000 
     21 C21         5.6511   54.0968   23.8443 C.2       1 UNK         0.0000 
     22 C22         5.2950   54.2411   25.1861 C.2       1 UNK         0.0000 
     23 C23         3.9269   54.2820   25.3785 C.2       1 UNK         0.0000 
     24 S24         3.0819   54.1405   23.8669 S.3       1 UNK         0.0000 
     25 C25         3.2209   54.4276   26.6403 C.1       1 UNK         0.0000 
     26 C26         2.7079   54.5585   27.7420 C.1       1 UNK         0.0000 
     27 C27         2.1670   54.7325   29.1075 C.3       1 UNK         0.0000 
     28 C28         1.8389   56.2125   29.3961 C.3       1 UNK         0.0000 
     29 C29         0.9233   53.8496   29.3297 C.3       1 UNK         0.0000 
     30 O30         3.1148   54.3329   30.0769 O.3       1 UNK         0.0000 
     31 F31        -3.3442   57.9992   16.0815 F         1 UNK         0.0000 
     32 H32         1.4524   58.9474   16.0802 H         1 UNK         0.0000 
     33 H33         2.2466   57.6087   16.8720 H         1 UNK         0.0000 
     34 H34         1.9930   57.5501   15.1266 H         1 UNK         0.0000 
     35 H35        -0.9252   58.9235   15.7749 H         1 UNK         0.0000 
     36 H36        -3.2516   55.5106   16.8803 H         1 UNK         0.0000 
     37 H37        -1.1887   54.2103   17.2676 H         1 UNK         0.0000 
     38 H38         1.4977   54.7541   17.8257 H         1 UNK         0.0000 
     39 H39         3.9431   54.2787   16.7262 H         1 UNK         0.0000 
     40 H40         3.6730   53.4032   15.2656 H         1 UNK         0.0000 
     41 H41         3.7558   51.6967   16.8189 H         1 UNK         0.0000 
     42 H42         2.0688   51.8270   16.4600 H         1 UNK         0.0000 
     43 H43         3.1038   50.3465   18.8162 H         1 UNK         0.0000 
     44 H44         1.4215   50.6041   18.5694 H         1 UNK         0.0000 
     45 H45         1.9872   50.0249   20.9562 H         1 UNK         0.0000 
     46 H46         1.2081   51.5812   20.8603 H         1 UNK         0.0000 
     47 H47         4.2604   51.1466   21.1508 H         1 UNK         0.0000 
     48 H48         3.1133   51.7542   22.3788 H         1 UNK         0.0000 
     49 H49         3.9193   54.1180   18.9344 H         1 UNK         0.0000 
     50 H50         4.7309   52.5375   19.0864 H         1 UNK         0.0000 
     51 H51         4.6242   54.8992   20.9821 H         1 UNK         0.0000 
     52 H52         5.5759   53.4231   21.1203 H         1 UNK         0.0000 
     53 H53         6.6817   54.0566   23.5206 H         1 UNK         0.0000 
     54 H54         6.0120   54.3095   25.9911 H         1 UNK         0.0000 
     55 H55         1.0740   56.5889   28.7170 H         1 UNK         0.0000 
     56 H56         2.7066   56.8658   29.2919 H         1 UNK         0.0000 
     57 H57         1.4581   56.3485   30.4101 H         1 UNK         0.0000 
     58 H58         0.1203   54.0993   28.6350 H         1 UNK         0.0000 
     59 H59         1.1484   52.7892   29.1992 H         1 UNK         0.0000 
     60 H60         0.5233   53.9690   30.3377 H         1 UNK         0.0000 
     61 H61         3.9505   54.7509   29.8503 H         1 UNK         0.0000 
     62 N62         3.5045   53.1229   20.7680 N.4       1 UNK         0.0000 
     63 H63         2.6472   53.6435   20.9142 H         1 UNK         0.0000 
@<TRIPOS>BOND
     1    1    2 1    
     2    1   32 1    
     3    1   33 1    
     4    1   34 1    
     5    2    7 ar   
     6    2    3 ar   
     7    3    4 ar   
     8    3   35 1    
     9    4    5 ar   
    10    4   31 1    
    11    5    6 ar   
    12    5   36 1    
    13    6    7 ar   
    14    6   37 1    
    15    7    8 1    
    16    8    9 am   BACKBONE|DICT|INTERRES
    17    8   38 1    
    18    9   10 2    
    19    9   11 1    
    20   11   12 1    
    21   11   39 1    
    22   11   40 1    
    23   12   13 1    
    24   12   41 1    
    25   12   42 1    
    26   13   14 1    
    27   13   18 1    
    28   13   15 1    
    29   15   16 1    
    30   15   43 1    
    31   15   44 1    
    32   16   17 1    
    33   16   45 1    
    34   16   46 1    
    35   17   47 1    
    36   17   48 1    
    37   17   62 1    
    38   18   49 1    
    39   18   50 1    
    40   18   62 1    
    41   19   20 1    
    42   19   51 1    
    43   19   52 1    
    44   19   62 1    
    45   20   24 1    
    46   20   21 2    
    47   21   22 1    
    48   21   53 1    
    49   22   23 2    
    50   22   54 1    
    51   23   24 1    
    52   23   25 1    
    53   25   26 3    
    54   26   27 1    
    55   27   28 1    
    56   27   29 1    
    57   27   30 1    
    58   28   55 1    
    59   28   56 1    
    60   28   57 1    
    61   29   58 1    
    62   29   59 1    
    63   29   60 1    
    64   30   61 1    
    65   62   63 1    
@<TRIPOS>SUBSTRUCTURE
     1 UNK         1 GROUP             0       ****    0 ROOT    
