@<TRIPOS>MOLECULE
ZINC59170529_5004
48   51    1
SMALL
USER_CHARGES


@<TRIPOS>ATOM
      1 C1          2.9559   55.0923   29.2708 C.ar      1 UNK         0.0000 
      2 C2          1.8172   54.6502   29.9392 C.ar      1 UNK         0.0000 
      3 C3          1.5903   53.2822   30.0826 C.ar      1 UNK         0.0000 
      4 C4          2.5035   52.3534   29.5863 C.ar      1 UNK         0.0000 
      5 C5          3.6417   52.7953   28.9172 C.ar      1 UNK         0.0000 
      6 C6          3.8373   54.1596   28.7139 C.ar      1 UNK         0.0000 
      7 N7          4.8876   54.5811   27.8972 N.am      1 UNK         0.0000 
      8 C8          5.0403   54.5452   26.5451 C.2       1 UNK         0.0000 
      9 O9          6.1386   54.9424   26.1507 O.2       1 UNK         0.0000 
     10 C10         4.0027   54.1064   25.5731 C.2       1 UNK         0.0000 
     11 C11         2.7451   53.6965   25.9308 C.2       1 UNK         0.0000 
     12 C12         1.7293   53.1692   25.0126 C.ar      1 UNK         0.0000 
     13 C13         0.5661   52.4981   25.3999 C.ar      1 UNK         0.0000 
     14 C14        -0.2939   51.9994   24.4183 C.ar      1 UNK         0.0000 
     15 C15         0.0204   52.1479   23.0634 C.ar      1 UNK         0.0000 
     16 C16         1.2040   52.7860   22.6819 C.ar      1 UNK         0.0000 
     17 C17         2.0552   53.2764   23.6694 C.ar      1 UNK         0.0000 
     18 O18         3.2634   53.8393   23.3198 O.3       1 UNK         0.0000 
     19 C19         4.2296   54.0970   24.1593 C.2       1 UNK         0.0000 
     20 N20         5.3982   54.3671   23.5575 N.pl3     1 UNK         0.0000 
     21 C21         5.7045   54.3811   22.1517 C.ar      1 UNK         0.0000 
     22 C22         6.6524   55.2959   21.6822 C.ar      1 UNK         0.0000 
     23 C23         6.9490   55.3596   20.3195 C.ar      1 UNK         0.0000 
     24 C24         6.3064   54.4973   19.4261 C.ar      1 UNK         0.0000 
     25 C25         5.3824   53.5638   19.8874 C.ar      1 UNK         0.0000 
     26 C26         5.1002   53.4944   21.2453 C.ar      1 UNK         0.0000 
     27 S27         6.6678   54.5325   17.6783 S.o2      1 UNK         0.0000 
     28 O28         5.4011   54.7875   16.9882 O.2       1 UNK         0.0000 
     29 O29         7.8373   55.3942   17.4801 O.2       1 UNK         0.0000 
     30 N30         7.1461   52.8970   17.2982 N.pl3     1 UNK         0.0000 
     31 Cl31       -1.7476   51.1932   24.8807 Cl        1 UNK         0.0000 
     32 Cl32        0.1642   52.7350   30.8815 Cl        1 UNK         0.0000 
     33 H33         3.1047   56.1514   29.1308 H         1 UNK         0.0000 
     34 H34         1.1077   55.3642   30.3344 H         1 UNK         0.0000 
     35 H35         2.3110   51.2965   29.6861 H         1 UNK         0.0000 
     36 H36         4.3424   52.0952   28.4939 H         1 UNK         0.0000 
     37 H37         5.6756   54.9717   28.3955 H         1 UNK         0.0000 
     38 H38         2.3927   53.7272   26.9386 H         1 UNK         0.0000 
     39 H39         0.3198   52.3696   26.4456 H         1 UNK         0.0000 
     40 H40        -0.6417   51.7527   22.3076 H         1 UNK         0.0000 
     41 H41         1.4674   52.8853   21.6383 H         1 UNK         0.0000 
     42 H42         7.1542   55.9665   22.3662 H         1 UNK         0.0000 
     43 H43         7.6807   56.0701   19.9618 H         1 UNK         0.0000 
     44 H44         4.9044   52.8747   19.2026 H         1 UNK         0.0000 
     45 H45         4.4059   52.7361   21.5743 H         1 UNK         0.0000 
     46 H46         6.3781   52.2668   17.0405 H         1 UNK         0.0000 
     47 H47         7.9820   52.8107   16.7139 H         1 UNK         0.0000 
     48 H48         6.1631   54.6450   24.1675 H         1 UNK         0.0000 
@<TRIPOS>BOND
     1    1    6 ar   
     2    1    2 ar   
     3    1   33 1    
     4    2    3 ar   
     5    2   34 1    
     6    3    4 ar   
     7    3   32 1    
     8    4    5 ar   
     9    4   35 1    
    10    5    6 ar   
    11    5   36 1    
    12    6    7 1    
    13    7    8 am   BACKBONE|DICT|INTERRES
    14    7   37 1    
    15    8    9 2    
    16    8   10 1    
    17   10   19 1    
    18   10   11 2    
    19   11   12 1    
    20   11   38 1    
    21   12   17 ar   
    22   12   13 ar   
    23   13   14 ar   
    24   13   39 1    
    25   14   15 ar   
    26   14   31 1    
    27   15   16 ar   
    28   15   40 1    
    29   16   17 ar   
    30   16   41 1    
    31   17   18 1    
    32   18   19 1    
    33   19   20 2    
    34   20   21 1    
    35   20   48 1    
    36   21   26 ar   
    37   21   22 ar   
    38   22   23 ar   
    39   22   42 1    
    40   23   24 ar   
    41   23   43 1    
    42   24   25 ar   
    43   24   27 1    
    44   25   26 ar   
    45   25   44 1    
    46   26   45 1    
    47   27   28 2    
    48   27   29 2    
    49   27   30 1    
    50   30   46 1    
    51   30   47 1    
@<TRIPOS>SUBSTRUCTURE
     1 UNK         1 GROUP             0       ****    0 ROOT    
