@<TRIPOS>MOLECULE
ZINC22017769_2617
49   52    1
SMALL
USER_CHARGES


@<TRIPOS>ATOM
      1 C1         -0.5475   51.9377   24.2505 C.ar      1 UNK         0.0000 
      2 C2          0.5070   51.0387   24.1400 C.ar      1 UNK         0.0000 
      3 C3          1.7763   51.5098   23.8212 C.ar      1 UNK         0.0000 
      4 C4          2.0114   52.8800   23.6496 C.ar      1 UNK         0.0000 
      5 C5          0.9433   53.7690   23.7496 C.ar      1 UNK         0.0000 
      6 C6         -0.3339   53.2966   24.0452 C.ar      1 UNK         0.0000 
      7 C7          3.4214   53.3999   23.3028 C.3       1 UNK         0.0000 
      8 C8          3.6151   54.3236   22.1030 C.3       1 UNK         0.0000 
      9 C9          4.0684   52.8978   21.9907 C.3       1 UNK         0.0000 
     10 H10         5.1382   52.6956   21.9753 H         1 UNK         0.0000 
     11 C11         3.2836   51.9539   21.0461 C.2       1 UNK         0.0000 
     12 O12         3.5045   50.7462   21.1242 O.2       1 UNK         0.0000 
     13 N13         2.3996   52.4968   20.1769 N.am      1 UNK         0.0000 
     14 N14         1.5964   51.6949   19.3552 N.am      1 UNK         0.0000 
     15 C15         0.4764   51.1151   19.8499 C.2       1 UNK         0.0000 
     16 O16         0.0835   51.2227   21.0127 O.2       1 UNK         0.0000 
     17 C17        -0.2862   50.2599   18.8620 C.ar      1 UNK         0.0000 
     18 C18         0.4385   49.2188   18.2542 C.ar      1 UNK         0.0000 
     19 C19        -0.1724   48.3116   17.3976 C.ar      1 UNK         0.0000 
     20 C20        -1.5298   48.4191   17.1370 C.ar      1 UNK         0.0000 
     21 C21        -2.2686   49.4425   17.7218 C.ar      1 UNK         0.0000 
     22 C22        -1.6850   50.3959   18.5816 C.ar      1 UNK         0.0000 
     23 C23        -2.5859   51.5052   19.0992 C.2       1 UNK         0.0000 
     24 O24        -2.0957   52.4965   19.6815 O.co2     1 UNK         0.0000 
     25 O25        -3.8180   51.4210   18.8848 O.co2     1 UNK         0.0000 
     26 C26         4.2996   53.7958   24.5198 C.ar      1 UNK         0.0000 
     27 C27         5.6492   54.1464   24.3428 C.ar      1 UNK         0.0000 
     28 C28         6.4476   54.4964   25.4270 C.ar      1 UNK         0.0000 
     29 C29         5.9085   54.4975   26.7095 C.ar      1 UNK         0.0000 
     30 C30         4.5743   54.1564   26.9104 C.ar      1 UNK         0.0000 
     31 C31         3.7745   53.8110   25.8232 C.ar      1 UNK         0.0000 
     32 H32        -1.5404   51.5741   24.4712 H         1 UNK         0.0000 
     33 H33         0.3378   49.9800   24.2731 H         1 UNK         0.0000 
     34 H34         2.5710   50.7904   23.6956 H         1 UNK         0.0000 
     35 H35         1.1038   54.8248   23.5903 H         1 UNK         0.0000 
     36 H36        -1.1643   53.9838   24.0817 H         1 UNK         0.0000 
     37 H37         2.7034   54.7094   21.6817 H         1 UNK         0.0000 
     38 H38         4.3950   55.0821   22.0823 H         1 UNK         0.0000 
     39 H39         2.1588   53.4790   20.1342 H         1 UNK         0.0000 
     40 H40         2.0951   51.3504   18.5471 H         1 UNK         0.0000 
     41 H41         1.4944   49.0879   18.4545 H         1 UNK         0.0000 
     42 H42         0.4084   47.5217   16.9444 H         1 UNK         0.0000 
     43 H43        -2.0106   47.7135   16.4756 H         1 UNK         0.0000 
     44 H44        -3.3203   49.4949   17.4760 H         1 UNK         0.0000 
     45 H45         6.1005   54.1515   23.3625 H         1 UNK         0.0000 
     46 H46         7.4830   54.7568   25.2653 H         1 UNK         0.0000 
     47 H47         6.5260   54.7636   27.5558 H         1 UNK         0.0000 
     48 H48         4.1610   54.1577   27.9081 H         1 UNK         0.0000 
     49 H49         2.7447   53.5474   26.0120 H         1 UNK         0.0000 
@<TRIPOS>BOND
     1    1    6 ar   
     2    1    2 ar   
     3    1   32 1    
     4    2    3 ar   
     5    2   33 1    
     6    3    4 ar   
     7    3   34 1    
     8    4    5 ar   
     9    4    7 1    
    10    5    6 ar   
    11    5   35 1    
    12    6   36 1    
    13    7    9 1    
    14    7    8 1    
    15    7   26 1    
    16    8    9 1    
    17    8   37 1    
    18    8   38 1    
    19    9   10 1    
    20    9   11 1    
    21   11   12 2    
    22   11   13 am   BACKBONE|DICT|INTERRES
    23   13   14 1    
    24   13   39 1    
    25   14   15 am   BACKBONE|DICT|INTERRES
    26   14   40 1    
    27   15   16 2    
    28   15   17 1    
    29   17   22 ar   
    30   17   18 ar   
    31   18   19 ar   
    32   18   41 1    
    33   19   20 ar   
    34   19   42 1    
    35   20   21 ar   
    36   20   43 1    
    37   21   22 ar   
    38   21   44 1    
    39   22   23 1    
    40   23   24 2    
    41   23   25 1    
    42   26   31 ar   
    43   26   27 ar   
    44   27   28 ar   
    45   27   45 1    
    46   28   29 ar   
    47   28   46 1    
    48   29   30 ar   
    49   29   47 1    
    50   30   31 ar   
    51   30   48 1    
    52   31   49 1    
@<TRIPOS>SUBSTRUCTURE
     1 UNK         1 GROUP             0       ****    0 ROOT    
