@<TRIPOS>MOLECULE
ZINC09357947_972
53   58    1
SMALL
USER_CHARGES


@<TRIPOS>ATOM
      1 C1          7.5804   59.3648   14.7560 C.3       1 UNK         0.0000 
      2 C2          7.3659   58.8957   16.1995 C.3       1 UNK         0.0000 
      3 H3          7.6556   59.6968   16.8831 H         1 UNK         0.0000 
      4 C4          5.9323   58.4668   16.5463 C.3       1 UNK         0.0000 
      5 C5          6.1834   57.2990   17.4417 C.ar      1 UNK         0.0000 
      6 C6          5.3298   56.5138   18.2132 C.ar      1 UNK         0.0000 
      7 C7          5.8419   55.4086   18.9111 C.ar      1 UNK         0.0000 
      8 C8          7.1925   55.0540   18.7479 C.ar      1 UNK         0.0000 
      9 C9          8.0424   55.8292   17.9535 C.ar      1 UNK         0.0000 
     10 C10         7.5157   56.9523   17.3235 C.ar      1 UNK         0.0000 
     11 O11         8.2234   57.7915   16.5011 O.3       1 UNK         0.0000 
     12 C12         4.9112   54.5956   19.7437 C.2       1 UNK         0.0000 
     13 O13         3.9041   54.1397   19.2104 O.2       1 UNK         0.0000 
     14 C14         5.0778   54.4979   21.2133 C.2       1 UNK         0.0000 
     15 C15         6.1250   54.8063   21.9931 C.2       1 UNK         0.0000 
     16 C16         5.8938   54.4966   23.3915 C.2       1 UNK         0.0000 
     17 O17         6.7046   54.5841   24.3237 O.2       1 UNK         0.0000 
     18 N18         4.5803   54.1233   23.4857 N.am      1 UNK         0.0000 
     19 C19         3.9483   54.0967   22.1473 C.3       1 UNK         0.0000 
     20 H20         3.2100   54.9004   22.1485 H         1 UNK         0.0000 
     21 C21         3.1415   52.8396   21.7517 C.ar      1 UNK         0.0000 
     22 C22         1.7406   52.8967   21.7160 C.ar      1 UNK         0.0000 
     23 C23         0.9801   51.8064   21.2973 C.ar      1 UNK         0.0000 
     24 C24         1.6159   50.6432   20.8744 C.ar      1 UNK         0.0000 
     25 C25         3.0067   50.5814   20.8752 C.ar      1 UNK         0.0000 
     26 C26         3.7631   51.6683   21.3105 C.ar      1 UNK         0.0000 
     27 F27         5.1044   51.5836   21.2909 F         1 UNK         0.0000 
     28 C28         3.8851   54.0098   24.7133 C.2       1 UNK         0.0000 
     29 N29         4.3764   54.3933   25.8687 N.2       1 UNK         0.0000 
     30 C30         3.5423   54.1425   26.9049 C.ar      1 UNK         0.0000 
     31 C31         3.8291   54.4346   28.2448 C.ar      1 UNK         0.0000 
     32 C32         2.8654   54.1283   29.2060 C.ar      1 UNK         0.0000 
     33 C33         1.6495   53.5396   28.8593 C.ar      1 UNK         0.0000 
     34 C34         1.3486   53.2351   27.5316 C.ar      1 UNK         0.0000 
     35 C35         2.3050   53.5495   26.5549 C.ar      1 UNK         0.0000 
     36 S36         2.2624   53.3355   24.8126 S.3       1 UNK         0.0000 
     37 F37         0.7473   53.2621   29.8267 F         1 UNK         0.0000 
     38 O38         7.2747   55.2969   21.6812 O.co2     1 UNK         0.0000 
     39 H39         6.9345   60.2114   14.5227 H         1 UNK         0.0000 
     40 H40         7.3611   58.5668   14.0467 H         1 UNK         0.0000 
     41 H41         8.6121   59.6784   14.5975 H         1 UNK         0.0000 
     42 H42         5.3625   59.2762   17.0032 H         1 UNK         0.0000 
     43 H43         5.4002   58.1291   15.6560 H         1 UNK         0.0000 
     44 H44         4.2804   56.7660   18.2821 H         1 UNK         0.0000 
     45 H45         7.5950   54.1840   19.2467 H         1 UNK         0.0000 
     46 H46         9.0815   55.5567   17.8414 H         1 UNK         0.0000 
     47 H47         1.2320   53.7974   22.0246 H         1 UNK         0.0000 
     48 H48        -0.0977   51.8695   21.2870 H         1 UNK         0.0000 
     49 H49         1.0363   49.7986   20.5325 H         1 UNK         0.0000 
     50 H50         3.5040   49.6967   20.5184 H         1 UNK         0.0000 
     51 H51         4.7708   54.8866   28.5210 H         1 UNK         0.0000 
     52 H52         3.0636   54.3500   30.2404 H         1 UNK         0.0000 
     53 H53         0.4054   52.7766   27.2724 H         1 UNK         0.0000 
@<TRIPOS>BOND
     1    1    2 1    
     2    1   39 1    
     3    1   40 1    
     4    1   41 1    
     5    2    3 1    
     6    2   11 1    
     7    2    4 1    
     8    4    5 1    
     9    4   42 1    
    10    4   43 1    
    11    5   10 ar   
    12    5    6 ar   
    13    6    7 ar   
    14    6   44 1    
    15    7    8 ar   
    16    7   12 1    
    17    8    9 ar   
    18    8   45 1    
    19    9   10 ar   
    20    9   46 1    
    21   10   11 1    
    22   12   13 2    
    23   12   14 1    
    24   14   19 1    
    25   14   15 2    
    26   15   16 1    
    27   15   38 1    
    28   16   17 2    
    29   16   18 am   BACKBONE|DICT|INTERRES
    30   18   19 1    
    31   18   28 am   BACKBONE|DICT|INTERRES
    32   19   20 1    
    33   19   21 1    
    34   21   26 ar   
    35   21   22 ar   
    36   22   23 ar   
    37   22   47 1    
    38   23   24 ar   
    39   23   48 1    
    40   24   25 ar   
    41   24   49 1    
    42   25   26 ar   
    43   25   50 1    
    44   26   27 1    
    45   28   36 1    
    46   28   29 2    
    47   29   30 1    
    48   30   35 ar   
    49   30   31 ar   
    50   31   32 ar   
    51   31   51 1    
    52   32   33 ar   
    53   32   52 1    
    54   33   34 ar   
    55   33   37 1    
    56   34   35 ar   
    57   34   53 1    
    58   35   36 1    
@<TRIPOS>SUBSTRUCTURE
     1 UNK         1 GROUP             0       ****    0 ROOT    
