@<TRIPOS>MOLECULE
ZINC09937247_3605
60   64    1
SMALL
USER_CHARGES


@<TRIPOS>ATOM
      1 C1          5.7769   54.3140   16.0513 C.3       1 UNK         0.0000 
      2 C2          5.6701   54.3038   17.5645 C.ar      1 UNK         0.0000 
      3 C3          4.6111   53.6398   18.1866 C.ar      1 UNK         0.0000 
      4 C4          4.5273   53.6037   19.5758 C.ar      1 UNK         0.0000 
      5 C5          5.5034   54.2281   20.3674 C.ar      1 UNK         0.0000 
      6 C6          6.5742   54.8969   19.7405 C.ar      1 UNK         0.0000 
      7 C7          6.6435   54.9295   18.3443 C.ar      1 UNK         0.0000 
      8 C8          7.6786   55.5822   20.5368 C.3       1 UNK         0.0000 
      9 N9          5.4478   54.1580   21.7750 N.am      1 UNK         0.0000 
     10 C10         4.3472   54.2947   22.5486 C.2       1 UNK         0.0000 
     11 O11         3.2295   54.4966   22.0821 O.2       1 UNK         0.0000 
     12 C12         4.5325   54.2300   24.0607 C.ar      1 UNK         0.0000 
     13 C13         5.6999   54.7168   24.7021 C.ar      1 UNK         0.0000 
     14 N14         5.9248   54.6402   26.0323 N.ar      1 UNK         0.0000 
     15 C15         4.9731   54.0938   26.7699 C.ar      1 UNK         0.0000 
     16 C16         3.7230   53.6165   26.2867 C.ar      1 UNK         0.0000 
     17 C17         3.5037   53.6973   24.8861 C.ar      1 UNK         0.0000 
     18 C18         2.2081   53.1536   24.3559 C.2       1 UNK         0.0000 
     19 C19         0.9679   53.7069   24.0815 C.2       1 UNK         0.0000 
     20 C20         0.1293   52.6749   23.6614 C.2       1 UNK         0.0000 
     21 C21         0.9056   51.5324   23.6538 C.2       1 UNK         0.0000 
     22 O22         2.1616   51.8300   24.0663 O.3       1 UNK         0.0000 
     23 C23         2.9419   53.0725   27.3694 C.2       1 UNK         0.0000 
     24 C24         3.6131   53.1162   28.5901 C.2       1 UNK         0.0000 
     25 S25         5.1983   53.8391   28.4817 S.3       1 UNK         0.0000 
     26 C26         3.2173   52.5704   29.8648 C.2       1 UNK         0.0000 
     27 O27         3.9041   51.7051   30.4098 O.2       1 UNK         0.0000 
     28 N28         2.0631   53.0390   30.3925 N.am      1 UNK         0.0000 
     29 C29         1.5195   52.4929   31.6387 C.3       1 UNK         0.0000 
     30 C30         0.1910   53.2191   31.7712 C.3       1 UNK         0.0000 
     31 C31         0.3682   54.5245   31.0307 C.3       1 UNK         0.0000 
     32 C32         1.3099   54.1980   29.8860 C.3       1 UNK         0.0000 
     33 N33         1.7037   52.4980   27.2096 N.pl3     1 UNK         0.0000 
     34 C34         6.8608   55.4026   23.9926 C.3       1 UNK         0.0000 
     35 H35         6.8217   54.3127   15.7363 H         1 UNK         0.0000 
     36 H36         5.3214   53.4198   15.6218 H         1 UNK         0.0000 
     37 H37         5.2844   55.1953   15.6373 H         1 UNK         0.0000 
     38 H38         3.8591   53.1352   17.5963 H         1 UNK         0.0000 
     39 H39         3.7041   53.0708   20.0306 H         1 UNK         0.0000 
     40 H40         7.4658   55.4381   17.8601 H         1 UNK         0.0000 
     41 H41         8.4913   55.9329   19.9026 H         1 UNK         0.0000 
     42 H42         7.2775   56.4339   21.0821 H         1 UNK         0.0000 
     43 H43         8.1150   54.8970   21.2610 H         1 UNK         0.0000 
     44 H44         6.3352   54.1032   22.2478 H         1 UNK         0.0000 
     45 H45         0.7051   54.7444   24.1987 H         1 UNK         0.0000 
     46 H46        -0.9122   52.7527   23.3845 H         1 UNK         0.0000 
     47 H47         0.7130   50.4993   23.4068 H         1 UNK         0.0000 
     48 H48         2.1605   52.7302   32.4816 H         1 UNK         0.0000 
     49 H49         1.3811   51.4156   31.6003 H         1 UNK         0.0000 
     50 H50        -0.0958   53.3451   32.8144 H         1 UNK         0.0000 
     51 H51        -0.5850   52.6290   31.2817 H         1 UNK         0.0000 
     52 H52        -0.5694   54.8964   30.6415 H         1 UNK         0.0000 
     53 H53         0.7816   55.2898   31.6862 H         1 UNK         0.0000 
     54 H54         0.7025   53.9311   29.0202 H         1 UNK         0.0000 
     55 H55         1.9460   55.0605   29.6780 H         1 UNK         0.0000 
     56 H56         1.2686   52.4268   26.2976 H         1 UNK         0.0000 
     57 H57         1.2189   52.0472   27.9736 H         1 UNK         0.0000 
     58 H58         6.5171   56.0968   23.2308 H         1 UNK         0.0000 
     59 H59         7.4820   55.9915   24.6701 H         1 UNK         0.0000 
     60 H60         7.5043   54.6562   23.5329 H         1 UNK         0.0000 
@<TRIPOS>BOND
     1    1    2 1    
     2    1   35 1    
     3    1   36 1    
     4    1   37 1    
     5    2    7 ar   
     6    2    3 ar   
     7    3    4 ar   
     8    3   38 1    
     9    4    5 ar   
    10    4   39 1    
    11    5    6 ar   
    12    5    9 1    
    13    6    7 ar   
    14    6    8 1    
    15    7   40 1    
    16    8   41 1    
    17    8   42 1    
    18    8   43 1    
    19    9   10 am   BACKBONE|DICT|INTERRES
    20    9   44 1    
    21   10   11 2    
    22   10   12 1    
    23   12   17 ar   
    24   12   13 ar   
    25   13   14 ar   
    26   13   34 1    
    27   14   15 ar   
    28   15   25 1    
    29   15   16 ar   
    30   16   17 ar   
    31   16   23 1    
    32   17   18 1    
    33   18   22 1    
    34   18   19 2    
    35   19   20 1    
    36   19   45 1    
    37   20   21 2    
    38   20   46 1    
    39   21   22 1    
    40   21   47 1    
    41   23   24 2    
    42   23   33 1    
    43   24   25 1    
    44   24   26 1    
    45   26   27 2    
    46   26   28 am   BACKBONE|DICT|INTERRES
    47   28   32 1    
    48   28   29 1    
    49   29   30 1    
    50   29   48 1    
    51   29   49 1    
    52   30   31 1    
    53   30   50 1    
    54   30   51 1    
    55   31   32 1    
    56   31   52 1    
    57   31   53 1    
    58   32   54 1    
    59   32   55 1    
    60   33   56 1    
    61   33   57 1    
    62   34   58 1    
    63   34   59 1    
    64   34   60 1    
@<TRIPOS>SUBSTRUCTURE
     1 UNK         1 GROUP             0       ****    0 ROOT    
