@<TRIPOS>MOLECULE
ZINC40010058_2776
52   55    1
SMALL
USER_CHARGES


@<TRIPOS>ATOM
      1 C1          1.3126   53.2668   30.4363 C.3       1 UNK         0.0000 
      2 C2          2.1749   52.3122   29.5871 C.3       1 UNK         0.0000 
      3 H3          1.9487   51.2970   29.9085 H         1 UNK         0.0000 
      4 C4          3.6959   52.5287   29.7645 C.3       1 UNK         0.0000 
      5 C5          4.1935   53.8599   29.1493 C.3       1 UNK         0.0000 
      6 C6          3.7737   53.9352   27.6807 C.2       1 UNK         0.0000 
      7 C7          4.5273   54.1580   26.5764 C.2       1 UNK         0.0000 
      8 C8          3.7320   54.0952   25.3663 C.2       1 UNK         0.0000 
      9 N9          4.2152   54.2627   24.1920 N.2       1 UNK         0.0000 
     10 C10         5.5902   54.4970   24.1110 C.2       1 UNK         0.0000 
     11 N11         6.4239   54.5850   25.0875 N.am      1 UNK         0.0000 
     12 C12         5.9741   54.4257   26.4126 C.2       1 UNK         0.0000 
     13 O13         6.6846   54.4954   27.4074 O.2       1 UNK         0.0000 
     14 S14         6.3243   54.7196   22.4749 S.3       1 UNK         0.0000 
     15 C15         4.8738   54.6306   21.3591 C.3       1 UNK         0.0000 
     16 C16         4.4063   53.2031   21.0744 C.2       1 UNK         0.0000 
     17 O17         5.1618   52.4395   20.4808 O.2       1 UNK         0.0000 
     18 N18         3.1830   52.8620   21.5236 N.am      1 UNK         0.0000 
     19 C19         2.5125   51.6462   21.3160 C.ar      1 UNK         0.0000 
     20 C20         1.5648   51.2753   22.2704 C.ar      1 UNK         0.0000 
     21 C21         0.8427   50.0941   22.1180 C.ar      1 UNK         0.0000 
     22 C22         1.0560   49.2794   21.0074 C.ar      1 UNK         0.0000 
     23 C23         2.0071   49.6341   20.0352 C.ar      1 UNK         0.0000 
     24 C24         2.7190   50.8266   20.1932 C.ar      1 UNK         0.0000 
     25 N25         2.3032   48.8817   18.8811 N.am      1 UNK         0.0000 
     26 C26         1.8329   47.6797   18.4995 C.2       1 UNK         0.0000 
     27 O27         1.0658   46.9661   19.1490 O.2       1 UNK         0.0000 
     28 C28         2.3302   47.1780   17.1503 C.3       1 UNK         0.0000 
     29 S29         2.0196   53.6986   25.6383 S.3       1 UNK         0.0000 
     30 C30         2.2837   53.6946   27.4223 C.3       1 UNK         0.0000 
     31 H31         1.7147   54.5319   27.8289 H         1 UNK         0.0000 
     32 C32         1.8342   52.3738   28.0847 C.3       1 UNK         0.0000 
     33 H33         1.4957   54.3155   30.2075 H         1 UNK         0.0000 
     34 H34         0.2488   53.0787   30.2753 H         1 UNK         0.0000 
     35 H35         1.5008   53.1174   31.5002 H         1 UNK         0.0000 
     36 H36         4.2403   51.7004   29.3035 H         1 UNK         0.0000 
     37 H37         3.9523   52.5037   30.8255 H         1 UNK         0.0000 
     38 H38         5.2733   53.9220   29.2817 H         1 UNK         0.0000 
     39 H39         3.8010   54.7094   29.7093 H         1 UNK         0.0000 
     40 H40         5.1582   55.0737   20.4039 H         1 UNK         0.0000 
     41 H41         4.0554   55.2358   21.7485 H         1 UNK         0.0000 
     42 H42         2.7223   53.5158   22.1383 H         1 UNK         0.0000 
     43 H43         1.3869   51.8937   23.1383 H         1 UNK         0.0000 
     44 H44         0.1131   49.8053   22.8615 H         1 UNK         0.0000 
     45 H45         0.4702   48.3806   20.9246 H         1 UNK         0.0000 
     46 H46         3.4312   51.1098   19.4287 H         1 UNK         0.0000 
     47 H47         2.9856   49.2956   18.2489 H         1 UNK         0.0000 
     48 H48         2.2353   47.9524   16.3871 H         1 UNK         0.0000 
     49 H49         1.7618   46.3059   16.8240 H         1 UNK         0.0000 
     50 H50         3.3821   46.8963   17.2192 H         1 UNK         0.0000 
     51 H51         0.7604   52.2455   27.9418 H         1 UNK         0.0000 
     52 H52         2.3051   51.5287   27.5814 H         1 UNK         0.0000 
@<TRIPOS>BOND
     1    1    2 1    
     2    1   33 1    
     3    1   34 1    
     4    1   35 1    
     5    2    3 1    
     6    2   32 1    
     7    2    4 1    
     8    4    5 1    
     9    4   36 1    
    10    4   37 1    
    11    5    6 1    
    12    5   38 1    
    13    5   39 1    
    14    6   30 1    
    15    6    7 2    
    16    7   12 1    
    17    7    8 1    
    18    8    9 2    
    19    8   29 1    
    20    9   10 1    
    21   10   11 2    BACKBONE|DICT|INTERRES
    22   10   14 1    
    23   11   12 am   BACKBONE|DICT|INTERRES
    24   12   13 2    
    25   14   15 1    
    26   15   16 1    
    27   15   40 1    
    28   15   41 1    
    29   16   17 2    
    30   16   18 am   BACKBONE|DICT|INTERRES
    31   18   19 1    
    32   18   42 1    
    33   19   24 ar   
    34   19   20 ar   
    35   20   21 ar   
    36   20   43 1    
    37   21   22 ar   
    38   21   44 1    
    39   22   23 ar   
    40   22   45 1    
    41   23   24 ar   
    42   23   25 1    
    43   24   46 1    
    44   25   26 am   BACKBONE|DICT|INTERRES
    45   25   47 1    
    46   26   27 2    
    47   26   28 1    
    48   28   48 1    
    49   28   49 1    
    50   28   50 1    
    51   29   30 1    
    52   30   31 1    
    53   30   32 1    
    54   32   51 1    
    55   32   52 1    
@<TRIPOS>SUBSTRUCTURE
     1 UNK         1 GROUP             0       ****    0 ROOT    
