@<TRIPOS>MOLECULE
ZINC21492520_77
62   66    1
SMALL
USER_CHARGES


@<TRIPOS>ATOM
      1 C1         -2.4102   50.8882   25.7652 C.3       1 UNK         0.0000 
      2 C2         -1.4172   50.1755   24.8215 C.3       1 UNK         0.0000 
      3 H3         -1.4666   50.7009   23.8655 H         1 UNK         0.0000 
      4 C4         -1.8032   48.7262   24.5205 C.2       1 UNK         0.0000 
      5 O5         -1.7570   48.3458   23.3452 O.2       1 UNK         0.0000 
      6 N6         -2.1355   47.9497   25.5813 N.am      1 UNK         0.0000 
      7 C7         -2.8012   46.7840   25.5158 C.2       1 UNK         0.0000 
      8 O8         -2.9316   46.0971   24.5018 O.2       1 UNK         0.0000 
      9 N9         -3.4299   46.5130   26.6708 N.am      1 UNK         0.0000 
     10 C10        -4.7715   45.9190   26.7961 C.3       1 UNK         0.0000 
     11 C11        -5.1935   45.9081   28.2978 C.3       1 UNK         0.0000 
     12 C12        -6.6097   45.2924   28.4848 C.3       1 UNK         0.0000 
     13 C13        -6.6173   43.8356   27.9493 C.3       1 UNK         0.0000 
     14 C14        -6.2484   43.8351   26.4501 C.3       1 UNK         0.0000 
     15 C15        -4.8327   44.4400   26.2859 C.3       1 UNK         0.0000 
     16 C16        -7.2733   44.6854   25.6582 C.3       1 UNK         0.0000 
     17 C17        -7.2722   46.1392   26.1965 C.3       1 UNK         0.0000 
     18 C18        -7.6435   46.1359   27.7000 C.3       1 UNK         0.0000 
     19 C19        -5.8547   46.7456   26.0214 C.3       1 UNK         0.0000 
     20 S20         0.3044   50.2068   25.3832 S.3       1 UNK         0.0000 
     21 C21         0.8459   51.7222   24.6520 C.ar      1 UNK         0.0000 
     22 N22         0.8527   51.9456   23.3551 N.2       1 UNK         0.0000 
     23 C23         1.3954   53.1407   23.2038 C.ar      1 UNK         0.0000 
     24 C24         1.7421   53.6953   24.4243 C.ar      1 UNK         0.0000 
     25 N25         1.3582   52.7837   25.3757 N.pl3     1 UNK         0.0000 
     26 C26         1.4744   52.8970   26.7749 C.ar      1 UNK         0.0000 
     27 C27         0.3536   52.6540   27.5712 C.ar      1 UNK         0.0000 
     28 C28         0.4651   52.6602   28.9524 C.ar      1 UNK         0.0000 
     29 C29         1.7049   52.9192   29.5521 C.ar      1 UNK         0.0000 
     30 C30         2.8163   53.1997   28.7526 C.ar      1 UNK         0.0000 
     31 C31         2.7067   53.1966   27.3635 C.ar      1 UNK         0.0000 
     32 O32         1.9050   52.8964   30.9138 O.3       1 UNK         0.0000 
     33 C33         0.7868   52.6759   31.7772 C.3       1 UNK         0.0000 
     34 H34        -3.4447   50.7389   25.4458 H         1 UNK         0.0000 
     35 H35        -2.3249   50.5302   26.7923 H         1 UNK         0.0000 
     36 H36        -2.2346   51.9617   25.7673 H         1 UNK         0.0000 
     37 H37        -2.0197   48.3449   26.5115 H         1 UNK         0.0000 
     38 H38        -3.0214   46.8764   27.5247 H         1 UNK         0.0000 
     39 H39        -4.4514   45.3592   28.8802 H         1 UNK         0.0000 
     40 H40        -5.1828   46.9256   28.6959 H         1 UNK         0.0000 
     41 H41        -6.8956   45.2984   29.5352 H         1 UNK         0.0000 
     42 H42        -5.9009   43.2126   28.4816 H         1 UNK         0.0000 
     43 H43        -7.5959   43.3743   28.1015 H         1 UNK         0.0000 
     44 H44        -6.2545   42.8100   26.0762 H         1 UNK         0.0000 
     45 H45        -4.5673   44.3837   25.2316 H         1 UNK         0.0000 
     46 H46        -4.1009   43.8306   26.8224 H         1 UNK         0.0000 
     47 H47        -7.0312   44.6768   24.5952 H         1 UNK         0.0000 
     48 H48        -8.2716   44.2526   25.7444 H         1 UNK         0.0000 
     49 H49        -7.9962   46.7366   25.6421 H         1 UNK         0.0000 
     50 H50        -8.6464   45.7323   27.8406 H         1 UNK         0.0000 
     51 H51        -7.6703   47.1553   28.0855 H         1 UNK         0.0000 
     52 H52        -5.8527   47.7818   26.3654 H         1 UNK         0.0000 
     53 H53        -5.6140   46.7884   24.9585 H         1 UNK         0.0000 
     54 H54         1.5395   53.5835   22.2270 H         1 UNK         0.0000 
     55 H55         2.2079   54.6308   24.6955 H         1 UNK         0.0000 
     56 H56        -0.6034   52.4306   27.1286 H         1 UNK         0.0000 
     57 H57        -0.4151   52.4373   29.5361 H         1 UNK         0.0000 
     58 H58         3.7742   53.4013   29.2143 H         1 UNK         0.0000 
     59 H59         3.5826   53.3811   26.7554 H         1 UNK         0.0000 
     60 H60         1.1040   52.7125   32.8170 H         1 UNK         0.0000 
     61 H61         0.3332   51.6972   31.6128 H         1 UNK         0.0000 
     62 H62         0.0202   53.4441   31.6484 H         1 UNK         0.0000 
@<TRIPOS>BOND
     1    1    2 1    
     2    1   34 1    
     3    1   35 1    
     4    1   36 1    
     5    2    3 1    
     6    2    4 1    
     7    2   20 1    
     8    4    5 2    
     9    4    6 am   BACKBONE|DICT|INTERRES
    10    6    7 am   BACKBONE|DICT|INTERRES
    11    6   37 1    
    12    7    8 2    
    13    7    9 am   BACKBONE|DICT|INTERRES
    14    9   10 1    
    15    9   38 1    
    16   10   15 1    
    17   10   19 1    
    18   10   11 1    
    19   11   12 1    
    20   11   39 1    
    21   11   40 1    
    22   12   18 1    
    23   12   13 1    
    24   12   41 1    
    25   13   14 1    
    26   13   42 1    
    27   13   43 1    
    28   14   15 1    
    29   14   16 1    
    30   14   44 1    
    31   15   45 1    
    32   15   46 1    
    33   16   17 1    
    34   16   47 1    
    35   16   48 1    
    36   17   18 1    
    37   17   19 1    
    38   17   49 1    
    39   18   50 1    
    40   18   51 1    
    41   19   52 1    
    42   19   53 1    
    43   20   21 1    
    44   21   25 ar   
    45   21   22 ar   
    46   22   23 ar   
    47   23   24 ar   
    48   23   54 1    
    49   24   25 ar   
    50   24   55 1    
    51   25   26 1    
    52   26   31 ar   
    53   26   27 ar   
    54   27   28 ar   
    55   27   56 1    
    56   28   29 ar   
    57   28   57 1    
    58   29   30 ar   
    59   29   32 1    
    60   30   31 ar   
    61   30   58 1    
    62   31   59 1    
    63   32   33 1    
    64   33   60 1    
    65   33   61 1    
    66   33   62 1    
@<TRIPOS>SUBSTRUCTURE
     1 UNK         1 GROUP             0       ****    0 ROOT    
