ZINC39684733_1326
                    3D
 Schrodinger Suite 2024-2.
 65 67  0  0  1  0            999 V2000
   -0.3081   51.8096   29.6840 C   0  0  0  0  0  0
   -0.0802   53.1161   28.8872 C   0  0  1  0  0  0
   -0.8955   53.7866   29.1450 H   0  0  0  0  0  0
    1.2181   53.9115   29.2846 C   0  0  0  0  0  0
    1.5528   55.0261   28.2565 C   0  0  0  0  0  0
    2.4510   52.9768   29.3716 C   0  0  0  0  0  0
    1.0015   54.6085   30.6498 C   0  0  0  0  0  0
   -0.2013   52.8960   27.4422 N   0  0  0  0  0  0
   -1.2636   52.4192   26.7508 C   0  0  0  0  0  0
   -2.3215   52.0967   27.2817 O   0  0  0  0  0  0
   -1.1628   52.2234   25.2140 C   0  0  1  0  0  0
   -2.0780   52.6266   24.7773 H   0  0  0  0  0  0
   -0.0137   53.0393   24.6069 C   0  0  0  0  0  0
    0.4440   52.2717   23.4557 N   0  0  0  0  0  0
   -0.2523   50.9793   23.3745 C   0  0  0  0  0  0
   -0.8701   50.7666   24.7805 C   0  0  0  0  0  0
   -2.1708   49.9188   24.8157 C   0  0  0  0  0  0
   -1.9492   48.4751   24.3446 C   0  0  0  0  0  0
   -0.8962   47.8555   25.2817 N   0  3  0  0  0  0
    0.4473   48.6107   25.2487 C   0  0  0  0  0  0
    0.1624   50.0443   25.7104 C   0  0  0  0  0  0
    1.6578   52.5017   22.8854 C   0  0  0  0  0  0
    2.2615   51.6011   22.2980 O   0  0  0  0  0  0
    2.2209   53.9642   22.8536 C   0  0  0  0  0  0
    2.6997   54.5079   24.2213 C   0  0  0  0  0  0
    4.0456   53.9486   24.7001 C   0  0  0  0  0  0
    5.0499   54.1321   23.7001 O   0  0  0  0  0  0
    4.7602   53.5752   22.4164 C   0  0  0  0  0  0
    3.4182   54.1115   21.8790 C   0  0  0  0  0  0
   -0.0913   51.9386   30.7445 H   0  0  0  0  0  0
   -1.3469   51.4824   29.6362 H   0  0  0  0  0  0
    0.3221   51.0018   29.3091 H   0  0  0  0  0  0
    0.7044   55.6881   28.0830 H   0  0  0  0  0  0
    2.3808   55.6530   28.5882 H   0  0  0  0  0  0
    1.8481   54.6130   27.2949 H   0  0  0  0  0  0
    2.3535   52.2450   30.1752 H   0  0  0  0  0  0
    2.6001   52.4217   28.4434 H   0  0  0  0  0  0
    3.3686   53.5341   29.5660 H   0  0  0  0  0  0
    0.9148   53.8919   31.4673 H   0  0  0  0  0  0
    1.8187   55.2903   30.8814 H   0  0  0  0  0  0
    0.0936   55.2101   30.6568 H   0  0  0  0  0  0
    0.6259   53.1309   26.9201 H   0  0  0  0  0  0
   -0.2460   54.0874   24.3963 H   0  0  0  0  0  0
    0.8222   52.9405   25.2933 H   0  0  0  0  0  0
    0.3144   50.1292   22.9962 H   0  0  0  0  0  0
   -1.1173   51.1372   22.7275 H   0  0  0  0  0  0
   -2.9279   50.3787   24.1781 H   0  0  0  0  0  0
   -2.6060   49.9194   25.8182 H   0  0  0  0  0  0
   -1.5661   48.4034   23.3253 H   0  0  0  0  0  0
   -2.8482   47.8655   24.4427 H   0  0  0  0  0  0
   -0.7393   46.8832   25.0714 H   0  0  0  0  0  0
    0.8499   48.5252   24.2409 H   0  0  0  0  0  0
    1.1246   48.0993   25.9303 H   0  0  0  0  0  0
   -0.1780   50.0066   26.7479 H   0  0  0  0  0  0
    1.1025   50.5988   25.7378 H   0  0  0  0  0  0
    1.3723   54.5372   22.4821 H   0  0  0  0  0  0
    2.7460   55.5860   24.1094 H   0  0  0  0  0  0
    1.9566   54.4967   25.0014 H   0  0  0  0  0  0
    4.3641   54.4461   25.6168 H   0  0  0  0  0  0
    3.9079   52.8968   24.9356 H   0  0  0  0  0  0
    5.5688   53.8286   21.7308 H   0  0  0  0  0  0
    4.7277   52.4916   22.4814 H   0  0  0  0  0  0
    3.1679   53.7394   20.8843 H   0  0  0  0  0  0
    3.5205   55.1754   21.6812 H   0  0  0  0  0  0
   -1.2325   47.8815   26.2426 H   0  0  0  0  0  0
  1  2  1  0  0  0
  1 30  1  0  0  0
  1 31  1  0  0  0
  1 32  1  0  0  0
  2  3  1  0  0  0
  2  4  1  0  0  0
  2  8  1  0  0  0
  4  5  1  0  0  0
  4  6  1  0  0  0
  4  7  1  0  0  0
  5 33  1  0  0  0
  5 34  1  0  0  0
  5 35  1  0  0  0
  6 36  1  0  0  0
  6 37  1  0  0  0
  6 38  1  0  0  0
  7 39  1  0  0  0
  7 40  1  0  0  0
  7 41  1  0  0  0
  8  9  1  0  0  0
  8 42  1  0  0  0
  9 10  2  0  0  0
  9 11  1  0  0  0
 11 12  1  0  0  0
 11 16  1  0  0  0
 11 13  1  0  0  0
 13 14  1  0  0  0
 13 43  1  0  0  0
 13 44  1  0  0  0
 14 15  1  0  0  0
 14 22  1  0  0  0
 15 16  1  0  0  0
 15 45  1  0  0  0
 15 46  1  0  0  0
 16 21  1  0  0  0
 16 17  1  0  0  0
 17 18  1  0  0  0
 17 47  1  0  0  0
 17 48  1  0  0  0
 18 19  1  0  0  0
 18 49  1  0  0  0
 18 50  1  0  0  0
 19 20  1  0  0  0
 19 51  1  0  0  0
 19 65  1  0  0  0
 20 21  1  0  0  0
 20 52  1  0  0  0
 20 53  1  0  0  0
 21 54  1  0  0  0
 21 55  1  0  0  0
 22 23  2  0  0  0
 22 24  1  0  0  0
 24 29  1  0  0  0
 24 25  1  0  0  0
 24 56  1  0  0  0
 25 26  1  0  0  0
 25 57  1  0  0  0
 25 58  1  0  0  0
 26 27  1  0  0  0
 26 59  1  0  0  0
 26 60  1  0  0  0
 27 28  1  0  0  0
 28 29  1  0  0  0
 28 61  1  0  0  0
 28 62  1  0  0  0
 29 63  1  0  0  0
 29 64  1  0  0  0
M  CHG  1  19   1
M  END
> <i_i_glide_confnum>
187

> <i_i_glide_lignum>
1327

> <i_i_glide_posenum>
315

> <i_i_glide_rotatable_bonds>
6

> <i_m_Source_File_Index>
4590

> <b_m_subgroup_collapsed>
0

> <r_i_docking_score>
-3.98402

> <r_i_glide_ecoul>
-2.20825

> <r_i_glide_eff_state_penalty>
0

> <r_i_glide_einternal>
8.48

> <r_i_glide_emodel>
-29.3459

> <r_i_glide_energy>
-26.1945

> <r_i_glide_erotb>
0.669879

> <r_i_glide_esite>
-0.113316

> <r_i_glide_evdw>
-23.9862

> <r_i_glide_gscore>
-3.98402

> <r_i_glide_hbond>
-0.124682

> <r_i_glide_ligand_efficiency>
-0.147556

> <r_i_glide_ligand_efficiency_ln>
-0.927414

> <r_i_glide_ligand_efficiency_sa>
-0.442669

> <r_i_glide_lipo>
-1.92399

> <r_i_glide_metal>
0

> <r_i_glide_rewards>
-0.96136

> <s_i_glide_gridfile>
wee1_glide-grid

> <s_m_Source_File>
wee1_decoys_glide_SP.sdf

> <s_m_Source_Path>
/Users/zhangxujun/Desktop

> <s_m_entry_id>
4865

> <s_m_entry_name>
wee1_decoys_glide_SP.4590

> <s_m_subgroup_title>
wee1_decoys_glide_SP

> <s_m_subgroupid>
wee1_decoys_glide_SP


$$$$
