@<TRIPOS>MOLECULE
ZINC39666270_5547
75   79    1
SMALL
USER_CHARGES


@<TRIPOS>ATOM
      1 C1         -5.7788   54.2010   15.1707 C.3       1 UNK         0.0000 
      2 C2         -4.5608   53.6570   15.8972 C.ar      1 UNK         0.0000 
      3 C3         -3.5671   54.5304   16.3355 C.ar      1 UNK         0.0000 
      4 C4         -2.4551   54.0369   17.0104 C.ar      1 UNK         0.0000 
      5 C5         -2.3048   52.6679   17.2283 C.ar      1 UNK         0.0000 
      6 C6         -3.3013   51.7919   16.7712 C.ar      1 UNK         0.0000 
      7 C7         -4.4249   52.2865   16.1128 C.ar      1 UNK         0.0000 
      8 O8         -1.1478   52.3034   17.8910 O.3       1 UNK         0.0000 
      9 C9         -0.7084   50.9479   18.0483 C.3       1 UNK         0.0000 
     10 H10         0.2761   51.0731   18.5004 H         1 UNK         0.0000 
     11 C11        -0.4408   50.2281   16.7102 C.3       1 UNK         0.0000 
     12 C12        -1.5445   50.1300   19.0699 C.3       1 UNK         0.0000 
     13 N13        -1.5844   50.7170   20.4130 N.am      1 UNK         0.0000 
     14 C14        -0.5602   50.6809   21.2819 C.2       1 UNK         0.0000 
     15 O15         0.5188   50.1551   21.0022 O.2       1 UNK         0.0000 
     16 C16        -0.7640   51.4163   22.6290 C.3       1 UNK         0.0000 
     17 H17        -1.6589   52.0385   22.5707 H         1 UNK         0.0000 
     18 C18         0.4416   52.3525   22.8245 C.3       1 UNK         0.0000 
     19 N19         0.5504   52.4950   24.2777 N.am      1 UNK         0.0000 
     20 C20        -0.2765   51.5145   24.9741 C.3       1 UNK         0.0000 
     21 C21        -0.7947   50.5246   23.9044 C.3       1 UNK         0.0000 
     22 C22        -2.2059   49.9627   24.1970 C.3       1 UNK         0.0000 
     23 C23        -2.2712   49.3325   25.6028 C.3       1 UNK         0.0000 
     24 N24        -1.2429   48.1834   25.6817 N.4       1 UNK         0.0000 
     25 C25         0.1874   48.5186   25.1911 C.3       1 UNK         0.0000 
     26 C26         0.1188   49.2637   23.8419 C.3       1 UNK         0.0000 
     27 C27         1.3740   53.4294   24.8200 C.2       1 UNK         0.0000 
     28 O28         1.8132   54.3551   24.1352 O.2       1 UNK         0.0000 
     29 C29         1.8276   53.2756   26.1995 C.2       1 UNK         0.0000 
     30 C30         1.0859   53.0139   27.3602 C.2       1 UNK         0.0000 
     31 O31         1.9174   52.9481   28.4208 O.3       1 UNK         0.0000 
     32 N32         3.1888   53.2964   28.0042 N.2       1 UNK         0.0000 
     33 C33         3.1221   53.5718   26.7157 C.2       1 UNK         0.0000 
     34 C34         4.3777   54.0957   26.0544 C.ar      1 UNK         0.0000 
     35 C35         5.3450   54.7214   26.8530 C.ar      1 UNK         0.0000 
     36 C36         6.5036   55.2361   26.2958 C.ar      1 UNK         0.0000 
     37 C37         6.7042   55.1553   24.9231 C.ar      1 UNK         0.0000 
     38 C38         5.7875   54.4994   24.1138 C.ar      1 UNK         0.0000 
     39 C39         4.6375   53.9660   24.6824 C.ar      1 UNK         0.0000 
     40 C40        -0.3669   52.8367   27.7425 C.3       1 UNK         0.0000 
     41 H41        -6.2649   53.4308   14.5712 H         1 UNK         0.0000 
     42 H42        -5.4898   55.0049   14.4908 H         1 UNK         0.0000 
     43 H43        -6.4998   54.6050   15.8827 H         1 UNK         0.0000 
     44 H44        -3.6588   55.5933   16.1608 H         1 UNK         0.0000 
     45 H45        -1.6888   54.7186   17.3508 H         1 UNK         0.0000 
     46 H46        -3.2313   50.7264   16.8968 H         1 UNK         0.0000 
     47 H47        -5.1852   51.6019   15.7671 H         1 UNK         0.0000 
     48 H48         0.0007   49.2466   16.8804 H         1 UNK         0.0000 
     49 H49        -1.3298   50.0802   16.1017 H         1 UNK         0.0000 
     50 H50         0.2696   50.7958   16.1094 H         1 UNK         0.0000 
     51 H51        -2.5753   50.0156   18.7465 H         1 UNK         0.0000 
     52 H52        -1.1534   49.1112   19.1281 H         1 UNK         0.0000 
     53 H53        -2.4390   51.1763   20.6834 H         1 UNK         0.0000 
     54 H54         1.3736   51.8679   22.5227 H         1 UNK         0.0000 
     55 H55         0.3187   53.2950   22.2950 H         1 UNK         0.0000 
     56 H56        -1.1540   52.0631   25.3129 H         1 UNK         0.0000 
     57 H57         0.1726   51.0359   25.8403 H         1 UNK         0.0000 
     58 H58        -2.9252   50.7832   24.1962 H         1 UNK         0.0000 
     59 H59        -2.5437   49.2798   23.4156 H         1 UNK         0.0000 
     60 H60        -2.0179   50.0188   26.4133 H         1 UNK         0.0000 
     61 H61        -3.2414   48.8871   25.8252 H         1 UNK         0.0000 
     62 H62        -1.1979   47.9079   26.6674 H         1 UNK         0.0000 
     63 H63         0.6779   49.0638   25.9958 H         1 UNK         0.0000 
     64 H64         0.7043   47.5720   25.0717 H         1 UNK         0.0000 
     65 H65        -0.1858   48.5794   23.0488 H         1 UNK         0.0000 
     66 H66         1.1388   49.5634   23.5895 H         1 UNK         0.0000 
     67 H67         5.2110   54.8295   27.9191 H         1 UNK         0.0000 
     68 H68         7.2217   55.6967   26.9511 H         1 UNK         0.0000 
     69 H69         7.5865   55.5849   24.4798 H         1 UNK         0.0000 
     70 H70         5.9645   54.4023   23.0519 H         1 UNK         0.0000 
     71 H71         3.9747   53.4196   24.0340 H         1 UNK         0.0000 
     72 H72        -1.0622   53.2964   27.0431 H         1 UNK         0.0000 
     73 H73        -0.6360   51.7879   27.8699 H         1 UNK         0.0000 
     74 H74        -0.5530   53.3154   28.7028 H         1 UNK         0.0000 
     75 H75        -1.5893   47.3846   25.1718 H         1 UNK         0.0000 
@<TRIPOS>BOND
     1    1    2 1    
     2    1   41 1    
     3    1   42 1    
     4    1   43 1    
     5    2    7 ar   
     6    2    3 ar   
     7    3    4 ar   
     8    3   44 1    
     9    4    5 ar   
    10    4   45 1    
    11    5    6 ar   
    12    5    8 1    
    13    6    7 ar   
    14    6   46 1    
    15    7   47 1    
    16    8    9 1    
    17    9   10 1    
    18    9   11 1    
    19    9   12 1    
    20   11   48 1    
    21   11   49 1    
    22   11   50 1    
    23   12   13 1    
    24   12   51 1    
    25   12   52 1    
    26   13   14 am   BACKBONE|DICT|INTERRES
    27   13   53 1    
    28   14   15 2    
    29   14   16 1    
    30   16   17 1    
    31   16   21 1    
    32   16   18 1    
    33   18   19 1    
    34   18   54 1    
    35   18   55 1    
    36   19   20 1    
    37   19   27 am   BACKBONE|DICT|INTERRES
    38   20   21 1    
    39   20   56 1    
    40   20   57 1    
    41   21   26 1    
    42   21   22 1    
    43   22   23 1    
    44   22   58 1    
    45   22   59 1    
    46   23   24 1    
    47   23   60 1    
    48   23   61 1    
    49   24   25 1    
    50   24   62 1    
    51   24   75 1    
    52   25   26 1    
    53   25   63 1    
    54   25   64 1    
    55   26   65 1    
    56   26   66 1    
    57   27   28 2    
    58   27   29 1    
    59   29   33 1    
    60   29   30 2    
    61   30   31 1    
    62   30   40 1    
    63   31   32 1    
    64   32   33 2    
    65   33   34 1    
    66   34   39 ar   
    67   34   35 ar   
    68   35   36 ar   
    69   35   67 1    
    70   36   37 ar   
    71   36   68 1    
    72   37   38 ar   
    73   37   69 1    
    74   38   39 ar   
    75   38   70 1    
    76   39   71 1    
    77   40   72 1    
    78   40   73 1    
    79   40   74 1    
@<TRIPOS>SUBSTRUCTURE
     1 UNK         1 GROUP             0       ****    0 ROOT    
