@<TRIPOS>MOLECULE
ZINC38740694_543
50   53    1
SMALL
USER_CHARGES


@<TRIPOS>ATOM
      1 C1          7.3933   55.3410   22.3358 C.3       1 UNK         0.0000 
      2 C2          6.1742   54.7790   23.0599 C.ar      1 UNK         0.0000 
      3 C3          5.1251   54.1724   22.3495 C.ar      1 UNK         0.0000 
      4 N4          3.9886   53.7601   22.9579 N.ar      1 UNK         0.0000 
      5 C5          3.8835   53.9350   24.3038 C.ar      1 UNK         0.0000 
      6 N6          4.8554   54.4915   25.0800 N.ar      1 UNK         0.0000 
      7 C7          5.9865   54.8997   24.4527 C.ar      1 UNK         0.0000 
      8 O8          6.8424   55.4299   25.2301 O.co2     1 UNK         0.0000 
      9 N9          2.7046   53.4261   24.9424 N.pl3     1 UNK         0.0000 
     10 C10         1.6787   52.6518   24.4136 C.ar      1 UNK         0.0000 
     11 C11         0.8116   52.4074   25.4659 C.ar      1 UNK         0.0000 
     12 C12         1.3889   53.0182   26.5846 C.ar      1 UNK         0.0000 
     13 N13         2.4903   53.6568   26.2561 N.2       1 UNK         0.0000 
     14 C14         0.8939   53.0106   27.9520 C.2       1 UNK         0.0000 
     15 C15         1.1178   53.9464   28.9627 C.2       1 UNK         0.0000 
     16 C16         0.4979   53.6192   30.1732 C.2       1 UNK         0.0000 
     17 C17        -0.1985   52.4233   30.1025 C.2       1 UNK         0.0000 
     18 S18        -0.0960   51.7005   28.5321 S.3       1 UNK         0.0000 
     19 N19         1.6812   52.2114   23.1026 N.am      1 UNK         0.0000 
     20 C20         0.6333   51.7709   22.3816 C.2       1 UNK         0.0000 
     21 O21        -0.5359   51.7713   22.7693 O.2       1 UNK         0.0000 
     22 C22         1.0063   51.3026   20.9909 C.ar      1 UNK         0.0000 
     23 C23         1.8909   52.0964   20.2367 C.ar      1 UNK         0.0000 
     24 C24         2.3040   51.7161   18.9642 C.ar      1 UNK         0.0000 
     25 C25         1.8278   50.5375   18.4078 C.ar      1 UNK         0.0000 
     26 C26         0.9367   49.7441   19.1220 C.ar      1 UNK         0.0000 
     27 C27         0.5187   50.1004   20.4131 C.ar      1 UNK         0.0000 
     28 S28        -0.5575   48.9080   21.2578 S.o2      1 UNK         0.0000 
     29 O29        -0.5088   47.6537   20.4943 O.2       1 UNK         0.0000 
     30 O30        -0.2055   48.8967   22.6820 O.2       1 UNK         0.0000 
     31 C31        -2.2951   49.6388   21.0569 C.3       1 UNK         0.0000 
     32 F32        -2.5196   49.8386   19.7580 F         1 UNK         0.0000 
     33 F33        -3.1727   48.7666   21.5533 F         1 UNK         0.0000 
     34 C34         5.1355   53.9394   20.8454 C.3       1 UNK         0.0000 
     35 H35         7.0996   55.8467   21.4163 H         1 UNK         0.0000 
     36 H36         7.9037   56.0967   22.9277 H         1 UNK         0.0000 
     37 H37         8.0910   54.5441   22.0816 H         1 UNK         0.0000 
     38 H38        -0.0951   51.8193   25.4384 H         1 UNK         0.0000 
     39 H39         1.7102   54.8380   28.8198 H         1 UNK         0.0000 
     40 H40         0.5554   54.2268   31.0647 H         1 UNK         0.0000 
     41 H41        -0.7651   51.9353   30.8853 H         1 UNK         0.0000 
     42 H42         2.5504   52.3687   22.6099 H         1 UNK         0.0000 
     43 H43         2.2741   53.0298   20.6272 H         1 UNK         0.0000 
     44 H44         3.0024   52.3281   18.4117 H         1 UNK         0.0000 
     45 H45         2.1662   50.2303   17.4276 H         1 UNK         0.0000 
     46 H46         0.5957   48.8282   18.6619 H         1 UNK         0.0000 
     47 H47        -2.3743   50.5808   21.5936 H         1 UNK         0.0000 
     48 H48         6.1088   54.1063   20.3883 H         1 UNK         0.0000 
     49 H49         4.8536   52.9106   20.6198 H         1 UNK         0.0000 
     50 H50         4.4180   54.6004   20.3594 H         1 UNK         0.0000 
@<TRIPOS>BOND
     1    1    2 1    
     2    1   35 1    
     3    1   36 1    
     4    1   37 1    
     5    2    7 ar   
     6    2    3 ar   
     7    3    4 ar   
     8    3   34 1    
     9    4    5 ar   
    10    5    6 ar   
    11    5    9 1    
    12    6    7 ar   
    13    7    8 1    
    14    9   13 ar   
    15    9   10 ar   
    16   10   11 ar   
    17   10   19 1    
    18   11   12 ar   
    19   11   38 1    
    20   12   13 ar   
    21   12   14 1    
    22   14   18 1    
    23   14   15 2    
    24   15   16 1    
    25   15   39 1    
    26   16   17 2    
    27   16   40 1    
    28   17   18 1    
    29   17   41 1    
    30   19   20 am   BACKBONE|DICT|INTERRES
    31   19   42 1    
    32   20   21 2    
    33   20   22 1    
    34   22   27 ar   
    35   22   23 ar   
    36   23   24 ar   
    37   23   43 1    
    38   24   25 ar   
    39   24   44 1    
    40   25   26 ar   
    41   25   45 1    
    42   26   27 ar   
    43   26   46 1    
    44   27   28 1    
    45   28   29 2    
    46   28   30 2    
    47   28   31 1    
    48   31   32 1    
    49   31   33 1    
    50   31   47 1    
    51   34   48 1    
    52   34   49 1    
    53   34   50 1    
@<TRIPOS>SUBSTRUCTURE
     1 UNK         1 GROUP             0       ****    0 ROOT    
