@<TRIPOS>MOLECULE
ZINC27271289_25
51   53    1
SMALL
USER_CHARGES


@<TRIPOS>ATOM
      1 C1          2.1769   51.7886   19.6586 C.3       1 UNK         0.0000 
      2 C2          0.6606   52.0081   19.6573 C.3       1 UNK         0.0000 
      3 O3          0.1277   51.5113   20.8759 O.3       1 UNK         0.0000 
      4 C4         -1.1920   51.6052   21.1538 C.2       1 UNK         0.0000 
      5 O5         -2.0406   52.0974   20.4064 O.2       1 UNK         0.0000 
      6 C6         -1.6074   50.9341   22.4967 C.3       1 UNK         0.0000 
      7 C7         -2.3464   49.5748   22.1671 C.3       1 UNK         0.0000 
      8 H8         -3.3633   49.8679   21.8904 H         1 UNK         0.0000 
      9 C9         -2.5578   48.7065   23.4010 C.2       1 UNK         0.0000 
     10 C10        -1.9525   48.9303   24.5896 C.2       1 UNK         0.0000 
     11 C11        -0.9094   50.0388   24.8513 C.3       1 UNK         0.0000 
     12 C12        -0.4185   50.7368   23.5275 C.3       1 UNK         0.0000 
     13 H13         0.2600   50.0171   23.0665 H         1 UNK         0.0000 
     14 C14         0.5132   51.9613   23.8018 C.ar      1 UNK         0.0000 
     15 C15         0.0646   53.2744   23.6480 C.ar      1 UNK         0.0000 
     16 C16         0.9646   54.3358   23.6796 C.ar      1 UNK         0.0000 
     17 C17         2.2603   54.1693   24.0798 C.ar      1 UNK         0.0000 
     18 C18         2.7056   52.8979   24.3096 C.ar      1 UNK         0.0000 
     19 C19         1.8753   51.7862   24.0803 C.ar      1 UNK         0.0000 
     20 C20        -1.4680   51.0190   25.8051 C.1       1 UNK         0.0000 
     21 N21        -1.9019   51.7890   26.5535 N.1       1 UNK         0.0000 
     22 C22         0.2253   49.4050   25.5384 C.1       1 UNK         0.0000 
     23 N23         1.1039   48.8969   26.0822 N.1       1 UNK         0.0000 
     24 N24        -2.2397   48.1418   25.6819 N.pl3     1 UNK         0.0000 
     25 C25        -3.4508   47.5946   23.2561 C.1       1 UNK         0.0000 
     26 N26        -4.1381   46.6673   23.1566 N.1       1 UNK         0.0000 
     27 C27        -1.8795   48.7780   20.9312 C.ar      1 UNK         0.0000 
     28 C28        -0.6336   48.1494   20.9316 C.ar      1 UNK         0.0000 
     29 C29        -0.1814   47.4792   19.7982 C.ar      1 UNK         0.0000 
     30 C30        -0.9869   47.4241   18.6633 C.ar      1 UNK         0.0000 
     31 C31        -2.2386   48.0343   18.6531 C.ar      1 UNK         0.0000 
     32 C32        -2.6841   48.7127   19.7850 C.ar      1 UNK         0.0000 
     33 C33        -2.6177   51.7905   23.1584 C.1       1 UNK         0.0000 
     34 N34        -3.4035   52.4598   23.6829 N.1       1 UNK         0.0000 
     35 H35         2.6272   52.1652   18.7385 H         1 UNK         0.0000 
     36 H36         2.6473   52.3100   20.4940 H         1 UNK         0.0000 
     37 H37         2.4254   50.7285   19.7389 H         1 UNK         0.0000 
     38 H38         0.2078   51.4874   18.8113 H         1 UNK         0.0000 
     39 H39         0.4360   53.0711   19.5517 H         1 UNK         0.0000 
     40 H40        -0.9436   53.4886   23.3441 H         1 UNK         0.0000 
     41 H41         0.7048   55.2967   23.2830 H         1 UNK         0.0000 
     42 H42         2.9394   55.0078   24.1347 H         1 UNK         0.0000 
     43 H43         3.7477   52.8770   24.5794 H         1 UNK         0.0000 
     44 H44         2.2861   50.7870   24.0850 H         1 UNK         0.0000 
     45 H45        -1.8260   48.2993   26.6047 H         1 UNK         0.0000 
     46 H46        -2.9330   47.4102   25.6291 H         1 UNK         0.0000 
     47 H47        -0.0163   48.1888   21.8130 H         1 UNK         0.0000 
     48 H48         0.7903   47.0061   19.7966 H         1 UNK         0.0000 
     49 H49        -0.6358   46.9056   17.7829 H         1 UNK         0.0000 
     50 H50        -2.8574   47.9891   17.7683 H         1 UNK         0.0000 
     51 H51        -3.6498   49.1973   19.7590 H         1 UNK         0.0000 
@<TRIPOS>BOND
     1    1    2 1    
     2    1   35 1    
     3    1   36 1    
     4    1   37 1    
     5    2    3 1    
     6    2   38 1    
     7    2   39 1    
     8    3    4 1    
     9    4    5 2    
    10    4    6 1    
    11    6   12 1    
    12    6    7 1    
    13    6   33 1    
    14    7    8 1    
    15    7    9 1    
    16    7   27 1    
    17    9   10 2    
    18    9   25 1    
    19   10   11 1    
    20   10   24 1    
    21   11   12 1    
    22   11   20 1    
    23   11   22 1    
    24   12   13 1    
    25   12   14 1    
    26   14   19 ar   
    27   14   15 ar   
    28   15   16 ar   
    29   15   40 1    
    30   16   17 ar   
    31   16   41 1    
    32   17   18 ar   
    33   17   42 1    
    34   18   19 ar   
    35   18   43 1    
    36   19   44 1    
    37   20   21 3    
    38   22   23 3    
    39   24   45 1    
    40   24   46 1    
    41   25   26 3    
    42   27   32 ar   
    43   27   28 ar   
    44   28   29 ar   
    45   28   47 1    
    46   29   30 ar   
    47   29   48 1    
    48   30   31 ar   
    49   30   49 1    
    50   31   32 ar   
    51   31   50 1    
    52   32   51 1    
    53   33   34 3    
@<TRIPOS>SUBSTRUCTURE
     1 UNK         1 GROUP             0       ****    0 ROOT    
