@<TRIPOS>MOLECULE
ZINC22487203_2759
53   56    1
SMALL
USER_CHARGES


@<TRIPOS>ATOM
      1 C1          2.5744   52.0964   17.8604 C.3       1 UNK         0.0000 
      2 C2          3.2451   52.5788   19.1408 C.2       1 UNK         0.0000 
      3 O3          2.8035   52.1899   20.2215 O.2       1 UNK         0.0000 
      4 N4          4.2891   53.4178   18.9666 N.am      1 UNK         0.0000 
      5 C5          5.1140   54.0447   19.9201 C.ar      1 UNK         0.0000 
      6 C6          6.1109   54.8937   19.4286 C.ar      1 UNK         0.0000 
      7 C7          6.9932   55.5339   20.3003 C.ar      1 UNK         0.0000 
      8 C8          6.8888   55.3342   21.6769 C.ar      1 UNK         0.0000 
      9 C9          5.8867   54.4948   22.1852 C.ar      1 UNK         0.0000 
     10 C10         5.0099   53.8571   21.3061 C.ar      1 UNK         0.0000 
     11 N11         5.6854   54.2023   23.5395 N.am      1 UNK         0.0000 
     12 C12         6.2014   54.7802   24.6406 C.2       1 UNK         0.0000 
     13 O13         7.0202   55.6967   24.6476 O.2       1 UNK         0.0000 
     14 C14         5.6631   54.2320   25.9687 C.3       1 UNK         0.0000 
     15 H15         5.7723   53.1577   25.8265 H         1 UNK         0.0000 
     16 C16         6.4642   54.6314   27.2074 C.3       1 UNK         0.0000 
     17 C17         5.8275   53.8904   28.3865 C.3       1 UNK         0.0000 
     18 C18         4.2821   54.0173   28.4692 C.3       1 UNK         0.0000 
     19 N19         3.5964   53.6945   27.1956 N.pl3     1 UNK         0.0000 
     20 C20         4.1630   54.5584   26.1458 C.3       1 UNK         0.0000 
     21 C21         2.2737   53.2511   27.1322 C.ar      1 UNK         0.0000 
     22 C22         1.6775   52.8968   25.9137 C.ar      1 UNK         0.0000 
     23 C23         0.3858   52.3777   25.9202 C.ar      1 UNK         0.0000 
     24 C24        -0.2652   52.2348   27.1481 C.ar      1 UNK         0.0000 
     25 N25         0.3536   52.5629   28.3153 N.ar      1 UNK         0.0000 
     26 N26         1.6055   53.0510   28.3060 N.ar      1 UNK         0.0000 
     27 C27        -1.6663   51.7286   27.2804 C.2       1 UNK         0.0000 
     28 C28        -2.3418   51.2966   28.4220 C.2       1 UNK         0.0000 
     29 C29        -3.6611   50.8998   28.1823 C.2       1 UNK         0.0000 
     30 C30        -4.0284   51.0551   26.8560 C.2       1 UNK         0.0000 
     31 S31        -2.7261   51.6706   25.8939 S.3       1 UNK         0.0000 
     32 H32         2.8966   52.6688   16.9904 H         1 UNK         0.0000 
     33 H33         1.4914   52.1869   17.9471 H         1 UNK         0.0000 
     34 H34         2.8202   51.0475   17.6882 H         1 UNK         0.0000 
     35 H35         4.5383   53.6019   18.0081 H         1 UNK         0.0000 
     36 H36         6.2183   55.0543   18.3652 H         1 UNK         0.0000 
     37 H37         7.7710   56.1704   19.9050 H         1 UNK         0.0000 
     38 H38         7.6027   55.8212   22.3236 H         1 UNK         0.0000 
     39 H39         4.2550   53.2096   21.7208 H         1 UNK         0.0000 
     40 H40         5.0002   53.4826   23.7080 H         1 UNK         0.0000 
     41 H41         7.5049   54.3100   27.1515 H         1 UNK         0.0000 
     42 H42         6.3824   55.6970   27.4169 H         1 UNK         0.0000 
     43 H43         6.1076   52.8364   28.3915 H         1 UNK         0.0000 
     44 H44         6.2710   54.3086   29.2818 H         1 UNK         0.0000 
     45 H45         3.9548   53.3077   29.2301 H         1 UNK         0.0000 
     46 H46         3.9814   55.0083   28.8137 H         1 UNK         0.0000 
     47 H47         4.0358   55.5946   26.4593 H         1 UNK         0.0000 
     48 H48         3.6333   54.4841   25.1971 H         1 UNK         0.0000 
     49 H49         2.2011   52.9832   24.9748 H         1 UNK         0.0000 
     50 H50        -0.0881   52.0945   24.9924 H         1 UNK         0.0000 
     51 H51        -1.8816   51.2335   29.3982 H         1 UNK         0.0000 
     52 H52        -4.3128   50.5081   28.9496 H         1 UNK         0.0000 
     53 H53        -4.9807   50.8242   26.4023 H         1 UNK         0.0000 
@<TRIPOS>BOND
     1    1    2 1    
     2    1   32 1    
     3    1   33 1    
     4    1   34 1    
     5    2    3 2    
     6    2    4 am   BACKBONE|DICT|INTERRES
     7    4    5 1    
     8    4   35 1    
     9    5   10 ar   
    10    5    6 ar   
    11    6    7 ar   
    12    6   36 1    
    13    7    8 ar   
    14    7   37 1    
    15    8    9 ar   
    16    8   38 1    
    17    9   10 ar   
    18    9   11 1    
    19   10   39 1    
    20   11   12 am   BACKBONE|DICT|INTERRES
    21   11   40 1    
    22   12   13 2    
    23   12   14 1    
    24   14   15 1    
    25   14   20 1    
    26   14   16 1    
    27   16   17 1    
    28   16   41 1    
    29   16   42 1    
    30   17   18 1    
    31   17   43 1    
    32   17   44 1    
    33   18   19 1    
    34   18   45 1    
    35   18   46 1    
    36   19   20 1    
    37   19   21 1    
    38   20   47 1    
    39   20   48 1    
    40   21   26 ar   
    41   21   22 ar   
    42   22   23 ar   
    43   22   49 1    
    44   23   24 ar   
    45   23   50 1    
    46   24   25 ar   
    47   24   27 1    
    48   25   26 ar   
    49   27   31 1    
    50   27   28 2    
    51   28   29 1    
    52   28   51 1    
    53   29   30 2    
    54   29   52 1    
    55   30   31 1    
    56   30   53 1    
@<TRIPOS>SUBSTRUCTURE
     1 UNK         1 GROUP             0       ****    0 ROOT    
