@<TRIPOS>MOLECULE
ZINC37588276_1233
54   57    1
SMALL
USER_CHARGES


@<TRIPOS>ATOM
      1 C1          4.4200   53.6862   27.9484 C.ar      1 UNK         0.0000 
      2 C2          5.3709   54.1729   27.0537 C.ar      1 UNK         0.0000 
      3 C3          5.0431   54.4198   25.7094 C.ar      1 UNK         0.0000 
      4 C4          3.7123   54.2054   25.3034 C.ar      1 UNK         0.0000 
      5 C5          2.7678   53.6809   26.1895 C.ar      1 UNK         0.0000 
      6 C6          3.1201   53.4326   27.5134 C.ar      1 UNK         0.0000 
      7 Cl7         1.1755   53.2964   25.6323 Cl        1 UNK         0.0000 
      8 C8          6.1081   54.9564   24.7703 C.2       1 UNK         0.0000 
      9 O9          6.9721   55.6959   25.2549 O.2       1 UNK         0.0000 
     10 N10         6.0959   54.6497   23.4374 N.am      1 UNK         0.0000 
     11 C11         7.0838   55.2447   22.5116 C.3       1 UNK         0.0000 
     12 C12         6.3949   55.6641   21.1833 C.3       1 UNK         0.0000 
     13 N13         5.5046   54.6164   20.6190 N.pl3     1 UNK         0.0000 
     14 C14         4.5694   54.0823   21.6349 C.3       1 UNK         0.0000 
     15 C15         5.3487   53.5358   22.8450 C.3       1 UNK         0.0000 
     16 C16         5.4494   54.2573   19.2250 C.ar      1 UNK         0.0000 
     17 C17         6.3438   54.7602   18.2639 C.ar      1 UNK         0.0000 
     18 C18         6.3092   54.2833   16.9491 C.ar      1 UNK         0.0000 
     19 C19         5.3714   53.2997   16.5879 C.ar      1 UNK         0.0000 
     20 C20         4.4379   52.8968   17.5429 C.ar      1 UNK         0.0000 
     21 N21         4.5255   53.3636   18.8038 N.pl3     1 UNK         0.0000 
     22 N22         5.3255   52.6442   15.3415 N.am      1 UNK         0.0000 
     23 C23         6.2857   52.5883   14.3977 C.2       1 UNK         0.0000 
     24 O24         7.3602   53.1907   14.4420 O.2       1 UNK         0.0000 
     25 N25         5.9277   51.7725   13.3860 N.am      1 UNK         0.0000 
     26 C26         6.7274   51.5195   12.2605 C.ar      1 UNK         0.0000 
     27 C27         6.2263   51.8708   11.0038 C.ar      1 UNK         0.0000 
     28 C28         6.9995   51.6628    9.8634 C.ar      1 UNK         0.0000 
     29 C29         8.2648   51.0842    9.9711 C.ar      1 UNK         0.0000 
     30 C30         8.7516   50.6927   11.2177 C.ar      1 UNK         0.0000 
     31 C31         7.9866   50.8995   12.3643 C.ar      1 UNK         0.0000 
     32 F32         8.4722   50.4956   13.5622 F         1 UNK         0.0000 
     33 F33         9.0141   50.8974    8.8622 F         1 UNK         0.0000 
     34 H34         4.6920   53.4928   28.9743 H         1 UNK         0.0000 
     35 H35         6.3721   54.3498   27.4187 H         1 UNK         0.0000 
     36 H36         3.3956   54.4215   24.2922 H         1 UNK         0.0000 
     37 H37         2.3895   53.0248   28.2001 H         1 UNK         0.0000 
     38 H38         7.5660   56.1036   22.9720 H         1 UNK         0.0000 
     39 H39         7.8435   54.4951   22.2962 H         1 UNK         0.0000 
     40 H40         7.1951   55.8695   20.4780 H         1 UNK         0.0000 
     41 H41         5.8253   56.5875   21.2826 H         1 UNK         0.0000 
     42 H42         3.9054   53.3162   21.2365 H         1 UNK         0.0000 
     43 H43         3.9142   54.9007   21.9352 H         1 UNK         0.0000 
     44 H44         6.1152   52.8514   22.4811 H         1 UNK         0.0000 
     45 H45         4.7714   52.8972   23.5073 H         1 UNK         0.0000 
     46 H46         7.0997   55.4894   18.5001 H         1 UNK         0.0000 
     47 H47         7.0360   54.6681   16.2490 H         1 UNK         0.0000 
     48 H48         3.7026   52.1175   17.3844 H         1 UNK         0.0000 
     49 H49         4.5352   52.0294   15.2154 H         1 UNK         0.0000 
     50 H50         4.9894   51.4001   13.3733 H         1 UNK         0.0000 
     51 H51         5.2524   52.3290   10.9112 H         1 UNK         0.0000 
     52 H52         6.6261   51.9562    8.8939 H         1 UNK         0.0000 
     53 H53         9.7294   50.2375   11.2962 H         1 UNK         0.0000 
     54 H54         3.8806   52.9955   19.4883 H         1 UNK         0.0000 
@<TRIPOS>BOND
     1    1    6 ar   
     2    1    2 ar   
     3    1   34 1    
     4    2    3 ar   
     5    2   35 1    
     6    3    4 ar   
     7    3    8 1    
     8    4    5 ar   
     9    4   36 1    
    10    5    6 ar   
    11    5    7 1    
    12    6   37 1    
    13    8    9 2    
    14    8   10 am   BACKBONE|DICT|INTERRES
    15   10   15 1    
    16   10   11 1    
    17   11   12 1    
    18   11   38 1    
    19   11   39 1    
    20   12   13 1    
    21   12   40 1    
    22   12   41 1    
    23   13   14 1    
    24   13   16 1    
    25   14   15 1    
    26   14   42 1    
    27   14   43 1    
    28   15   44 1    
    29   15   45 1    
    30   16   21 ar   
    31   16   17 ar   
    32   17   18 ar   
    33   17   46 1    
    34   18   19 ar   
    35   18   47 1    
    36   19   20 ar   
    37   19   22 1    
    38   20   21 ar   
    39   20   48 1    
    40   21   54 1    
    41   22   23 am   BACKBONE|DICT|INTERRES
    42   22   49 1    
    43   23   24 2    
    44   23   25 am   BACKBONE|DICT|INTERRES
    45   25   26 1    
    46   25   50 1    
    47   26   31 ar   
    48   26   27 ar   
    49   27   28 ar   
    50   27   51 1    
    51   28   29 ar   
    52   28   52 1    
    53   29   30 ar   
    54   29   33 1    
    55   30   31 ar   
    56   30   53 1    
    57   31   32 1    
@<TRIPOS>SUBSTRUCTURE
     1 UNK         1 GROUP             0       ****    0 ROOT    
