@<TRIPOS>MOLECULE
ZINC67524482_1464
42   44    1
SMALL
USER_CHARGES


@<TRIPOS>ATOM
      1 C1         -0.0710   51.8998   25.5324 C.3       1 UNK         0.0000 
      2 C2          0.5619   51.7561   24.1604 C.ar      1 UNK         0.0000 
      3 C3          0.8376   50.4920   23.6404 C.ar      1 UNK         0.0000 
      4 C4          1.4374   50.3689   22.3898 C.ar      1 UNK         0.0000 
      5 C5          1.7661   51.5054   21.6323 C.ar      1 UNK         0.0000 
      6 C6          1.4815   52.7707   22.1760 C.ar      1 UNK         0.0000 
      7 C7          0.8835   52.8959   23.4265 C.ar      1 UNK         0.0000 
      8 C8          2.5403   51.3713   20.2911 C.3       1 UNK         0.0000 
      9 C9          3.9681   51.8281   20.5071 C.2       1 UNK         0.0000 
     10 O10         4.7648   51.3064   21.2815 O.2       1 UNK         0.0000 
     11 N11         4.1508   52.9154   19.7253 N.am      1 UNK         0.0000 
     12 C12         3.1041   53.1584   18.8991 C.2       1 UNK         0.0000 
     13 O13         3.0113   54.0249   18.0320 O.2       1 UNK         0.0000 
     14 N14         2.1401   52.3055   19.2714 N.am      1 UNK         0.0000 
     15 C15         5.3394   53.8099   19.7397 C.3       1 UNK         0.0000 
     16 C16         5.6843   54.4970   21.0907 C.2       1 UNK         0.0000 
     17 O17         6.5462   55.3760   21.0606 O.2       1 UNK         0.0000 
     18 N18         5.0817   54.0966   22.2340 N.am      1 UNK         0.0000 
     19 C19         5.4623   54.4337   23.5261 C.2       1 UNK         0.0000 
     20 N20         6.6131   54.9292   23.9227 N.2       1 UNK         0.0000 
     21 N21         6.6997   55.0226   25.3060 N.2       1 UNK         0.0000 
     22 C22         5.6186   54.6078   25.9274 C.2       1 UNK         0.0000 
     23 S23         4.3634   54.0968   24.8263 S.3       1 UNK         0.0000 
     24 C24         5.5212   54.5111   27.4356 C.3       1 UNK         0.0000 
     25 F25         6.0235   53.3613   27.8849 F         1 UNK         0.0000 
     26 F26         4.2650   54.6180   27.8697 F         1 UNK         0.0000 
     27 C27         2.5756   49.9424   19.6821 C.3       1 UNK         0.0000 
     28 H28        -0.2245   50.9362   26.0208 H         1 UNK         0.0000 
     29 H29         0.5651   52.5077   26.1767 H         1 UNK         0.0000 
     30 H30        -1.0335   52.4055   25.4534 H         1 UNK         0.0000 
     31 H31         0.6058   49.6020   24.2088 H         1 UNK         0.0000 
     32 H32         1.6618   49.3739   22.0375 H         1 UNK         0.0000 
     33 H33         1.7540   53.6758   21.6572 H         1 UNK         0.0000 
     34 H34         0.6866   53.8790   23.8299 H         1 UNK         0.0000 
     35 H35         1.4242   52.0255   18.6189 H         1 UNK         0.0000 
     36 H36         5.1994   54.6138   19.0150 H         1 UNK         0.0000 
     37 H37         6.2076   53.2459   19.3980 H         1 UNK         0.0000 
     38 H38         4.3131   53.4479   22.1562 H         1 UNK         0.0000 
     39 H39         6.0888   55.2970   27.9355 H         1 UNK         0.0000 
     40 H40         3.1037   49.2363   20.3220 H         1 UNK         0.0000 
     41 H41         1.5694   49.5542   19.5228 H         1 UNK         0.0000 
     42 H42         3.0838   49.9177   18.7150 H         1 UNK         0.0000 
@<TRIPOS>BOND
     1    1    2 1    
     2    1   28 1    
     3    1   29 1    
     4    1   30 1    
     5    2    7 ar   
     6    2    3 ar   
     7    3    4 ar   
     8    3   31 1    
     9    4    5 ar   
    10    4   32 1    
    11    5    6 ar   
    12    5    8 1    
    13    6    7 ar   
    14    6   33 1    
    15    7   34 1    
    16    8   14 1    
    17    8    9 1    
    18    8   27 1    
    19    9   10 2    
    20    9   11 am   BACKBONE|DICT|INTERRES
    21   11   12 am   BACKBONE|DICT|INTERRES
    22   11   15 1    
    23   12   13 2    
    24   12   14 am   BACKBONE|DICT|INTERRES
    25   14   35 1    
    26   15   16 1    
    27   15   36 1    
    28   15   37 1    
    29   16   17 2    
    30   16   18 am   BACKBONE|DICT|INTERRES
    31   18   19 am   BACKBONE|DICT|INTERRES
    32   18   38 1    
    33   19   23 1    
    34   19   20 2    
    35   20   21 1    
    36   21   22 2    
    37   22   23 1    
    38   22   24 1    
    39   24   25 1    
    40   24   26 1    
    41   24   39 1    
    42   27   40 1    
    43   27   41 1    
    44   27   42 1    
@<TRIPOS>SUBSTRUCTURE
     1 UNK         1 GROUP             0       ****    0 ROOT    
