@<TRIPOS>MOLECULE
ZINC22511010_2307
61   64    1
SMALL
USER_CHARGES


@<TRIPOS>ATOM
      1 C1          1.2624   52.1024   24.1633 C.3       1 UNK         0.0000 
      2 C2          0.3439   51.8549   25.3458 C.ar      1 UNK         0.0000 
      3 C3         -0.7267   50.9700   25.2377 C.ar      1 UNK         0.0000 
      4 C4         -1.5553   50.7436   26.3337 C.ar      1 UNK         0.0000 
      5 C5         -1.3266   51.3934   27.5510 C.ar      1 UNK         0.0000 
      6 C6         -0.2427   52.2858   27.6739 C.ar      1 UNK         0.0000 
      7 C7          0.5824   52.4968   26.5608 C.ar      1 UNK         0.0000 
      8 N8          0.0151   52.9161   28.9061 N.pl3     1 UNK         0.0000 
      9 S9          1.0834   54.3221   29.1504 S.o2      1 UNK         0.0000 
     10 O10         0.9241   54.7274   30.5489 O.2       1 UNK         0.0000 
     11 O11         0.8222   55.2851   28.0817 O.2       1 UNK         0.0000 
     12 C12         2.7630   53.7446   28.9298 C.ar      1 UNK         0.0000 
     13 C13         3.5065   54.2622   27.8555 C.ar      1 UNK         0.0000 
     14 C14         4.8164   53.8343   27.6143 C.ar      1 UNK         0.0000 
     15 C15         5.3825   52.9038   28.4814 C.ar      1 UNK         0.0000 
     16 C16         4.6410   52.3758   29.5362 C.ar      1 UNK         0.0000 
     17 C17         3.3326   52.7830   29.7765 C.ar      1 UNK         0.0000 
     18 C18         2.5767   52.1513   30.9383 C.3       1 UNK         0.0000 
     19 C19         5.6159   54.3340   26.4420 C.2       1 UNK         0.0000 
     20 O20         6.7651   54.7436   26.6091 O.2       1 UNK         0.0000 
     21 N21         4.9851   54.2240   25.2531 N.am      1 UNK         0.0000 
     22 C22         5.4669   54.4712   23.9526 C.ar      1 UNK         0.0000 
     23 C23         6.7035   55.0605   23.6579 C.ar      1 UNK         0.0000 
     24 C24         7.0665   55.3007   22.3365 C.ar      1 UNK         0.0000 
     25 C25         6.2104   54.9756   21.2771 C.ar      1 UNK         0.0000 
     26 C26         4.9892   54.3475   21.5819 C.ar      1 UNK         0.0000 
     27 C27         4.6256   54.0969   22.9031 C.ar      1 UNK         0.0000 
     28 N28         6.6251   55.2667   19.9439 N.am      1 UNK         0.0000 
     29 C29         8.0404   55.4480   19.5667 C.3       1 UNK         0.0000 
     30 C30         8.0422   55.9597   18.1457 C.3       1 UNK         0.0000 
     31 C31         6.6763   55.5980   17.6281 C.3       1 UNK         0.0000 
     32 C32         5.8026   55.3650   18.8562 C.2       1 UNK         0.0000 
     33 O33         4.5759   55.2973   18.8043 O.2       1 UNK         0.0000 
     34 C34        -2.2731   51.0938   28.7108 C.3       1 UNK         0.0000 
     35 H35         1.1631   51.3256   23.4037 H         1 UNK         0.0000 
     36 H36         1.0534   53.0735   23.7138 H         1 UNK         0.0000 
     37 H37         2.3038   52.0984   24.4870 H         1 UNK         0.0000 
     38 H38        -0.9182   50.4507   24.3102 H         1 UNK         0.0000 
     39 H39        -2.3727   50.0428   26.2408 H         1 UNK         0.0000 
     40 H40         1.4192   53.1699   26.6208 H         1 UNK         0.0000 
     41 H41        -0.5047   52.6005   29.7109 H         1 UNK         0.0000 
     42 H42         3.0648   55.0005   27.2012 H         1 UNK         0.0000 
     43 H43         6.3942   52.5619   28.3170 H         1 UNK         0.0000 
     44 H44         5.1045   51.6552   30.1894 H         1 UNK         0.0000 
     45 H45         3.2119   51.5014   31.5417 H         1 UNK         0.0000 
     46 H46         2.1750   52.8967   31.6184 H         1 UNK         0.0000 
     47 H47         1.7269   51.5850   30.5622 H         1 UNK         0.0000 
     48 H48         4.0580   53.8317   25.2907 H         1 UNK         0.0000 
     49 H49         7.3985   55.3616   24.4242 H         1 UNK         0.0000 
     50 H50         8.0195   55.7727   22.1619 H         1 UNK         0.0000 
     51 H51         4.3019   54.0366   20.8102 H         1 UNK         0.0000 
     52 H52         3.6725   53.6275   23.0974 H         1 UNK         0.0000 
     53 H53         8.5574   56.1641   20.2042 H         1 UNK         0.0000 
     54 H54         8.5691   54.4966   19.6318 H         1 UNK         0.0000 
     55 H55         8.8579   55.5449   17.5516 H         1 UNK         0.0000 
     56 H56         8.1566   57.0456   18.1449 H         1 UNK         0.0000 
     57 H57         6.7074   54.6609   17.0700 H         1 UNK         0.0000 
     58 H58         6.2582   56.3634   16.9726 H         1 UNK         0.0000 
     59 H59        -2.8847   50.2067   28.5283 H         1 UNK         0.0000 
     60 H60        -1.7175   50.9050   29.6304 H         1 UNK         0.0000 
     61 H61        -2.9530   51.9231   28.8814 H         1 UNK         0.0000 
@<TRIPOS>BOND
     1    1    2 1    
     2    1   35 1    
     3    1   36 1    
     4    1   37 1    
     5    2    7 ar   
     6    2    3 ar   
     7    3    4 ar   
     8    3   38 1    
     9    4    5 ar   
    10    4   39 1    
    11    5    6 ar   
    12    5   34 1    
    13    6    7 ar   
    14    6    8 1    
    15    7   40 1    
    16    8    9 1    
    17    8   41 1    
    18    9   10 2    
    19    9   11 2    
    20    9   12 1    
    21   12   17 ar   
    22   12   13 ar   
    23   13   14 ar   
    24   13   42 1    
    25   14   15 ar   
    26   14   19 1    
    27   15   16 ar   
    28   15   43 1    
    29   16   17 ar   
    30   16   44 1    
    31   17   18 1    
    32   18   45 1    
    33   18   46 1    
    34   18   47 1    
    35   19   20 2    
    36   19   21 am   BACKBONE|DICT|INTERRES
    37   21   22 1    
    38   21   48 1    
    39   22   27 ar   
    40   22   23 ar   
    41   23   24 ar   
    42   23   49 1    
    43   24   25 ar   
    44   24   50 1    
    45   25   26 ar   
    46   25   28 1    
    47   26   27 ar   
    48   26   51 1    
    49   27   52 1    
    50   28   32 am   BACKBONE|DICT|INTERRES
    51   28   29 1    
    52   29   30 1    
    53   29   53 1    
    54   29   54 1    
    55   30   31 1    
    56   30   55 1    
    57   30   56 1    
    58   31   32 1    
    59   31   57 1    
    60   31   58 1    
    61   32   33 2    
    62   34   59 1    
    63   34   60 1    
    64   34   61 1    
@<TRIPOS>SUBSTRUCTURE
     1 UNK         1 GROUP             0       ****    0 ROOT    
