ZINC63472725_1257
                    3D
 Schrodinger Suite 2024-2.
 64 70  0  0  1  0            999 V2000
    4.2612   52.4931   29.6203 C   0  0  0  0  0  0
    3.6167   52.2726   30.9072 C   0  0  0  0  0  0
    2.2634   52.2640   31.0453 C   0  0  0  0  0  0
    1.4398   52.4552   29.9273 C   0  0  0  0  0  0
    0.1316   52.4610   29.8431 N   0  3  0  0  0  0
   -0.2741   52.6444   28.4336 C   0  0  0  0  0  0
    1.0676   52.7640   27.7276 C   0  0  0  0  0  0
    2.0150   52.6509   28.6701 C   0  0  0  0  0  0
    3.4774   52.6817   28.5444 C   0  0  0  0  0  0
    1.2284   52.9125   26.2216 C   0  0  0  0  0  0
    0.1271   52.2693   25.3565 C   0  0  1  0  0  0
   -0.7850   52.7699   25.6790 H   0  0  0  0  0  0
    0.1909   52.4171   23.8152 C   0  0  2  0  0  0
   -0.2245   53.3730   23.4943 H   0  0  0  0  0  0
   -0.5623   51.2296   23.2746 C   0  0  1  0  0  0
   -1.4050   51.5580   22.6635 H   0  0  0  0  0  0
    0.4451   50.5562   22.3347 C   0  0  0  0  0  0
    0.1597   49.5598   21.6736 O   0  0  0  0  0  0
    1.6129   51.2694   22.3284 N   0  0  0  0  0  0
    1.5873   52.3122   23.2080 C   0  0  0  0  0  0
    2.4820   53.1135   23.4768 O   0  0  0  0  0  0
    2.8293   50.8380   21.5459 C   0  0  0  0  0  0
    2.5679   50.2605   20.1174 C   0  0  0  0  0  0
    1.9627   51.3214   19.1717 C   0  0  0  0  0  0
    2.9334   52.5112   19.0035 C   0  0  0  0  0  0
    3.4709   53.0525   20.3484 C   0  0  0  0  0  0
    3.9461   51.9044   21.2696 C   0  0  0  0  0  0
   -1.0520   50.4470   24.5586 C   0  0  1  0  0  0
   -0.0768   50.8488   25.5708 N   0  0  0  0  0  0
   -2.4963   50.7247   24.9264 C   0  0  0  0  0  0
   -3.2124   51.9207   25.0664 C   0  0  0  0  0  0
   -4.5517   51.8851   25.4604 C   0  0  0  0  0  0
   -5.1827   50.6606   25.6958 C   0  0  0  0  0  0
   -4.4774   49.4653   25.5310 C   0  0  0  0  0  0
   -3.1389   49.5192   25.1407 C   0  0  0  0  0  0
   -2.2608   48.4790   24.9051 N   0  0  0  0  0  0
   -1.0382   48.8850   24.5238 C   0  0  0  0  0  0
   -0.0950   48.1451   24.2463 O   0  0  0  0  0  0
   -5.2383   53.0420   25.6133 F   0  0  0  0  0  0
    5.3347   52.4972   29.5201 H   0  0  0  0  0  0
    4.2361   52.1185   31.7806 H   0  0  0  0  0  0
    1.8392   52.1022   32.0271 H   0  0  0  0  0  0
   -0.8600   51.7711   28.1442 H   0  0  0  0  0  0
   -0.8888   53.5419   28.3603 H   0  0  0  0  0  0
    3.9639   52.8381   27.5923 H   0  0  0  0  0  0
    1.2993   53.9726   25.9885 H   0  0  0  0  0  0
    2.1988   52.4993   25.9550 H   0  0  0  0  0  0
    3.2675   50.0479   22.1578 H   0  0  0  0  0  0
    3.5042   49.9097   19.6782 H   0  0  0  0  0  0
    1.9636   49.3547   20.1327 H   0  0  0  0  0  0
    1.7549   50.8776   18.1975 H   0  0  0  0  0  0
    1.0066   51.6702   19.5603 H   0  0  0  0  0  0
    3.7803   52.1830   18.3955 H   0  0  0  0  0  0
    2.4528   53.3135   18.4428 H   0  0  0  0  0  0
    4.2967   53.7390   20.1597 H   0  0  0  0  0  0
    2.7070   53.6522   20.8494 H   0  0  0  0  0  0
    4.3732   52.3039   22.1863 H   0  0  0  0  0  0
    4.8014   51.4176   20.7960 H   0  0  0  0  0  0
   -0.4296   50.6350   26.4941 H   0  0  0  0  0  0
   -2.7582   52.8803   24.8782 H   0  0  0  0  0  0
   -6.2197   50.6394   25.9962 H   0  0  0  0  0  0
   -4.9760   48.5212   25.7015 H   0  0  0  0  0  0
   -2.4803   47.5063   25.0423 H   0  0  0  0  0  0
   -0.5104   52.3096   30.6223 H   0  0  0  0  0  0
  1  9  2  0  0  0
  1  2  1  0  0  0
  1 40  1  0  0  0
  2  3  2  0  0  0
  2 41  1  0  0  0
  3  4  1  0  0  0
  3 42  1  0  0  0
  4  8  1  0  0  0
  4  5  2  0  0  0
  5  6  1  0  0  0
  5 64  1  0  0  0
  6  7  1  0  0  0
  6 43  1  0  0  0
  6 44  1  0  0  0
  7  8  2  0  0  0
  7 10  1  0  0  0
  8  9  1  0  0  0
  9 45  1  0  0  0
 10 11  1  0  0  0
 10 46  1  0  0  0
 10 47  1  0  0  0
 11 12  1  0  0  0
 11 29  1  0  0  0
 11 13  1  0  0  0
 13 14  1  0  0  0
 13 20  1  0  0  0
 13 15  1  0  0  0
 15 16  1  0  0  0
 15 17  1  0  0  0
 15 28  1  0  0  0
 17 18  2  0  0  0
 17 19  1  0  0  0
 19 20  1  0  0  0
 19 22  1  0  0  0
 20 21  2  0  0  0
 22 27  1  0  0  0
 22 23  1  0  0  0
 22 48  1  0  0  0
 23 24  1  0  0  0
 23 49  1  0  0  0
 23 50  1  0  0  0
 24 25  1  0  0  0
 24 51  1  0  0  0
 24 52  1  0  0  0
 25 26  1  0  0  0
 25 53  1  0  0  0
 25 54  1  0  0  0
 26 27  1  0  0  0
 26 55  1  0  0  0
 26 56  1  0  0  0
 27 57  1  0  0  0
 27 58  1  0  0  0
 28 37  1  0  0  0
 28 29  1  0  0  0
 28 30  1  0  0  0
 29 59  1  0  0  0
 30 35  2  0  0  0
 30 31  1  0  0  0
 31 32  2  0  0  0
 31 60  1  0  0  0
 32 33  1  0  0  0
 32 39  1  0  0  0
 33 34  2  0  0  0
 33 61  1  0  0  0
 34 35  1  0  0  0
 34 62  1  0  0  0
 35 36  1  0  0  0
 36 37  1  0  0  0
 36 63  1  0  0  0
 37 38  2  0  0  0
M  CHG  1   5   1
M  END
> <i_i_glide_confnum>
25

> <i_i_glide_lignum>
1258

> <i_i_glide_posenum>
117

> <i_i_glide_rotatable_bonds>
3

> <i_m_Source_File_Index>
3335

> <b_m_subgroup_collapsed>
0

> <r_i_docking_score>
-3.63217

> <r_i_glide_ecoul>
-0.476014

> <r_i_glide_eff_state_penalty>
0

> <r_i_glide_einternal>
3.64398

> <r_i_glide_emodel>
-45.2933

> <r_i_glide_energy>
-37.6103

> <r_i_glide_erotb>
0.256585

> <r_i_glide_esite>
-0.0916791

> <r_i_glide_evdw>
-37.1343

> <r_i_glide_gscore>
-3.63217

> <r_i_glide_hbond>
0

> <r_i_glide_ligand_efficiency>
-0.100894

> <r_i_glide_ligand_efficiency_ln>
-0.792442

> <r_i_glide_ligand_efficiency_sa>
-0.333144

> <r_i_glide_lipo>
-1.34523

> <r_i_glide_metal>
0

> <r_i_glide_rewards>
-0.523733

> <s_i_glide_gridfile>
wee1_glide-grid

> <s_m_Source_File>
wee1_decoys_glide_SP.sdf

> <s_m_Source_Path>
/Users/zhangxujun/Desktop

> <s_m_entry_id>
3610

> <s_m_entry_name>
wee1_decoys_glide_SP.3335

> <s_m_subgroup_title>
wee1_decoys_glide_SP

> <s_m_subgroupid>
wee1_decoys_glide_SP


$$$$
