ZINC09152121_3507
                    3D
 Schrodinger Suite 2024-2.
 58 60  0  0  1  0            999 V2000
   -0.5292   51.9064   29.0195 C   0  0  0  0  0  0
    0.6309   52.8691   28.7939 C   0  0  0  0  0  0
    0.9877   53.7293   29.8341 C   0  0  0  0  0  0
    2.0510   54.6097   29.6824 C   0  0  0  0  0  0
    2.7797   54.6234   28.4980 C   0  0  0  0  0  0
    2.4329   53.7875   27.4241 C   0  0  0  0  0  0
    1.3414   52.8989   27.5733 C   0  0  0  0  0  0
    0.9011   51.9657   26.4394 C   0  0  0  0  0  0
    3.1029   53.8402   26.1803 N   0  0  0  0  0  0
    4.2958   54.3799   25.8458 C   0  0  0  0  0  0
    5.0842   54.8960   26.6375 O   0  0  0  0  0  0
    4.6392   54.3089   24.3513 C   0  0  0  0  0  0
    6.3042   54.8969   23.8894 S   0  0  0  0  0  0
    6.3687   54.9483   22.1200 C   0  0  0  0  0  0
    5.4039   54.2955   21.4179 N   0  0  0  0  0  0
    5.5044   54.3397   20.0620 C   0  0  0  0  0  0
    6.5319   55.0299   19.4101 C   0  0  0  0  0  0
    7.4546   55.6980   20.2243 C   0  0  0  0  0  0
    7.3942   55.6546   21.5792 N   0  0  0  0  0  0
    8.4718   56.4717   19.6801 N   0  0  0  0  0  0
    6.6340   55.0359   17.6179 S   0  0  0  0  0  0
    7.1212   56.3587   17.2067 O   0  0  0  0  0  0
    5.3595   54.5167   17.1077 O   0  0  0  0  0  0
    7.9157   53.8498   17.2000 C   0  0  0  0  0  0
    7.5711   52.5448   16.8436 C   0  0  0  0  0  0
    8.5706   51.6487   16.4726 C   0  0  0  0  0  0
    9.9144   52.0270   16.4817 C   0  0  0  0  0  0
   10.2510   53.3323   16.8495 C   0  0  0  0  0  0
    9.2582   54.2435   17.2056 C   0  0  0  0  0  0
   11.0124   51.0309   16.0845 C   0  0  0  0  0  0
   10.7765   49.6001   16.6251 C   0  0  0  0  0  0
   11.2379   51.0278   14.5641 C   0  0  0  0  0  0
   -0.1915   50.8825   28.8646 H   0  0  0  0  0  0
   -0.9407   51.9628   30.0293 H   0  0  0  0  0  0
   -1.3325   52.0964   28.3074 H   0  0  0  0  0  0
    0.4353   53.7193   30.7642 H   0  0  0  0  0  0
    2.3048   55.2930   30.4813 H   0  0  0  0  0  0
    3.6008   55.3129   28.4304 H   0  0  0  0  0  0
   -0.1285   52.1836   26.1593 H   0  0  0  0  0  0
    1.5046   52.0261   25.5345 H   0  0  0  0  0  0
    0.9277   50.9300   26.7764 H   0  0  0  0  0  0
    2.6182   53.3557   25.4427 H   0  0  0  0  0  0
    3.9062   54.8973   23.8015 H   0  0  0  0  0  0
    4.5404   53.2881   24.0034 H   0  0  0  0  0  0
    4.7465   53.8078   19.5030 H   0  0  0  0  0  0
    8.4053   56.6940   18.6944 H   0  0  0  0  0  0
    9.1047   56.9665   20.2951 H   0  0  0  0  0  0
    6.5379   52.2271   16.8342 H   0  0  0  0  0  0
    8.3043   50.6493   16.1714 H   0  0  0  0  0  0
   11.2846   53.6455   16.8582 H   0  0  0  0  0  0
    9.5383   55.2517   17.4724 H   0  0  0  0  0  0
   11.9370   51.3724   16.5573 H   0  0  0  0  0  0
   10.5546   49.6102   17.6927 H   0  0  0  0  0  0
   11.6531   48.9645   16.4799 H   0  0  0  0  0  0
    9.9462   49.1026   16.1224 H   0  0  0  0  0  0
   11.4714   52.0275   14.1968 H   0  0  0  0  0  0
   12.0716   50.3785   14.2847 H   0  0  0  0  0  0
   10.3572   50.6751   14.0248 H   0  0  0  0  0  0
  1  2  1  0  0  0
  1 33  1  0  0  0
  1 34  1  0  0  0
  1 35  1  0  0  0
  2  7  2  0  0  0
  2  3  1  0  0  0
  3  4  2  0  0  0
  3 36  1  0  0  0
  4  5  1  0  0  0
  4 37  1  0  0  0
  5  6  2  0  0  0
  5 38  1  0  0  0
  6  7  1  0  0  0
  6  9  1  0  0  0
  7  8  1  0  0  0
  8 39  1  0  0  0
  8 40  1  0  0  0
  8 41  1  0  0  0
  9 10  1  0  0  0
  9 42  1  0  0  0
 10 11  2  0  0  0
 10 12  1  0  0  0
 12 13  1  0  0  0
 12 43  1  0  0  0
 12 44  1  0  0  0
 13 14  1  0  0  0
 14 19  2  0  0  0
 14 15  1  0  0  0
 15 16  2  0  0  0
 16 17  1  0  0  0
 16 45  1  0  0  0
 17 18  2  0  0  0
 17 21  1  0  0  0
 18 19  1  0  0  0
 18 20  1  0  0  0
 20 46  1  0  0  0
 20 47  1  0  0  0
 21 22  2  0  0  0
 21 23  2  0  0  0
 21 24  1  0  0  0
 24 29  2  0  0  0
 24 25  1  0  0  0
 25 26  2  0  0  0
 25 48  1  0  0  0
 26 27  1  0  0  0
 26 49  1  0  0  0
 27 28  2  0  0  0
 27 30  1  0  0  0
 28 29  1  0  0  0
 28 50  1  0  0  0
 29 51  1  0  0  0
 30 31  1  0  0  0
 30 32  1  0  0  0
 30 52  1  0  0  0
 31 53  1  0  0  0
 31 54  1  0  0  0
 31 55  1  0  0  0
 32 56  1  0  0  0
 32 57  1  0  0  0
 32 58  1  0  0  0
M  END
> <i_i_glide_confnum>
25

> <i_i_glide_lignum>
3508

> <i_i_glide_posenum>
346

> <i_i_glide_rotatable_bonds>
8

> <i_m_Source_File_Index>
686

> <b_m_subgroup_collapsed>
0

> <r_i_docking_score>
-5.49402

> <r_i_glide_ecoul>
-2.53126

> <r_i_glide_eff_state_penalty>
0

> <r_i_glide_einternal>
2.14174

> <r_i_glide_emodel>
-64.7521

> <r_i_glide_energy>
-48.2256

> <r_i_glide_erotb>
0.638652

> <r_i_glide_esite>
-0.007637

> <r_i_glide_evdw>
-45.6944

> <r_i_glide_gscore>
-5.49402

> <r_i_glide_hbond>
-0.190558

> <r_i_glide_ligand_efficiency>
-0.171688

> <r_i_glide_ligand_efficiency_ln>
-1.23026

> <r_i_glide_ligand_efficiency_sa>
-0.545076

> <r_i_glide_lipo>
-2.32227

> <r_i_glide_metal>
0

> <r_i_glide_rewards>
-0.947803

> <s_i_glide_gridfile>
wee1_glide-grid

> <s_m_Source_File>
wee1_decoys_glide_SP.sdf

> <s_m_Source_Path>
/Users/zhangxujun/Desktop

> <s_m_entry_id>
961

> <s_m_entry_name>
wee1_decoys_glide_SP.686

> <s_m_subgroup_title>
wee1_decoys_glide_SP

> <s_m_subgroupid>
wee1_decoys_glide_SP


$$$$
