@<TRIPOS>MOLECULE
ZINC20211200_5360
47   51    1
SMALL
USER_CHARGES


@<TRIPOS>ATOM
      1 C1          3.7615   58.3960   16.3370 C.ar      1 UNK         0.0000 
      2 C2          3.1002   57.1787   16.4818 C.ar      1 UNK         0.0000 
      3 C3          3.8090   56.0564   16.9039 C.ar      1 UNK         0.0000 
      4 C4          5.1776   56.1558   17.1762 C.ar      1 UNK         0.0000 
      5 C5          5.8376   57.3767   17.0122 C.ar      1 UNK         0.0000 
      6 C6          5.1265   58.4968   16.5942 C.ar      1 UNK         0.0000 
      7 C7          5.9522   54.9307   17.6423 C.3       1 UNK         0.0000 
      8 C8          5.9652   54.7940   19.1528 C.2       1 UNK         0.0000 
      9 N9          5.1268   54.0646   19.7688 N.2       1 UNK         0.0000 
     10 N10         5.3070   54.1493   21.1533 N.pl3     1 UNK         0.0000 
     11 C11         4.5056   53.4100   22.0819 C.2       1 UNK         0.0000 
     12 N12         3.7714   52.4610   21.6829 N.2       1 UNK         0.0000 
     13 C13         4.6925   53.8675   23.4712 C.2       1 UNK         0.0000 
     14 C14         3.6989   53.8587   24.4121 C.2       1 UNK         0.0000 
     15 C15         2.2764   53.4663   24.3554 C.ar      1 UNK         0.0000 
     16 C16         1.3923   53.4529   23.2751 C.ar      1 UNK         0.0000 
     17 C17         0.1769   52.9146   23.6730 C.ar      1 UNK         0.0000 
     18 C18         0.2859   52.6869   25.0210 C.ar      1 UNK         0.0000 
     19 N19         1.5353   53.0628   25.4751 N.pl3     1 UNK         0.0000 
     20 C20         1.9046   52.9891   26.8453 C.ar      1 UNK         0.0000 
     21 C21         1.5046   51.8773   27.5994 C.ar      1 UNK         0.0000 
     22 C22         1.9040   51.7573   28.9236 C.ar      1 UNK         0.0000 
     23 C23         2.7091   52.7335   29.5014 C.ar      1 UNK         0.0000 
     24 C24         3.0463   53.8804   28.7880 C.ar      1 UNK         0.0000 
     25 C25         2.6205   54.0209   27.4697 C.ar      1 UNK         0.0000 
     26 Br26        3.3663   52.4820   31.2689 Br        1 UNK         0.0000 
     27 C27         5.9906   54.4956   23.8555 C.2       1 UNK         0.0000 
     28 O28         6.3679   54.4172   25.0268 O.2       1 UNK         0.0000 
     29 N29         6.6931   55.1514   22.8238 N.am      1 UNK         0.0000 
     30 C30         6.3567   54.9745   21.6040 C.2       1 UNK         0.0000 
     31 S31         7.1347   55.6994   20.1888 S.3       1 UNK         0.0000 
     32 H32         3.2161   59.2775   16.0304 H         1 UNK         0.0000 
     33 H33         2.0408   57.1110   16.2825 H         1 UNK         0.0000 
     34 H34         3.2931   55.1152   17.0306 H         1 UNK         0.0000 
     35 H35         6.8945   57.4647   17.2188 H         1 UNK         0.0000 
     36 H36         5.6237   59.4506   16.4818 H         1 UNK         0.0000 
     37 H37         6.9763   54.9848   17.2711 H         1 UNK         0.0000 
     38 H38         5.5279   54.0347   17.1843 H         1 UNK         0.0000 
     39 H39         3.8479   52.3705   20.6785 H         1 UNK         0.0000 
     40 H40         3.9747   54.2181   25.3859 H         1 UNK         0.0000 
     41 H41         1.6184   53.7677   22.2659 H         1 UNK         0.0000 
     42 H42        -0.6894   52.7366   23.0526 H         1 UNK         0.0000 
     43 H43        -0.4510   52.3103   25.7156 H         1 UNK         0.0000 
     44 H44         0.9183   51.0810   27.1617 H         1 UNK         0.0000 
     45 H45         1.5984   50.8969   29.4915 H         1 UNK         0.0000 
     46 H46         3.6431   54.6540   29.2492 H         1 UNK         0.0000 
     47 H47         2.8651   54.9327   26.9491 H         1 UNK         0.0000 
@<TRIPOS>BOND
     1    1    6 ar   
     2    1    2 ar   
     3    1   32 1    
     4    2    3 ar   
     5    2   33 1    
     6    3    4 ar   
     7    3   34 1    
     8    4    5 ar   
     9    4    7 1    
    10    5    6 ar   
    11    5   35 1    
    12    6   36 1    
    13    7    8 1    
    14    7   37 1    
    15    7   38 1    
    16    8   31 1    
    17    8    9 2    
    18    9   10 1    
    19   10   30 1    
    20   10   11 1    
    21   11   12 2    
    22   11   13 1    
    23   12   39 1    
    24   13   14 2    
    25   13   27 1    
    26   14   15 1    
    27   14   40 1    
    28   15   19 ar   
    29   15   16 ar   
    30   16   17 ar   
    31   16   41 1    
    32   17   18 ar   
    33   17   42 1    
    34   18   19 ar   
    35   18   43 1    
    36   19   20 1    
    37   20   25 ar   
    38   20   21 ar   
    39   21   22 ar   
    40   21   44 1    
    41   22   23 ar   
    42   22   45 1    
    43   23   24 ar   
    44   23   26 1    
    45   24   25 ar   
    46   24   46 1    
    47   25   47 1    
    48   27   28 2    
    49   27   29 am   BACKBONE|DICT|INTERRES
    50   29   30 2    BACKBONE|DICT|INTERRES
    51   30   31 1    
@<TRIPOS>SUBSTRUCTURE
     1 UNK         1 GROUP             0       ****    0 ROOT    
