@<TRIPOS>MOLECULE
ZINC38903358_5345
76   80    1
SMALL
USER_CHARGES


@<TRIPOS>ATOM
      1 C1          0.3675   49.0745   24.1481 C.3       1 UNK         0.0000 
      2 C2         -0.6709   49.9287   24.9172 C.3       1 UNK         0.0000 
      3 C3         -1.0528   51.2559   24.2024 C.3       1 UNK         0.0000 
      4 C4         -1.6438   51.0197   22.7949 C.3       1 UNK         0.0000 
      5 H5         -2.1938   51.9320   22.5452 H         1 UNK         0.0000 
      6 C6         -2.6499   49.8710   22.8494 C.ar      1 UNK         0.0000 
      7 C7         -3.5421   49.6213   21.7981 C.ar      1 UNK         0.0000 
      8 C8         -4.4394   48.5554   21.8558 C.ar      1 UNK         0.0000 
      9 C9         -4.4602   47.7165   22.9683 C.ar      1 UNK         0.0000 
     10 C10        -3.5784   47.9433   24.0244 C.ar      1 UNK         0.0000 
     11 C11        -2.6751   49.0031   23.9624 C.ar      1 UNK         0.0000 
     12 O12        -1.8830   49.1797   25.0837 O.3       1 UNK         0.0000 
     13 N13        -0.5964   50.8651   21.7879 N.am      1 UNK         0.0000 
     14 C14        -0.5769   51.3820   20.5493 C.2       1 UNK         0.0000 
     15 O15        -1.5060   52.0382   20.0718 O.2       1 UNK         0.0000 
     16 C16         0.7331   51.1746   19.7668 C.3       1 UNK         0.0000 
     17 H17         1.2935   50.4146   20.3168 H         1 UNK         0.0000 
     18 C18         0.5000   50.6948   18.3175 C.3       1 UNK         0.0000 
     19 C19         1.8794   50.5531   17.6227 C.3       1 UNK         0.0000 
     20 C20         2.7236   51.8460   17.6962 C.3       1 UNK         0.0000 
     21 N21         2.9056   52.2369   19.1865 N.4       1 UNK         0.0000 
     22 C22         1.5050   52.5063   19.7990 C.3       1 UNK         0.0000 
     23 C23         3.8638   53.4563   19.2946 C.3       1 UNK         0.0000 
     24 C24         4.3088   53.7493   20.7203 C.2       1 UNK         0.0000 
     25 N25         3.7069   53.5065   21.8529 N.2       1 UNK         0.0000 
     26 C26         4.5203   54.0375   22.7462 C.2       1 UNK         0.0000 
     27 N27         5.6555   54.5004   22.2635 N.2       1 UNK         0.0000 
     28 O28         5.5052   54.3586   20.8851 O.3       1 UNK         0.0000 
     29 C29         4.1697   54.0961   24.2084 C.ar      1 UNK         0.0000 
     30 C30         5.1062   54.4968   25.1660 C.ar      1 UNK         0.0000 
     31 C31         4.7806   54.4846   26.5212 C.ar      1 UNK         0.0000 
     32 C32         3.5099   54.0728   26.9526 C.ar      1 UNK         0.0000 
     33 C33         2.5697   53.6959   25.9838 C.ar      1 UNK         0.0000 
     34 C34         2.8919   53.7067   24.6334 C.ar      1 UNK         0.0000 
     35 C35         3.1134   54.0250   28.4517 C.3       1 UNK         0.0000 
     36 C36         2.0302   55.0946   28.7320 C.3       1 UNK         0.0000 
     37 C37         4.3097   54.2870   29.4040 C.3       1 UNK         0.0000 
     38 C38         2.5516   52.6228   28.8122 C.3       1 UNK         0.0000 
     39 C39        -0.1995   50.2495   26.3437 C.3       1 UNK         0.0000 
     40 H40         1.2682   49.6470   23.9261 H         1 UNK         0.0000 
     41 H41         0.6717   48.2157   24.7461 H         1 UNK         0.0000 
     42 H42        -0.0218   48.6737   23.2130 H         1 UNK         0.0000 
     43 H43        -0.2065   51.9446   24.1721 H         1 UNK         0.0000 
     44 H44        -1.8248   51.7407   24.8046 H         1 UNK         0.0000 
     45 H45        -3.5365   50.2591   20.9267 H         1 UNK         0.0000 
     46 H46        -5.1211   48.3813   21.0371 H         1 UNK         0.0000 
     47 H47        -5.1642   46.8987   23.0192 H         1 UNK         0.0000 
     48 H48        -3.5979   47.3119   24.9003 H         1 UNK         0.0000 
     49 H49         0.2130   50.3482   22.0965 H         1 UNK         0.0000 
     50 H50        -0.0663   51.4275   17.7406 H         1 UNK         0.0000 
     51 H51         0.0195   49.7147   18.2872 H         1 UNK         0.0000 
     52 H52         1.7491   50.2608   16.5797 H         1 UNK         0.0000 
     53 H53         2.4374   49.7329   18.0820 H         1 UNK         0.0000 
     54 H54         2.2547   52.6857   17.1809 H         1 UNK         0.0000 
     55 H55         3.7196   51.6883   17.2792 H         1 UNK         0.0000 
     56 H56         1.6123   52.8701   20.8186 H         1 UNK         0.0000 
     57 H57         1.0466   53.2916   19.1920 H         1 UNK         0.0000 
     58 H58         3.3542   54.2970   18.8191 H         1 UNK         0.0000 
     59 H59         4.7271   53.1751   18.6854 H         1 UNK         0.0000 
     60 H60         6.0997   54.8001   24.8732 H         1 UNK         0.0000 
     61 H61         5.5399   54.7928   27.2236 H         1 UNK         0.0000 
     62 H62         1.5758   53.3889   26.2708 H         1 UNK         0.0000 
     63 H63         2.1425   53.3976   23.9200 H         1 UNK         0.0000 
     64 H64         1.7132   55.0853   29.7754 H         1 UNK         0.0000 
     65 H65         1.1353   54.9396   28.1276 H         1 UNK         0.0000 
     66 H66         2.3954   56.0985   28.5153 H         1 UNK         0.0000 
     67 H67         5.1106   53.5620   29.2487 H         1 UNK         0.0000 
     68 H68         4.7337   55.2834   29.2716 H         1 UNK         0.0000 
     69 H69         4.0167   54.2116   30.4510 H         1 UNK         0.0000 
     70 H70         3.2648   51.8317   28.5695 H         1 UNK         0.0000 
     71 H71         2.3242   52.5399   29.8764 H         1 UNK         0.0000 
     72 H72         1.6270   52.3943   28.2812 H         1 UNK         0.0000 
     73 H73         0.7034   50.8579   26.3438 H         1 UNK         0.0000 
     74 H74        -0.9645   50.7733   26.9161 H         1 UNK         0.0000 
     75 H75         0.0221   49.3290   26.8808 H         1 UNK         0.0000 
     76 H76         3.3593   51.4681   19.6660 H         1 UNK         0.0000 
@<TRIPOS>BOND
     1    1    2 1    
     2    1   40 1    
     3    1   41 1    
     4    1   42 1    
     5    2   12 1    
     6    2    3 1    
     7    2   39 1    
     8    3    4 1    
     9    3   43 1    
    10    3   44 1    
    11    4    5 1    
    12    4    6 1    
    13    4   13 1    
    14    6   11 ar   
    15    6    7 ar   
    16    7    8 ar   
    17    7   45 1    
    18    8    9 ar   
    19    8   46 1    
    20    9   10 ar   
    21    9   47 1    
    22   10   11 ar   
    23   10   48 1    
    24   11   12 1    
    25   13   14 am   BACKBONE|DICT|INTERRES
    26   13   49 1    
    27   14   15 2    
    28   14   16 1    
    29   16   17 1    
    30   16   22 1    
    31   16   18 1    
    32   18   19 1    
    33   18   50 1    
    34   18   51 1    
    35   19   20 1    
    36   19   52 1    
    37   19   53 1    
    38   20   21 1    
    39   20   54 1    
    40   20   55 1    
    41   21   22 1    
    42   21   23 1    
    43   21   76 1    
    44   22   56 1    
    45   22   57 1    
    46   23   24 1    
    47   23   58 1    
    48   23   59 1    
    49   24   28 1    
    50   24   25 2    
    51   25   26 1    
    52   26   27 2    
    53   26   29 1    
    54   27   28 1    
    55   29   34 ar   
    56   29   30 ar   
    57   30   31 ar   
    58   30   60 1    
    59   31   32 ar   
    60   31   61 1    
    61   32   33 ar   
    62   32   35 1    
    63   33   34 ar   
    64   33   62 1    
    65   34   63 1    
    66   35   36 1    
    67   35   37 1    
    68   35   38 1    
    69   36   64 1    
    70   36   65 1    
    71   36   66 1    
    72   37   67 1    
    73   37   68 1    
    74   37   69 1    
    75   38   70 1    
    76   38   71 1    
    77   38   72 1    
    78   39   73 1    
    79   39   74 1    
    80   39   75 1    
@<TRIPOS>SUBSTRUCTURE
     1 UNK         1 GROUP             0       ****    0 ROOT    
