@<TRIPOS>MOLECULE
ZINC57313078_3548
49   51    1
SMALL
USER_CHARGES


@<TRIPOS>ATOM
      1 C1          5.0070   56.4402   13.1151 C.3       1 UNK         0.0000 
      2 C2          5.9228   56.6017   14.3444 C.3       1 UNK         0.0000 
      3 C3          5.3394   56.0572   15.6582 C.2       1 UNK         0.0000 
      4 O4          4.1635   55.6968   15.7117 O.2       1 UNK         0.0000 
      5 N5          6.2069   56.0349   16.6913 N.am      1 UNK         0.0000 
      6 C6          5.9868   55.6100   17.9918 C.2       1 UNK         0.0000 
      7 N7          6.9414   55.7404   18.8672 N.2       1 UNK         0.0000 
      8 C8          6.5469   55.3155   20.0956 C.ar      1 UNK         0.0000 
      9 C9          7.3491   55.3446   21.2404 C.ar      1 UNK         0.0000 
     10 C10         6.8058   54.8965   22.4444 C.ar      1 UNK         0.0000 
     11 C11         5.4706   54.4635   22.5482 C.ar      1 UNK         0.0000 
     12 C12         4.6758   54.3959   21.3964 C.ar      1 UNK         0.0000 
     13 C13         5.2211   54.8230   20.1776 C.ar      1 UNK         0.0000 
     14 S14         4.4867   54.8987   18.5829 S.3       1 UNK         0.0000 
     15 N15         4.8087   54.0980   23.7505 N.pl3     1 UNK         0.0000 
     16 C16         4.9820   54.4099   25.0765 C.2       1 UNK         0.0000 
     17 S17         6.3043   55.2523   25.6835 S.2       1 UNK         0.0000 
     18 N18         3.9046   53.9742   25.8178 N.am      1 UNK         0.0000 
     19 C19         3.6014   54.0150   27.1499 C.2       1 UNK         0.0000 
     20 O20         4.3398   54.4956   28.0125 O.2       1 UNK         0.0000 
     21 C21         2.2696   53.3915   27.5576 C.ar      1 UNK         0.0000 
     22 C22         1.5809   52.5407   26.6718 C.ar      1 UNK         0.0000 
     23 C23         0.4293   51.8641   27.0587 C.ar      1 UNK         0.0000 
     24 C24        -0.0719   52.0212   28.3434 C.ar      1 UNK         0.0000 
     25 C25         0.5612   52.8807   29.2400 C.ar      1 UNK         0.0000 
     26 C26         1.7158   53.5844   28.8498 C.ar      1 UNK         0.0000 
     27 O27         2.2883   54.4336   29.7718 O.3       1 UNK         0.0000 
     28 C28         1.8556   55.7884   29.6654 C.3       1 UNK         0.0000 
     29 C29        -0.0032   53.0171   30.6466 C.3       1 UNK         0.0000 
     30 Br30       -0.4375   50.6932   25.8360 Br        1 UNK         0.0000 
     31 H31         5.4947   56.8429   12.2272 H         1 UNK         0.0000 
     32 H32         4.0697   56.9874   13.2337 H         1 UNK         0.0000 
     33 H33         4.7872   55.3912   12.9077 H         1 UNK         0.0000 
     34 H34         6.8753   56.1073   14.1477 H         1 UNK         0.0000 
     35 H35         6.1456   57.6604   14.4872 H         1 UNK         0.0000 
     36 H36         7.1300   56.3987   16.5195 H         1 UNK         0.0000 
     37 H37         8.3723   55.6915   21.1928 H         1 UNK         0.0000 
     38 H38         7.4848   54.8942   23.2814 H         1 UNK         0.0000 
     39 H39         3.6497   54.0566   21.4345 H         1 UNK         0.0000 
     40 H40         3.9616   53.5874   23.5562 H         1 UNK         0.0000 
     41 H41         3.1807   53.5406   25.2697 H         1 UNK         0.0000 
     42 H42         1.9417   52.3481   25.6731 H         1 UNK         0.0000 
     43 H43        -0.9511   51.4665   28.6403 H         1 UNK         0.0000 
     44 H44         2.3041   56.3794   30.4633 H         1 UNK         0.0000 
     45 H45         2.1464   56.2357   28.7135 H         1 UNK         0.0000 
     46 H46         0.7738   55.8740   29.7720 H         1 UNK         0.0000 
     47 H47        -0.7118   52.2206   30.8818 H         1 UNK         0.0000 
     48 H48         0.7961   52.9546   31.3847 H         1 UNK         0.0000 
     49 H49        -0.4954   53.9793   30.7725 H         1 UNK         0.0000 
@<TRIPOS>BOND
     1    1    2 1    
     2    1   31 1    
     3    1   32 1    
     4    1   33 1    
     5    2    3 1    
     6    2   34 1    
     7    2   35 1    
     8    3    4 2    
     9    3    5 am   BACKBONE|DICT|INTERRES
    10    5    6 am   BACKBONE|DICT|INTERRES
    11    5   36 1    
    12    6   14 1    
    13    6    7 2    
    14    7    8 1    
    15    8   13 ar   
    16    8    9 ar   
    17    9   10 ar   
    18    9   37 1    
    19   10   11 ar   
    20   10   38 1    
    21   11   12 ar   
    22   11   15 1    
    23   12   13 ar   
    24   12   39 1    
    25   13   14 1    
    26   15   16 1    
    27   15   40 1    
    28   16   17 2    
    29   16   18 am   BACKBONE|DICT|INTERRES
    30   18   19 am   BACKBONE|DICT|INTERRES
    31   18   41 1    
    32   19   20 2    
    33   19   21 1    
    34   21   26 ar   
    35   21   22 ar   
    36   22   23 ar   
    37   22   42 1    
    38   23   24 ar   
    39   23   30 1    
    40   24   25 ar   
    41   24   43 1    
    42   25   26 ar   
    43   25   29 1    
    44   26   27 1    
    45   27   28 1    
    46   28   44 1    
    47   28   45 1    
    48   28   46 1    
    49   29   47 1    
    50   29   48 1    
    51   29   49 1    
@<TRIPOS>SUBSTRUCTURE
     1 UNK         1 GROUP             0       ****    0 ROOT    
