ZINC33780517_5619
                    3D
 Schrodinger Suite 2024-2.
 69 73  0  0  1  0            999 V2000
    6.4101   53.4314   27.9439 C   0  0  0  0  0  0
    4.9689   54.0031   28.0154 C   0  0  0  0  0  0
    5.0082   55.0767   29.1169 C   0  0  0  0  0  0
    4.7331   54.6949   26.6468 C   0  0  0  0  0  0
    3.9326   52.8969   28.4791 C   0  0  0  0  0  0
    4.3122   52.1694   29.4042 O   0  0  0  0  0  0
    2.6148   52.8553   28.0942 N   0  0  0  0  0  0
    2.0505   53.5433   26.9225 C   0  0  0  0  0  0
    0.7445   52.8967   26.3993 C   0  0  0  0  0  0
    0.7009   51.4312   26.4887 N   0  0  0  0  0  0
    1.0526   50.9596   27.8408 C   0  0  0  0  0  0
    1.6616   51.9947   28.8198 C   0  0  0  0  0  0
    0.0372   50.6025   25.5729 C   0  0  0  0  0  0
    0.1285   49.2076   25.6812 C   0  0  0  0  0  0
   -0.4729   48.3630   24.7524 C   0  0  0  0  0  0
   -1.1846   48.9022   23.6749 C   0  0  0  0  0  0
   -1.2847   50.2864   23.5496 C   0  0  0  0  0  0
   -0.6886   51.1231   24.4893 C   0  0  0  0  0  0
   -1.7790   48.1338   22.6567 N   0  0  0  0  0  0
   -2.1589   46.8378   22.6818 C   0  0  0  0  0  0
   -2.0970   46.1070   23.6721 O   0  0  0  0  0  0
   -2.7398   46.3107   21.3615 C   0  0  0  0  0  0
   -2.9313   44.4962   21.2820 S   0  0  0  0  0  0
   -1.4513   44.1153   20.4148 C   0  0  0  0  0  0
   -0.4956   43.2965   20.7746 N   0  0  0  0  0  0
    0.3547   43.1959   19.6800 N   0  0  0  0  0  0
   -0.1618   43.9600   18.7442 C   0  0  0  0  0  0
   -1.3086   44.5705   19.1469 O   0  0  0  0  0  0
    0.3044   44.1416   17.3387 C   0  0  0  0  0  0
    1.2696   43.2873   16.8025 C   0  0  0  0  0  0
    1.6798   43.4071   15.4772 C   0  0  0  0  0  0
    1.1253   44.4099   14.6470 C   0  0  0  0  0  0
    1.5044   44.5475   13.2887 C   0  0  0  0  0  0
    0.9535   45.5567   12.5036 C   0  0  0  0  0  0
    0.0190   46.4372   13.0372 C   0  0  0  0  0  0
   -0.3856   46.3209   14.3659 C   0  0  0  0  0  0
    0.1543   45.3039   15.1916 C   0  0  0  0  0  0
   -0.2460   45.1483   16.5414 C   0  0  0  0  0  0
    7.1001   54.1105   27.4395 H   0  0  0  0  0  0
    6.4494   52.4966   27.3985 H   0  0  0  0  0  0
    6.8430   53.2966   28.9320 H   0  0  0  0  0  0
    4.1092   55.6967   29.1166 H   0  0  0  0  0  0
    5.0831   54.6469   30.1120 H   0  0  0  0  0  0
    5.9007   55.6963   28.9908 H   0  0  0  0  0  0
    3.8301   55.2964   26.6227 H   0  0  0  0  0  0
    5.5385   55.3917   26.4117 H   0  0  0  0  0  0
    4.7129   53.9781   25.8253 H   0  0  0  0  0  0
    1.8886   54.6026   27.1097 H   0  0  0  0  0  0
    2.7350   53.3894   26.0934 H   0  0  0  0  0  0
    0.5774   53.2485   25.3855 H   0  0  0  0  0  0
   -0.0840   53.2456   27.0189 H   0  0  0  0  0  0
    1.8399   50.2217   27.6813 H   0  0  0  0  0  0
    0.1738   50.5061   28.3004 H   0  0  0  0  0  0
    2.0655   51.5023   29.7055 H   0  0  0  0  0  0
    0.8596   52.6399   29.1818 H   0  0  0  0  0  0
    0.6790   48.7432   26.4841 H   0  0  0  0  0  0
   -0.3518   47.2986   24.8820 H   0  0  0  0  0  0
   -1.8241   50.7306   22.7250 H   0  0  0  0  0  0
   -0.8071   52.1838   24.3463 H   0  0  0  0  0  0
   -1.9889   48.6490   21.8170 H   0  0  0  0  0  0
   -3.7352   46.7422   21.2553 H   0  0  0  0  0  0
   -2.1533   46.6704   20.5156 H   0  0  0  0  0  0
    1.7028   42.5067   17.4115 H   0  0  0  0  0  0
    2.4181   42.7272   15.0744 H   0  0  0  0  0  0
    2.2310   43.8670   12.8650 H   0  0  0  0  0  0
    1.2534   45.6560   11.4705 H   0  0  0  0  0  0
   -0.3984   47.2163   12.4163 H   0  0  0  0  0  0
   -1.1166   47.0062   14.7711 H   0  0  0  0  0  0
   -0.9869   45.8247   16.9450 H   0  0  0  0  0  0
  1  2  1  0  0  0
  1 39  1  0  0  0
  1 40  1  0  0  0
  1 41  1  0  0  0
  2  3  1  0  0  0
  2  4  1  0  0  0
  2  5  1  0  0  0
  3 42  1  0  0  0
  3 43  1  0  0  0
  3 44  1  0  0  0
  4 45  1  0  0  0
  4 46  1  0  0  0
  4 47  1  0  0  0
  5  6  2  0  0  0
  5  7  1  0  0  0
  7 12  1  0  0  0
  7  8  1  0  0  0
  8  9  1  0  0  0
  8 48  1  0  0  0
  8 49  1  0  0  0
  9 10  1  0  0  0
  9 50  1  0  0  0
  9 51  1  0  0  0
 10 11  1  0  0  0
 10 13  1  0  0  0
 11 12  1  0  0  0
 11 52  1  0  0  0
 11 53  1  0  0  0
 12 54  1  0  0  0
 12 55  1  0  0  0
 13 18  2  0  0  0
 13 14  1  0  0  0
 14 15  2  0  0  0
 14 56  1  0  0  0
 15 16  1  0  0  0
 15 57  1  0  0  0
 16 17  2  0  0  0
 16 19  1  0  0  0
 17 18  1  0  0  0
 17 58  1  0  0  0
 18 59  1  0  0  0
 19 20  1  0  0  0
 19 60  1  0  0  0
 20 21  2  0  0  0
 20 22  1  0  0  0
 22 23  1  0  0  0
 22 61  1  0  0  0
 22 62  1  0  0  0
 23 24  1  0  0  0
 24 28  1  0  0  0
 24 25  2  0  0  0
 25 26  1  0  0  0
 26 27  2  0  0  0
 27 28  1  0  0  0
 27 29  1  0  0  0
 29 38  2  0  0  0
 29 30  1  0  0  0
 30 31  2  0  0  0
 30 63  1  0  0  0
 31 32  1  0  0  0
 31 64  1  0  0  0
 32 37  2  0  0  0
 32 33  1  0  0  0
 33 34  2  0  0  0
 33 65  1  0  0  0
 34 35  1  0  0  0
 34 66  1  0  0  0
 35 36  2  0  0  0
 35 67  1  0  0  0
 36 37  1  0  0  0
 36 68  1  0  0  0
 37 38  1  0  0  0
 38 69  1  0  0  0
M  END
> <i_i_glide_confnum>
78

> <i_i_glide_lignum>
5620

> <i_i_glide_posenum>
218

> <i_i_glide_rotatable_bonds>
9

> <i_m_Source_File_Index>
5813

> <b_m_subgroup_collapsed>
0

> <r_i_docking_score>
-4.06067

> <r_i_glide_ecoul>
-4.21212

> <r_i_glide_eff_state_penalty>
0

> <r_i_glide_einternal>
3.93761

> <r_i_glide_emodel>
-53.2034

> <r_i_glide_energy>
-40.203

> <r_i_glide_erotb>
0.587708

> <r_i_glide_esite>
-0.16033

> <r_i_glide_evdw>
-35.9909

> <r_i_glide_gscore>
-4.06067

> <r_i_glide_hbond>
0

> <r_i_glide_ligand_efficiency>
-0.10686

> <r_i_glide_ligand_efficiency_ln>
-0.8756

> <r_i_glide_ligand_efficiency_sa>
-0.35926

> <r_i_glide_lipo>
-1.48825

> <r_i_glide_metal>
0

> <r_i_glide_rewards>
-0.568435

> <s_i_glide_gridfile>
wee1_glide-grid

> <s_m_Source_File>
wee1_decoys_glide_SP.sdf

> <s_m_Source_Path>
/Users/zhangxujun/Desktop

> <s_m_entry_id>
6088

> <s_m_entry_name>
wee1_decoys_glide_SP.5813

> <s_m_subgroup_title>
wee1_decoys_glide_SP

> <s_m_subgroupid>
wee1_decoys_glide_SP


$$$$
