ZINC63361821_5468
                    3D
 Schrodinger Suite 2024-2.
 72 76  0  0  1  0            999 V2000
    6.5775   54.6455   26.3477 C   0  0  0  0  0  0
    6.7299   54.8368   24.8301 C   0  0  0  0  0  0
    5.4170   54.5725   24.0726 C   0  0  0  0  0  0
    5.5577   54.6597   22.5360 C   0  0  0  0  0  0
    4.2477   54.3590   21.7654 C   0  0  0  0  0  0
    3.7722   52.8894   21.8288 C   0  0  2  0  0  0
    3.7127   52.6201   22.8816 H   0  0  0  0  0  0
    4.7538   51.9255   21.1317 C   0  0  0  0  0  0
    2.4157   52.7414   21.2986 N   0  0  0  0  0  0
    1.6211   51.6817   21.5500 C   0  0  0  0  0  0
    1.9622   50.7470   22.2778 O   0  0  0  0  0  0
    0.2595   51.6945   20.8912 C   0  0  0  0  0  0
    0.1552   52.0967   19.5495 C   0  0  0  0  0  0
   -1.0729   52.0970   18.8907 C   0  0  0  0  0  0
   -2.2237   51.6966   19.5622 C   0  0  0  0  0  0
   -2.1457   51.2835   20.8900 C   0  0  0  0  0  0
   -0.9150   51.2660   21.5621 C   0  0  0  0  0  0
   -0.9067   50.7593   22.8819 N   0  0  0  0  0  0
   -0.8770   49.4329   23.1426 C   0  0  0  0  0  0
   -0.8569   48.4968   22.3380 O   0  0  0  0  0  0
   -0.9400   49.2881   24.6558 C   0  0  2  0  0  0
   -2.2727   48.6031   25.1900 C   0  0  1  0  0  0
   -2.0657   48.0077   26.0814 H   0  0  0  0  0  0
   -3.3516   49.6294   25.4848 C   0  0  0  0  0  0
   -4.4222   49.3911   24.7139 C   0  0  0  0  0  0
   -5.6703   50.1397   24.5195 C   0  0  0  0  0  0
   -6.6233   49.7028   23.6564 C   0  0  0  0  0  0
   -6.3459   48.4533   22.9561 C   0  0  0  0  0  0
   -5.1942   47.7515   23.1198 C   0  0  0  0  0  0
   -4.2061   48.2169   23.9916 C   0  0  0  0  0  0
   -3.0183   47.7182   24.2608 N   0  3  0  0  0  0
   -7.7959   50.3375   23.3765 O   0  0  0  0  0  0
   -8.0606   51.6098   23.9633 C   0  0  0  0  0  0
   -2.9629   50.7734   26.4082 C   0  0  0  0  0  0
   -1.4232   50.9964   26.3855 C   0  0  0  0  0  0
   -0.8752   50.6892   25.0498 N   0  0  0  0  0  0
   -0.9081   51.5373   24.0002 C   0  0  0  0  0  0
   -0.9498   52.7686   24.0525 O   0  0  0  0  0  0
    0.3044   48.4980   25.1219 C   0  0  0  0  0  0
    7.5048   54.8567   26.8774 H   0  0  0  0  0  0
    5.8098   55.3019   26.7572 H   0  0  0  0  0  0
    6.2948   53.6195   26.5870 H   0  0  0  0  0  0
    7.0803   55.8482   24.6190 H   0  0  0  0  0  0
    7.5043   54.1621   24.4622 H   0  0  0  0  0  0
    5.0519   53.5853   24.3544 H   0  0  0  0  0  0
    4.6620   55.2835   24.4126 H   0  0  0  0  0  0
    5.9055   55.6552   22.2583 H   0  0  0  0  0  0
    6.3517   53.9956   22.2038 H   0  0  0  0  0  0
    3.4610   55.0051   22.1574 H   0  0  0  0  0  0
    4.3677   54.6492   20.7204 H   0  0  0  0  0  0
    4.4237   50.8924   21.2025 H   0  0  0  0  0  0
    4.8779   52.1725   20.0762 H   0  0  0  0  0  0
    5.7403   51.9685   21.5873 H   0  0  0  0  0  0
    2.0379   53.5246   20.7785 H   0  0  0  0  0  0
    1.0334   52.4037   18.9966 H   0  0  0  0  0  0
   -1.1258   52.4008   17.8553 H   0  0  0  0  0  0
   -3.1735   51.6870   19.0472 H   0  0  0  0  0  0
   -3.0433   50.9486   21.3916 H   0  0  0  0  0  0
   -5.8262   51.0603   25.0600 H   0  0  0  0  0  0
   -7.0957   48.0747   22.2770 H   0  0  0  0  0  0
   -5.0591   46.8359   22.5625 H   0  0  0  0  0  0
   -9.0198   51.9765   23.6015 H   0  0  0  0  0  0
   -8.1200   51.5491   25.0511 H   0  0  0  0  0  0
   -7.3055   52.3458   23.6829 H   0  0  0  0  0  0
   -3.4801   51.6894   26.1226 H   0  0  0  0  0  0
   -3.2644   50.5349   27.4302 H   0  0  0  0  0  0
   -1.0868   51.9762   26.7281 H   0  0  0  0  0  0
   -0.9354   50.2986   27.0706 H   0  0  0  0  0  0
    1.2338   48.9326   24.7523 H   0  0  0  0  0  0
    0.3749   48.4967   26.2108 H   0  0  0  0  0  0
    0.2775   47.4580   24.7949 H   0  0  0  0  0  0
   -2.6153   46.8893   23.8358 H   0  0  0  0  0  0
  1  2  1  0  0  0
  1 40  1  0  0  0
  1 41  1  0  0  0
  1 42  1  0  0  0
  2  3  1  0  0  0
  2 43  1  0  0  0
  2 44  1  0  0  0
  3  4  1  0  0  0
  3 45  1  0  0  0
  3 46  1  0  0  0
  4  5  1  0  0  0
  4 47  1  0  0  0
  4 48  1  0  0  0
  5  6  1  0  0  0
  5 49  1  0  0  0
  5 50  1  0  0  0
  6  7  1  0  0  0
  6  8  1  0  0  0
  6  9  1  0  0  0
  8 51  1  0  0  0
  8 52  1  0  0  0
  8 53  1  0  0  0
  9 10  1  0  0  0
  9 54  1  0  0  0
 10 11  2  0  0  0
 10 12  1  0  0  0
 12 17  2  0  0  0
 12 13  1  0  0  0
 13 14  2  0  0  0
 13 55  1  0  0  0
 14 15  1  0  0  0
 14 56  1  0  0  0
 15 16  2  0  0  0
 15 57  1  0  0  0
 16 17  1  0  0  0
 16 58  1  0  0  0
 17 18  1  0  0  0
 18 37  1  0  0  0
 18 19  1  0  0  0
 19 20  2  0  0  0
 19 21  1  0  0  0
 21 36  1  0  0  0
 21 22  1  0  0  0
 21 39  1  0  0  0
 22 23  1  0  0  0
 22 31  1  0  0  0
 22 24  1  0  0  0
 24 25  2  0  0  0
 24 34  1  0  0  0
 25 30  1  0  0  0
 25 26  1  0  0  0
 26 27  2  0  0  0
 26 59  1  0  0  0
 27 28  1  0  0  0
 27 32  1  0  0  0
 28 29  2  0  0  0
 28 60  1  0  0  0
 29 30  1  0  0  0
 29 61  1  0  0  0
 30 31  2  0  0  0
 31 72  1  0  0  0
 32 33  1  0  0  0
 33 62  1  0  0  0
 33 63  1  0  0  0
 33 64  1  0  0  0
 34 35  1  0  0  0
 34 65  1  0  0  0
 34 66  1  0  0  0
 35 36  1  0  0  0
 35 67  1  0  0  0
 35 68  1  0  0  0
 36 37  1  0  0  0
 37 38  2  0  0  0
 39 69  1  0  0  0
 39 70  1  0  0  0
 39 71  1  0  0  0
M  CHG  1  31   1
M  END
> <i_i_glide_confnum>
94

> <i_i_glide_lignum>
5469

> <i_i_glide_posenum>
85

> <i_i_glide_rotatable_bonds>
9

> <i_m_Source_File_Index>
1859

> <b_m_subgroup_collapsed>
0

> <r_i_docking_score>
-3.67072

> <r_i_glide_ecoul>
-5.45542

> <r_i_glide_eff_state_penalty>
0

> <r_i_glide_einternal>
1.70359

> <r_i_glide_emodel>
-48.4175

> <r_i_glide_energy>
-39.6014

> <r_i_glide_erotb>
0.564169

> <r_i_glide_esite>
-0.0538533

> <r_i_glide_evdw>
-34.1459

> <r_i_glide_gscore>
-3.67072

> <r_i_glide_hbond>
-0.32

> <r_i_glide_ligand_efficiency>
-0.0992087

> <r_i_glide_ligand_efficiency_ln>
-0.796093

> <r_i_glide_ligand_efficiency_sa>
-0.330585

> <r_i_glide_lipo>
-1.23697

> <r_i_glide_metal>
0

> <r_i_glide_rewards>
-0.098455

> <s_i_glide_gridfile>
wee1_glide-grid

> <s_m_Source_File>
wee1_decoys_glide_SP.sdf

> <s_m_Source_Path>
/Users/zhangxujun/Desktop

> <s_m_entry_id>
2134

> <s_m_entry_name>
wee1_decoys_glide_SP.1859

> <s_m_subgroup_title>
wee1_decoys_glide_SP

> <s_m_subgroupid>
wee1_decoys_glide_SP


$$$$
