@<TRIPOS>MOLECULE
ZINC33436976_576
76   79    1
SMALL
USER_CHARGES


@<TRIPOS>ATOM
      1 C1          0.2677   52.3148   30.7454 C.3       1 UNK         0.0000 
      2 C2         -0.4654   52.0505   29.4309 C.2       1 UNK         0.0000 
      3 C3         -0.1183   52.4921   28.1969 C.2       1 UNK         0.0000 
      4 C4         -1.0057   52.1854   26.9580 C.3       1 UNK         0.0000 
      5 H5         -1.3531   53.1485   26.5834 H         1 UNK         0.0000 
      6 N6         -2.2615   51.4842   27.3629 N.pl3     1 UNK         0.0000 
      7 C7         -3.2489   51.3582   26.2669 C.3       1 UNK         0.0000 
      8 C8         -4.2808   50.2570   26.5683 C.3       1 UNK         0.0000 
      9 C9         -5.1059   50.5120   27.8311 C.3       1 UNK         0.0000 
     10 S10        -4.0304   50.4965   29.2777 S.3       1 UNK         0.0000 
     11 C11        -2.5354   51.1184   28.6313 C.2       1 UNK         0.0000 
     12 N12        -1.6034   51.2967   29.5693 N.pl3     1 UNK         0.0000 
     13 C13        -0.2999   51.4897   25.7842 C.ar      1 UNK         0.0000 
     14 C14         0.1699   50.1819   25.9295 C.ar      1 UNK         0.0000 
     15 C15         0.7037   49.5096   24.8328 C.ar      1 UNK         0.0000 
     16 C16         0.7507   50.1284   23.5816 C.ar      1 UNK         0.0000 
     17 C17         0.3182   51.4538   23.4453 C.ar      1 UNK         0.0000 
     18 C18        -0.2058   52.1302   24.5441 C.ar      1 UNK         0.0000 
     19 N19         1.2526   49.3795   22.5010 N.am      1 UNK         0.0000 
     20 C20         0.7643   49.3636   21.2404 C.2       1 UNK         0.0000 
     21 O21        -0.2184   50.0130   20.8780 O.2       1 UNK         0.0000 
     22 C22         1.4673   48.4106   20.2530 C.3       1 UNK         0.0000 
     23 C23         1.2352   48.6449   18.7315 C.3       1 UNK         0.0000 
     24 H24         0.1599   48.6018   18.5511 H         1 UNK         0.0000 
     25 C25         1.7291   50.0451   18.2978 C.3       1 UNK         0.0000 
     26 C26         1.9052   47.4895   17.9163 C.3       1 UNK         0.0000 
     27 C27         1.2806   47.0553   16.5516 C.3       1 UNK         0.0000 
     28 C28         2.2456   46.0534   15.8717 C.3       1 UNK         0.0000 
     29 C29         1.0688   48.2400   15.5847 C.3       1 UNK         0.0000 
     30 C30        -0.0783   46.3530   16.7809 C.3       1 UNK         0.0000 
     31 C31         1.0259   53.3822   28.0374 C.2       1 UNK         0.0000 
     32 O32         1.1886   54.3724   28.7546 O.2       1 UNK         0.0000 
     33 N33         1.8917   53.0078   27.0761 N.am      1 UNK         0.0000 
     34 C34         3.1245   53.6031   26.7761 C.ar      1 UNK         0.0000 
     35 C35         3.4721   53.7182   25.4290 C.ar      1 UNK         0.0000 
     36 C36         4.7115   54.2512   25.0779 C.ar      1 UNK         0.0000 
     37 C37         5.6095   54.6306   26.0750 C.ar      1 UNK         0.0000 
     38 C38         5.2770   54.4976   27.4218 C.ar      1 UNK         0.0000 
     39 C39         4.0285   53.9919   27.7753 C.ar      1 UNK         0.0000 
     40 H40         1.3370   52.1348   30.6356 H         1 UNK         0.0000 
     41 H41         0.1263   53.3504   31.0509 H         1 UNK         0.0000 
     42 H42        -0.0952   51.6969   31.5668 H         1 UNK         0.0000 
     43 H43        -3.7341   52.3279   26.1482 H         1 UNK         0.0000 
     44 H44        -2.7458   51.1260   25.3288 H         1 UNK         0.0000 
     45 H45        -4.9565   50.1628   25.7153 H         1 UNK         0.0000 
     46 H46        -3.7728   49.2905   26.6489 H         1 UNK         0.0000 
     47 H47        -5.6019   51.4835   27.7918 H         1 UNK         0.0000 
     48 H48        -5.8704   49.7469   27.9731 H         1 UNK         0.0000 
     49 H49         0.0893   49.6743   26.8821 H         1 UNK         0.0000 
     50 H50         1.0476   48.4945   24.9608 H         1 UNK         0.0000 
     51 H51         0.3708   51.9537   22.4898 H         1 UNK         0.0000 
     52 H52        -0.5638   53.1421   24.4157 H         1 UNK         0.0000 
     53 H53         1.9730   48.7108   22.7365 H         1 UNK         0.0000 
     54 H54         1.1395   47.3995   20.4817 H         1 UNK         0.0000 
     55 H55         2.5400   48.4321   20.4548 H         1 UNK         0.0000 
     56 H56         2.7671   50.1985   18.5830 H         1 UNK         0.0000 
     57 H57         1.6737   50.2118   17.2233 H         1 UNK         0.0000 
     58 H58         1.1442   50.8396   18.7633 H         1 UNK         0.0000 
     59 H59         1.9038   46.5913   18.5354 H         1 UNK         0.0000 
     60 H60         2.9695   47.6968   17.7974 H         1 UNK         0.0000 
     61 H61         1.8619   45.7125   14.9091 H         1 UNK         0.0000 
     62 H62         2.4113   45.1647   16.4807 H         1 UNK         0.0000 
     63 H63         3.2224   46.5062   15.6889 H         1 UNK         0.0000 
     64 H64         0.3161   48.9362   15.9556 H         1 UNK         0.0000 
     65 H65         1.9951   48.7938   15.4268 H         1 UNK         0.0000 
     66 H66         0.7249   47.9051   14.6041 H         1 UNK         0.0000 
     67 H67        -0.8182   47.0278   17.2077 H         1 UNK         0.0000 
     68 H68        -0.4940   45.9723   15.8471 H         1 UNK         0.0000 
     69 H69         0.0161   45.5045   17.4588 H         1 UNK         0.0000 
     70 H70         1.5757   52.2895   26.4389 H         1 UNK         0.0000 
     71 H71         2.7893   53.4008   24.6533 H         1 UNK         0.0000 
     72 H72         4.9844   54.3515   24.0367 H         1 UNK         0.0000 
     73 H73         6.5749   55.0260   25.7991 H         1 UNK         0.0000 
     74 H74         5.9807   54.7936   28.1884 H         1 UNK         0.0000 
     75 H75         3.7783   53.8825   28.8210 H         1 UNK         0.0000 
     76 H76        -1.7853   50.8402   30.4569 H         1 UNK         0.0000 
@<TRIPOS>BOND
     1    1    2 1    
     2    1   40 1    
     3    1   41 1    
     4    1   42 1    
     5    2   12 1    
     6    2    3 2    
     7    3    4 1    
     8    3   31 1    
     9    4    5 1    
    10    4    6 1    
    11    4   13 1    
    12    6   11 1    
    13    6    7 1    
    14    7    8 1    
    15    7   43 1    
    16    7   44 1    
    17    8    9 1    
    18    8   45 1    
    19    8   46 1    
    20    9   10 1    
    21    9   47 1    
    22    9   48 1    
    23   10   11 1    
    24   11   12 2    
    25   12   76 1    
    26   13   18 ar   
    27   13   14 ar   
    28   14   15 ar   
    29   14   49 1    
    30   15   16 ar   
    31   15   50 1    
    32   16   17 ar   
    33   16   19 1    
    34   17   18 ar   
    35   17   51 1    
    36   18   52 1    
    37   19   20 am   BACKBONE|DICT|INTERRES
    38   19   53 1    
    39   20   21 2    
    40   20   22 1    
    41   22   23 1    
    42   22   54 1    
    43   22   55 1    
    44   23   24 1    
    45   23   25 1    
    46   23   26 1    
    47   25   56 1    
    48   25   57 1    
    49   25   58 1    
    50   26   27 1    
    51   26   59 1    
    52   26   60 1    
    53   27   28 1    
    54   27   29 1    
    55   27   30 1    
    56   28   61 1    
    57   28   62 1    
    58   28   63 1    
    59   29   64 1    
    60   29   65 1    
    61   29   66 1    
    62   30   67 1    
    63   30   68 1    
    64   30   69 1    
    65   31   32 2    
    66   31   33 am   BACKBONE|DICT|INTERRES
    67   33   34 1    
    68   33   70 1    
    69   34   39 ar   
    70   34   35 ar   
    71   35   36 ar   
    72   35   71 1    
    73   36   37 ar   
    74   36   72 1    
    75   37   38 ar   
    76   37   73 1    
    77   38   39 ar   
    78   38   74 1    
    79   39   75 1    
@<TRIPOS>SUBSTRUCTURE
     1 UNK         1 GROUP             0       ****    0 ROOT    
