ZINC06131744_1979
                    3D
 Schrodinger Suite 2024-2.
 43 45  0  0  1  0            999 V2000
    9.5129   54.0053   17.2465 C   0  0  0  0  0  0
   10.3572   54.9234   16.6346 C   0  0  0  0  0  0
   10.3364   56.2573   17.0333 C   0  0  0  0  0  0
    9.4839   56.6951   18.0579 C   0  0  0  0  0  0
    8.6197   55.7586   18.6816 C   0  0  0  0  0  0
    8.6482   54.4249   18.2501 C   0  0  0  0  0  0
    7.6340   56.1475   19.7671 C   0  0  0  0  0  0
    7.0043   57.2091   19.6816 O   0  0  0  0  0  0
    7.5326   55.2980   20.8142 N   0  0  0  0  0  0
    6.5112   55.3546   21.7016 N   0  0  0  0  0  0
    6.7044   54.6849   22.7705 C   0  0  0  0  0  0
    5.6663   54.4967   23.8041 C   0  0  0  0  0  0
    4.3513   54.2619   23.3814 C   0  0  0  0  0  0
    3.3216   54.0928   24.2947 C   0  0  0  0  0  0
    3.5994   54.0978   25.6563 C   0  0  0  0  0  0
    4.9059   54.2917   26.1368 C   0  0  0  0  0  0
    5.9368   54.5347   25.1969 C   0  0  0  0  0  0
    5.1343   54.2236   27.6095 N   0  3  0  0  0  0
    4.1519   54.2566   28.3471 O   0  0  0  0  0  0
    6.2676   54.0969   28.0616 O   0  5  0  0  0  0
    1.7035   53.8606   23.7361 Cl  0  0  0  0  0  0
    9.4898   58.0384   18.4816 N   0  0  0  0  0  0
   10.5600   59.3259   17.9034 S   0  0  0  0  0  0
   10.3046   60.4945   18.7532 O   0  0  0  0  0  0
   11.9145   58.7927   17.7249 O   0  0  0  0  0  0
    9.8627   59.7211   16.2904 C   0  0  0  0  0  0
    8.6005   60.2608   16.0800 C   0  0  0  0  0  0
    8.3197   60.4634   14.7254 C   0  0  0  0  0  0
    9.3688   60.0733   13.9016 C   0  0  0  0  0  0
   10.7139   59.4500   14.8036 S   0  0  0  0  0  0
    9.5209   52.9717   16.9367 H   0  0  0  0  0  0
   11.0239   54.6063   15.8495 H   0  0  0  0  0  0
   10.9989   56.9358   16.5254 H   0  0  0  0  0  0
    7.9803   53.6966   18.6822 H   0  0  0  0  0  0
    8.2195   54.5758   20.9669 H   0  0  0  0  0  0
    7.6503   54.1982   22.9960 H   0  0  0  0  0  0
    4.1078   54.2347   22.3261 H   0  0  0  0  0  0
    2.7814   53.9324   26.3441 H   0  0  0  0  0  0
    8.7035   58.3307   19.0405 H   0  0  0  0  0  0
    7.9050   60.4968   16.8743 H   0  0  0  0  0  0
    7.3868   60.8755   14.3690 H   0  0  0  0  0  0
    9.4115   60.1197   12.8240 H   0  0  0  0  0  0
    7.1042   54.8600   25.5985 O   0  5  0  0  0  0
  1  6  2  0  0  0
  1  2  1  0  0  0
  1 31  1  0  0  0
  2  3  2  0  0  0
  2 32  1  0  0  0
  3  4  1  0  0  0
  3 33  1  0  0  0
  4  5  2  0  0  0
  4 22  1  0  0  0
  5  6  1  0  0  0
  5  7  1  0  0  0
  6 34  1  0  0  0
  7  8  2  0  0  0
  7  9  1  0  0  0
  9 10  1  0  0  0
  9 35  1  0  0  0
 10 11  2  0  0  0
 11 12  1  0  0  0
 11 36  1  0  0  0
 12 17  2  0  0  0
 12 13  1  0  0  0
 13 14  2  0  0  0
 13 37  1  0  0  0
 14 15  1  0  0  0
 14 21  1  0  0  0
 15 16  2  0  0  0
 15 38  1  0  0  0
 16 17  1  0  0  0
 16 18  1  0  0  0
 17 43  1  0  0  0
 18 19  2  0  0  0
 18 20  1  0  0  0
 22 23  1  0  0  0
 22 39  1  0  0  0
 23 24  2  0  0  0
 23 25  2  0  0  0
 23 26  1  0  0  0
 26 30  1  0  0  0
 26 27  2  0  0  0
 27 28  1  0  0  0
 27 40  1  0  0  0
 28 29  2  0  0  0
 28 41  1  0  0  0
 29 30  1  0  0  0
 29 42  1  0  0  0
M  CHG  3  18   1  20  -1  43  -1
M  END
> <i_i_glide_confnum>
212

> <i_i_glide_lignum>
1980

> <i_i_glide_posenum>
229

> <i_i_glide_rotatable_bonds>
8

> <i_m_Source_File_Index>
5001

> <b_m_subgroup_collapsed>
0

> <r_i_docking_score>
-5.59549

> <r_i_glide_ecoul>
-8.48356

> <r_i_glide_eff_state_penalty>
0

> <r_i_glide_einternal>
12.8409

> <r_i_glide_emodel>
-57.6043

> <r_i_glide_energy>
-45.1612

> <r_i_glide_erotb>
0.616265

> <r_i_glide_esite>
-0.117752

> <r_i_glide_evdw>
-36.6777

> <r_i_glide_gscore>
-5.59549

> <r_i_glide_hbond>
-0.517681

> <r_i_glide_ligand_efficiency>
-0.1805

> <r_i_glide_ligand_efficiency_ln>
-1.26195

> <r_i_glide_ligand_efficiency_sa>
-0.567018

> <r_i_glide_lipo>
-2.08166

> <r_i_glide_metal>
0

> <r_i_glide_rewards>
-0.388239

> <s_i_glide_gridfile>
wee1_glide-grid

> <s_m_Source_File>
wee1_decoys_glide_SP.sdf

> <s_m_Source_Path>
/Users/zhangxujun/Desktop

> <s_m_entry_id>
5276

> <s_m_entry_name>
wee1_decoys_glide_SP.5001

> <s_m_subgroup_title>
wee1_decoys_glide_SP

> <s_m_subgroupid>
wee1_decoys_glide_SP


$$$$
