@<TRIPOS>MOLECULE
ZINC47145955_3336
47   51    1
SMALL
USER_CHARGES


@<TRIPOS>ATOM
      1 C1         -4.0906   50.0966   29.9557 C.3       1 UNK         0.0000 
      2 O2         -5.1408   50.9384   29.4841 O.3       1 UNK         0.0000 
      3 C3         -5.2318   51.2101   28.1285 C.ar      1 UNK         0.0000 
      4 C4         -4.4159   50.6052   27.1564 C.ar      1 UNK         0.0000 
      5 C5         -4.4933   50.9748   25.8060 C.ar      1 UNK         0.0000 
      6 C6         -5.4412   51.9265   25.4179 C.ar      1 UNK         0.0000 
      7 C7         -6.2886   52.5023   26.3618 C.ar      1 UNK         0.0000 
      8 C8         -6.1826   52.1527   27.7085 C.ar      1 UNK         0.0000 
      9 O9         -7.0109   52.7686   28.6142 O.3       1 UNK         0.0000 
     10 C10        -3.5378   50.3603   24.7667 C.3       1 UNK         0.0000 
     11 H11        -4.0235   50.5694   23.8116 H         1 UNK         0.0000 
     12 C12        -3.5116   48.8345   24.7967 C.2       1 UNK         0.0000 
     13 C13        -2.4677   48.0150   24.6080 C.2       1 UNK         0.0000 
     14 N14        -2.6814   46.6456   24.6181 N.2       1 UNK         0.0000 
     15 C15        -3.9543   46.3263   24.8233 C.2       1 UNK         0.0000 
     16 O16        -4.4956   45.2244   24.8859 O.2       1 UNK         0.0000 
     17 S17        -4.9483   47.8408   25.0063 S.3       1 UNK         0.0000 
     18 S18        -0.7943   48.5155   24.2833 S.3       1 UNK         0.0000 
     19 C19        -1.0221   50.2996   23.9441 C.3       1 UNK         0.0000 
     20 H20        -1.1106   50.4151   22.8633 H         1 UNK         0.0000 
     21 C21        -2.1230   51.0379   24.6656 C.3       1 UNK         0.0000 
     22 H22        -2.3442   51.9535   24.1107 H         1 UNK         0.0000 
     23 C23        -1.4135   51.6094   25.8946 C.2       1 UNK         0.0000 
     24 O24        -1.9622   52.0969   26.8819 O.2       1 UNK         0.0000 
     25 N25        -0.0734   51.5665   25.6564 N.am      1 UNK         0.0000 
     26 C26         0.2308   50.9880   24.4602 C.2       1 UNK         0.0000 
     27 O27         1.3257   50.9500   23.8962 O.2       1 UNK         0.0000 
     28 C28         0.8843   52.0968   26.5546 C.ar      1 UNK         0.0000 
     29 C29         0.8734   51.6963   27.8969 C.ar      1 UNK         0.0000 
     30 C30         1.8026   52.2149   28.7906 C.ar      1 UNK         0.0000 
     31 C31         2.7657   53.1385   28.3610 C.ar      1 UNK         0.0000 
     32 C32         2.7725   53.5391   27.0174 C.ar      1 UNK         0.0000 
     33 C33         1.8408   53.0235   26.1206 C.ar      1 UNK         0.0000 
     34 N34         3.7623   53.6799   29.3153 N.pl3     1 UNK         0.0000 
     35 O35         3.7200   53.2964   30.4817 O.co2     1 UNK         0.0000 
     36 O36         4.5847   54.4965   28.9111 O.co2     1 UNK         0.0000 
     37 H37        -4.1781   49.0817   29.5647 H         1 UNK         0.0000 
     38 H38        -3.1098   50.4960   29.6906 H         1 UNK         0.0000 
     39 H39        -4.1336   50.0348   31.0432 H         1 UNK         0.0000 
     40 H40        -3.6731   49.8725   27.4399 H         1 UNK         0.0000 
     41 H41        -5.5277   52.2233   24.3827 H         1 UNK         0.0000 
     42 H42        -7.0169   53.2322   26.0418 H         1 UNK         0.0000 
     43 H43        -7.6833   53.3073   28.1949 H         1 UNK         0.0000 
     44 H44         0.1417   50.9803   28.2498 H         1 UNK         0.0000 
     45 H45         1.7626   51.8916   29.8207 H         1 UNK         0.0000 
     46 H46         3.5048   54.2479   26.6576 H         1 UNK         0.0000 
     47 H47         1.8664   53.3439   25.0886 H         1 UNK         0.0000 
@<TRIPOS>BOND
     1    1    2 1    
     2    1   37 1    
     3    1   38 1    
     4    1   39 1    
     5    2    3 1    
     6    3    8 ar   
     7    3    4 ar   
     8    4    5 ar   
     9    4   40 1    
    10    5    6 ar   
    11    5   10 1    
    12    6    7 ar   
    13    6   41 1    
    14    7    8 ar   
    15    7   42 1    
    16    8    9 1    
    17    9   43 1    
    18   10   11 1    
    19   10   21 1    
    20   10   12 1    
    21   12   17 1    
    22   12   13 2    
    23   13   14 1    
    24   13   18 1    
    25   14   15 1    
    26   15   16 2    
    27   15   17 1    
    28   18   19 1    
    29   19   20 1    
    30   19   26 1    
    31   19   21 1    
    32   21   22 1    
    33   21   23 1    
    34   23   24 2    
    35   23   25 am   BACKBONE|DICT|INTERRES
    36   25   26 am   BACKBONE|DICT|INTERRES
    37   25   28 1    
    38   26   27 2    
    39   28   33 ar   
    40   28   29 ar   
    41   29   30 ar   
    42   29   44 1    
    43   30   31 ar   
    44   30   45 1    
    45   31   32 ar   
    46   31   34 1    
    47   32   33 ar   
    48   32   46 1    
    49   33   47 1    
    50   34   35 2    
    51   34   36 1    
@<TRIPOS>SUBSTRUCTURE
     1 UNK         1 GROUP             0       ****    0 ROOT    
