@<TRIPOS>MOLECULE
ZINC38651538_5212
44   47    1
SMALL
USER_CHARGES


@<TRIPOS>ATOM
      1 C1          3.0205   54.6868   29.4091 C.ar      1 UNK         0.0000 
      2 C2          2.0935   54.1576   28.5153 C.ar      1 UNK         0.0000 
      3 C3          2.5167   53.4767   27.3658 C.ar      1 UNK         0.0000 
      4 C4          3.8928   53.3658   27.1230 C.ar      1 UNK         0.0000 
      5 C5          4.8231   53.8737   28.0278 C.ar      1 UNK         0.0000 
      6 C6          4.3864   54.5259   29.1776 C.ar      1 UNK         0.0000 
      7 Br7         6.6863   53.6968   27.6813 Br        1 UNK         0.0000 
      8 C8          1.4684   52.9447   26.3744 C.3       1 UNK         0.0000 
      9 H9          0.7045   53.6967   26.4245 H         1 UNK         0.0000 
     10 C10         1.8500   52.9315   24.8888 C.ar      1 UNK         0.0000 
     11 C11         2.5087   54.0100   24.2859 C.ar      1 UNK         0.0000 
     12 C12         2.8493   53.9793   22.9385 C.ar      1 UNK         0.0000 
     13 C13         2.5594   52.8538   22.1556 C.ar      1 UNK         0.0000 
     14 C14         1.8628   51.7898   22.7329 C.ar      1 UNK         0.0000 
     15 C15         1.5041   51.8318   24.0813 C.ar      1 UNK         0.0000 
     16 O16         0.7917   50.7490   24.5673 O.3       1 UNK         0.0000 
     17 C17         0.3962   50.7356   25.8684 C.2       1 UNK         0.0000 
     18 C18         0.6949   51.6909   26.7746 C.2       1 UNK         0.0000 
     19 C19         0.1872   51.6331   28.1075 C.1       1 UNK         0.0000 
     20 N20        -0.2172   51.6967   29.1889 N.1       1 UNK         0.0000 
     21 N21        -0.2987   49.5762   26.0817 N.pl3     1 UNK         0.0000 
     22 O22         2.8909   52.7824   20.8169 O.3       1 UNK         0.0000 
     23 C23         4.1407   53.1324   20.3661 C.2       1 UNK         0.0000 
     24 O24         5.1044   53.3539   21.1069 O.2       1 UNK         0.0000 
     25 C25         4.2184   53.2458   18.8742 C.ar      1 UNK         0.0000 
     26 C26         3.1412   52.8966   18.0416 C.ar      1 UNK         0.0000 
     27 C27         3.2556   52.9903   16.6543 C.ar      1 UNK         0.0000 
     28 C28         4.4451   53.4333   16.0789 C.ar      1 UNK         0.0000 
     29 C29         5.5204   53.7876   16.8920 C.ar      1 UNK         0.0000 
     30 C30         5.4070   53.6968   18.2790 C.ar      1 UNK         0.0000 
     31 Cl31        6.9958   54.3340   16.1824 Cl        1 UNK         0.0000 
     32 H32         2.6715   55.2303   30.2736 H         1 UNK         0.0000 
     33 H33         1.0393   54.2884   28.7159 H         1 UNK         0.0000 
     34 H34         4.2547   52.8967   26.2230 H         1 UNK         0.0000 
     35 H35         5.1096   54.9328   29.8684 H         1 UNK         0.0000 
     36 H36         2.7606   54.8880   24.8639 H         1 UNK         0.0000 
     37 H37         3.3513   54.8306   22.5025 H         1 UNK         0.0000 
     38 H38         1.6016   50.9291   22.1348 H         1 UNK         0.0000 
     39 H39        -0.7198   49.3642   26.9859 H         1 UNK         0.0000 
     40 H40        -0.1406   48.7853   25.4759 H         1 UNK         0.0000 
     41 H41         2.2090   52.5390   18.4552 H         1 UNK         0.0000 
     42 H42         2.4245   52.7067   16.0258 H         1 UNK         0.0000 
     43 H43         4.5355   53.4966   15.0047 H         1 UNK         0.0000 
     44 H44         6.2593   53.9664   18.8868 H         1 UNK         0.0000 
@<TRIPOS>BOND
     1    1    6 ar   
     2    1    2 ar   
     3    1   32 1    
     4    2    3 ar   
     5    2   33 1    
     6    3    4 ar   
     7    3    8 1    
     8    4    5 ar   
     9    4   34 1    
    10    5    6 ar   
    11    5    7 1    
    12    6   35 1    
    13    8    9 1    
    14    8   18 1    
    15    8   10 1    
    16   10   15 ar   
    17   10   11 ar   
    18   11   12 ar   
    19   11   36 1    
    20   12   13 ar   
    21   12   37 1    
    22   13   14 ar   
    23   13   22 1    
    24   14   15 ar   
    25   14   38 1    
    26   15   16 1    
    27   16   17 1    
    28   17   18 2    
    29   17   21 1    
    30   18   19 1    
    31   19   20 3    
    32   21   39 1    
    33   21   40 1    
    34   22   23 1    
    35   23   24 2    
    36   23   25 1    
    37   25   30 ar   
    38   25   26 ar   
    39   26   27 ar   
    40   26   41 1    
    41   27   28 ar   
    42   27   42 1    
    43   28   29 ar   
    44   28   43 1    
    45   29   30 ar   
    46   29   31 1    
    47   30   44 1    
@<TRIPOS>SUBSTRUCTURE
     1 UNK         1 GROUP             0       ****    0 ROOT    
