@<TRIPOS>MOLECULE
ZINC11328334_3371
56   59    1
SMALL
USER_CHARGES


@<TRIPOS>ATOM
      1 C1          0.3043   53.7271   31.0481 C.ar      1 UNK         0.0000 
      2 C2          0.9431   54.8269   30.4818 C.ar      1 UNK         0.0000 
      3 C3          1.4870   54.7273   29.2064 C.ar      1 UNK         0.0000 
      4 C4          1.3829   53.5337   28.4680 C.ar      1 UNK         0.0000 
      5 C5          0.7110   52.4513   29.0491 C.ar      1 UNK         0.0000 
      6 C6          0.1800   52.5395   30.3333 C.ar      1 UNK         0.0000 
      7 N7          1.8591   53.3883   27.1577 N.2       1 UNK         0.0000 
      8 N8          2.8786   54.0969   26.8727 N.2       1 UNK         0.0000 
      9 C9          3.2778   54.0546   25.5268 C.ar      1 UNK         0.0000 
     10 C10         4.5874   54.4398   25.2206 C.ar      1 UNK         0.0000 
     11 C11         5.0517   54.4500   23.9065 C.ar      1 UNK         0.0000 
     12 C12         4.1843   54.0969   22.8647 C.ar      1 UNK         0.0000 
     13 C13         2.8777   53.7091   23.1486 C.ar      1 UNK         0.0000 
     14 C14         2.4298   53.6927   24.4634 C.ar      1 UNK         0.0000 
     15 N15         4.5460   54.0706   21.5124 N.am      1 UNK         0.0000 
     16 C16         5.5073   54.7622   20.8640 C.2       1 UNK         0.0000 
     17 O17         6.3027   55.5414   21.3953 O.2       1 UNK         0.0000 
     18 C18         5.5936   54.4733   19.3841 C.ar      1 UNK         0.0000 
     19 C19         6.8178   54.5981   18.7112 C.ar      1 UNK         0.0000 
     20 C20         6.9212   54.2686   17.3591 C.ar      1 UNK         0.0000 
     21 C21         5.8051   53.8085   16.6618 C.ar      1 UNK         0.0000 
     22 C22         4.5750   53.6968   17.3133 C.ar      1 UNK         0.0000 
     23 C23         4.4689   54.0493   18.6581 C.ar      1 UNK         0.0000 
     24 S24         3.1387   53.0484   16.4690 S.o2      1 UNK         0.0000 
     25 O25         3.5708   52.5964   15.1422 O.2       1 UNK         0.0000 
     26 O26         2.0831   54.0561   16.6173 O.2       1 UNK         0.0000 
     27 N27         2.7044   51.6175   17.4035 N.pl3     1 UNK         0.0000 
     28 C28         1.3300   51.3972   17.9030 C.3       1 UNK         0.0000 
     29 H29         0.7129   51.2536   17.0137 H         1 UNK         0.0000 
     30 C30         1.3492   50.0761   18.7070 C.3       1 UNK         0.0000 
     31 C31         0.0316   49.9542   19.4913 C.3       1 UNK         0.0000 
     32 S32        -0.3579   51.6969   20.0502 S.o2      1 UNK         0.0000 
     33 O33         0.1240   51.9237   21.4156 O.2       1 UNK         0.0000 
     34 O34        -1.7384   52.0361   19.6857 O.2       1 UNK         0.0000 
     35 C35         0.8318   52.4969   18.8556 C.3       1 UNK         0.0000 
     36 H36        -0.1070   53.7923   32.0453 H         1 UNK         0.0000 
     37 H37         1.0255   55.7515   31.0352 H         1 UNK         0.0000 
     38 H38         1.9746   55.5926   28.7806 H         1 UNK         0.0000 
     39 H39         0.5957   51.5279   28.4984 H         1 UNK         0.0000 
     40 H40        -0.3370   51.6967   30.7743 H         1 UNK         0.0000 
     41 H41         5.2598   54.7249   26.0169 H         1 UNK         0.0000 
     42 H42         6.0763   54.7315   23.7140 H         1 UNK         0.0000 
     43 H43         2.1939   53.4324   22.3583 H         1 UNK         0.0000 
     44 H44         1.4062   53.4035   24.6507 H         1 UNK         0.0000 
     45 H45         3.9666   53.4835   20.9355 H         1 UNK         0.0000 
     46 H46         7.7035   54.9292   19.2358 H         1 UNK         0.0000 
     47 H47         7.8733   54.3529   16.8558 H         1 UNK         0.0000 
     48 H48         5.9020   53.5303   15.6221 H         1 UNK         0.0000 
     49 H49         3.5018   53.9730   19.1315 H         1 UNK         0.0000 
     50 H50         3.1649   50.7625   17.0533 H         1 UNK         0.0000 
     51 H51         2.1874   50.0724   19.4073 H         1 UNK         0.0000 
     52 H52         1.4884   49.2168   18.0477 H         1 UNK         0.0000 
     53 H53        -0.0057   49.2597   20.3293 H         1 UNK         0.0000 
     54 H54        -0.7477   49.6709   18.7851 H         1 UNK         0.0000 
     55 H55         0.4800   53.4438   18.4503 H         1 UNK         0.0000 
     56 H56         1.6787   52.7672   19.4817 H         1 UNK         0.0000 
@<TRIPOS>BOND
     1    1    6 ar   
     2    1    2 ar   
     3    1   36 1    
     4    2    3 ar   
     5    2   37 1    
     6    3    4 ar   
     7    3   38 1    
     8    4    5 ar   
     9    4    7 1    
    10    5    6 ar   
    11    5   39 1    
    12    6   40 1    
    13    7    8 2    
    14    8    9 1    
    15    9   14 ar   
    16    9   10 ar   
    17   10   11 ar   
    18   10   41 1    
    19   11   12 ar   
    20   11   42 1    
    21   12   13 ar   
    22   12   15 1    
    23   13   14 ar   
    24   13   43 1    
    25   14   44 1    
    26   15   16 am   BACKBONE|DICT|INTERRES
    27   15   45 1    
    28   16   17 2    
    29   16   18 1    
    30   18   23 ar   
    31   18   19 ar   
    32   19   20 ar   
    33   19   46 1    
    34   20   21 ar   
    35   20   47 1    
    36   21   22 ar   
    37   21   48 1    
    38   22   23 ar   
    39   22   24 1    
    40   23   49 1    
    41   24   25 2    
    42   24   26 2    
    43   24   27 1    
    44   27   28 1    
    45   27   50 1    
    46   28   29 1    
    47   28   35 1    
    48   28   30 1    
    49   30   31 1    
    50   30   51 1    
    51   30   52 1    
    52   31   32 1    
    53   31   53 1    
    54   31   54 1    
    55   32   33 2    
    56   32   34 2    
    57   32   35 1    
    58   35   55 1    
    59   35   56 1    
@<TRIPOS>SUBSTRUCTURE
     1 UNK         1 GROUP             0       ****    0 ROOT    
