@<TRIPOS>MOLECULE
ZINC12850555_1062
61   64    1
SMALL
USER_CHARGES


@<TRIPOS>ATOM
      1 C1         -0.1528   44.3944   12.9349 C.3       1 UNK         0.0000 
      2 C2          1.0390   45.2832   12.5425 C.3       1 UNK         0.0000 
      3 C3          0.9567   46.6829   13.1524 C.2       1 UNK         0.0000 
      4 C4          0.5002   47.7588   12.3733 C.2       1 UNK         0.0000 
      5 S5          0.4975   49.2321   13.2640 S.3       1 UNK         0.0000 
      6 C6          1.0823   48.4394   14.6902 C.2       1 UNK         0.0000 
      7 C7          1.3026   47.0565   14.5016 C.2       1 UNK         0.0000 
      8 C8          1.8114   46.1734   15.5875 C.2       1 UNK         0.0000 
      9 O9          2.0024   46.5545   16.7457 O.2       1 UNK         0.0000 
     10 O10         2.0391   44.9102   15.1795 O.3       1 UNK         0.0000 
     11 C11         2.5319   43.9276   16.0811 C.3       1 UNK         0.0000 
     12 N12         1.3154   49.1449   15.8717 N.am      1 UNK         0.0000 
     13 C13         1.1415   50.4552   16.1608 C.2       1 UNK         0.0000 
     14 O14         0.7129   51.3163   15.3869 O.2       1 UNK         0.0000 
     15 C15         1.5235   50.8078   17.5141 C.ar      1 UNK         0.0000 
     16 C16         1.9159   52.0914   17.9310 C.ar      1 UNK         0.0000 
     17 C17         2.1942   52.0002   19.2807 C.ar      1 UNK         0.0000 
     18 N18         1.9285   50.6851   19.6125 N.pl3     1 UNK         0.0000 
     19 N19         1.5043   49.9856   18.5497 N.2       1 UNK         0.0000 
     20 C20         1.9365   50.1072   20.9562 C.3       1 UNK         0.0000 
     21 H21         2.3734   49.1092   20.8798 H         1 UNK         0.0000 
     22 C22         2.8599   51.0001   21.8210 C.3       1 UNK         0.0000 
     23 C23         2.6597   52.5268   21.6228 C.3       1 UNK         0.0000 
     24 H24         1.6654   52.8087   21.9706 H         1 UNK         0.0000 
     25 N25         2.7044   52.8960   20.2018 N.pl3     1 UNK         0.0000 
     26 C26         3.6349   53.2991   22.5132 C.ar      1 UNK         0.0000 
     27 C27         4.9536   53.5365   22.1055 C.ar      1 UNK         0.0000 
     28 C28         5.8673   54.1097   22.9895 C.ar      1 UNK         0.0000 
     29 C29         5.4842   54.4460   24.2876 C.ar      1 UNK         0.0000 
     30 C30         4.1470   54.2622   24.6744 C.ar      1 UNK         0.0000 
     31 C31         3.2305   53.6974   23.7909 C.ar      1 UNK         0.0000 
     32 O32         6.4719   54.9322   25.1232 O.3       1 UNK         0.0000 
     33 C33         6.2126   54.9866   26.5220 C.3       1 UNK         0.0000 
     34 C34         0.5140   49.9266   21.5519 C.3       1 UNK         0.0000 
     35 F35        -0.2246   49.0896   20.8226 F         1 UNK         0.0000 
     36 F36         0.5742   49.4162   22.7818 F         1 UNK         0.0000 
     37 F37        -0.1485   51.0805   21.6368 F         1 UNK         0.0000 
     38 C38         0.0439   47.7791   10.9290 C.3       1 UNK         0.0000 
     39 H39        -0.0687   43.4055   12.4789 H         1 UNK         0.0000 
     40 H40        -0.2185   44.2556   14.0145 H         1 UNK         0.0000 
     41 H41        -1.0958   44.8328   12.6063 H         1 UNK         0.0000 
     42 H42         1.0728   45.3371   11.4536 H         1 UNK         0.0000 
     43 H43         1.9806   44.7899   12.7754 H         1 UNK         0.0000 
     44 H44         2.6400   42.9730   15.5641 H         1 UNK         0.0000 
     45 H45         1.8463   43.7842   16.9143 H         1 UNK         0.0000 
     46 H46         3.5042   44.2107   16.4795 H         1 UNK         0.0000 
     47 H47         1.7293   48.5882   16.6107 H         1 UNK         0.0000 
     48 H48         2.0216   52.9678   17.3097 H         1 UNK         0.0000 
     49 H49         2.7053   50.7505   22.8714 H         1 UNK         0.0000 
     50 H50         3.9000   50.7335   21.6247 H         1 UNK         0.0000 
     51 H51         2.4438   53.8736   20.0863 H         1 UNK         0.0000 
     52 H52         5.2771   53.2357   21.1204 H         1 UNK         0.0000 
     53 H53         6.8926   54.2559   22.6815 H         1 UNK         0.0000 
     54 H54         3.8067   54.5249   25.6633 H         1 UNK         0.0000 
     55 H55         2.2148   53.5242   24.1204 H         1 UNK         0.0000 
     56 H56         7.1060   55.3139   27.0542 H         1 UNK         0.0000 
     57 H57         5.4164   55.6962   26.7502 H         1 UNK         0.0000 
     58 H58         5.9379   54.0056   26.9193 H         1 UNK         0.0000 
     59 H59        -0.5150   46.8809   10.6591 H         1 UNK         0.0000 
     60 H60        -0.6120   48.6237   10.7125 H         1 UNK         0.0000 
     61 H61         0.8909   47.8508   10.2425 H         1 UNK         0.0000 
@<TRIPOS>BOND
     1    1    2 1    
     2    1   39 1    
     3    1   40 1    
     4    1   41 1    
     5    2    3 1    
     6    2   42 1    
     7    2   43 1    
     8    3    7 1    
     9    3    4 2    
    10    4    5 1    
    11    4   38 1    
    12    5    6 1    
    13    6    7 2    
    14    6   12 am   BACKBONE|DICT|INTERRES
    15    7    8 1    
    16    8    9 2    
    17    8   10 1    
    18   10   11 1    
    19   11   44 1    
    20   11   45 1    
    21   11   46 1    
    22   12   13 am   BACKBONE|DICT|INTERRES
    23   12   47 1    
    24   13   14 2    
    25   13   15 1    
    26   15   19 ar   
    27   15   16 ar   
    28   16   17 ar   
    29   16   48 1    
    30   17   25 1    
    31   17   18 ar   
    32   18   19 ar   
    33   18   20 1    
    34   20   21 1    
    35   20   22 1    
    36   20   34 1    
    37   22   23 1    
    38   22   49 1    
    39   22   50 1    
    40   23   24 1    
    41   23   25 1    
    42   23   26 1    
    43   25   51 1    
    44   26   31 ar   
    45   26   27 ar   
    46   27   28 ar   
    47   27   52 1    
    48   28   29 ar   
    49   28   53 1    
    50   29   30 ar   
    51   29   32 1    
    52   30   31 ar   
    53   30   54 1    
    54   31   55 1    
    55   32   33 1    
    56   33   56 1    
    57   33   57 1    
    58   33   58 1    
    59   34   35 1    
    60   34   36 1    
    61   34   37 1    
    62   38   59 1    
    63   38   60 1    
    64   38   61 1    
@<TRIPOS>SUBSTRUCTURE
     1 UNK         1 GROUP             0       ****    0 ROOT    
