@<TRIPOS>MOLECULE
ZINC13592431_5578
63   67    1
SMALL
USER_CHARGES


@<TRIPOS>ATOM
      1 C1          2.1953   59.6044   14.8435 C.3       1 UNK         0.0000 
      2 C2          2.9145   58.2656   14.6293 C.3       1 UNK         0.0000 
      3 C3          2.0390   57.0380   14.9607 C.3       1 UNK         0.0000 
      4 H4          1.0719   57.2037   14.4815 H         1 UNK         0.0000 
      5 C5          1.7204   56.8178   16.4590 C.3       1 UNK         0.0000 
      6 C6          0.7777   55.5990   16.6322 C.3       1 UNK         0.0000 
      7 C7          1.2228   54.3415   15.8438 C.3       1 UNK         0.0000 
      8 C8          1.6054   54.6861   14.3904 C.3       1 UNK         0.0000 
      9 N9          2.5990   55.7886   14.3504 N.pl3     1 UNK         0.0000 
     10 S10         4.3317   55.3323   14.5139 S.o2      1 UNK         0.0000 
     11 O11         5.1368   56.3946   13.8976 O.2       1 UNK         0.0000 
     12 O12         4.4738   53.9534   14.0302 O.2       1 UNK         0.0000 
     13 C13         4.7774   55.3088   16.2557 C.ar      1 UNK         0.0000 
     14 C14         5.3225   56.4508   16.8450 C.ar      1 UNK         0.0000 
     15 C15         5.6795   56.4380   18.1875 C.ar      1 UNK         0.0000 
     16 C16         5.5115   55.2803   18.9557 C.ar      1 UNK         0.0000 
     17 C17         4.9988   54.1234   18.3500 C.ar      1 UNK         0.0000 
     18 C18         4.6397   54.1374   17.0044 C.ar      1 UNK         0.0000 
     19 C19         5.9088   55.3021   20.4101 C.2       1 UNK         0.0000 
     20 O20         6.8574   56.0027   20.7721 O.2       1 UNK         0.0000 
     21 N21         5.1066   54.5920   21.2379 N.am      1 UNK         0.0000 
     22 C22         5.2395   54.4644   22.6162 C.2       1 UNK         0.0000 
     23 N23         4.2308   54.0964   23.3684 N.2       1 UNK         0.0000 
     24 C24         4.5311   54.1034   24.6581 C.2       1 UNK         0.0000 
     25 C25         5.8446   54.4662   24.9557 C.2       1 UNK         0.0000 
     26 S26         6.7041   54.8047   23.4961 S.3       1 UNK         0.0000 
     27 C27         3.5475   53.7460   25.6615 C.2       1 UNK         0.0000 
     28 C28         2.1983   53.4135   25.6054 C.2       1 UNK         0.0000 
     29 C29         1.7989   53.1210   26.9453 C.ar      1 UNK         0.0000 
     30 C30         0.6204   52.7232   27.5904 C.ar      1 UNK         0.0000 
     31 C31         0.6488   52.5264   28.9746 C.ar      1 UNK         0.0000 
     32 C32         1.8243   52.7026   29.7301 C.ar      1 UNK         0.0000 
     33 C33         3.0068   53.0896   29.1014 C.ar      1 UNK         0.0000 
     34 C34         2.9633   53.3016   27.7216 C.ar      1 UNK         0.0000 
     35 O35         4.0095   53.6961   26.9466 O.3       1 UNK         0.0000 
     36 O36         1.9084   52.5054   31.0910 O.3       1 UNK         0.0000 
     37 C37         0.7044   52.4772   31.8447 C.3       1 UNK         0.0000 
     38 H38         2.8550   60.4351   14.5887 H         1 UNK         0.0000 
     39 H39         1.3033   59.6872   14.2218 H         1 UNK         0.0000 
     40 H40         1.8990   59.7364   15.8851 H         1 UNK         0.0000 
     41 H41         3.8146   58.2734   15.2360 H         1 UNK         0.0000 
     42 H42         3.2413   58.2208   13.5887 H         1 UNK         0.0000 
     43 H43         1.2124   57.6905   16.8684 H         1 UNK         0.0000 
     44 H44         2.6211   56.6447   17.0445 H         1 UNK         0.0000 
     45 H45        -0.2202   55.8835   16.2939 H         1 UNK         0.0000 
     46 H46         0.6735   55.3500   17.6852 H         1 UNK         0.0000 
     47 H47         0.4222   53.6008   15.8458 H         1 UNK         0.0000 
     48 H48         2.0587   53.8605   16.3475 H         1 UNK         0.0000 
     49 H49         0.7020   55.0397   13.8907 H         1 UNK         0.0000 
     50 H50         1.9622   53.8372   13.8056 H         1 UNK         0.0000 
     51 H51         5.4855   57.3495   16.2684 H         1 UNK         0.0000 
     52 H52         6.0898   57.3391   18.6223 H         1 UNK         0.0000 
     53 H53         4.8924   53.1997   18.8997 H         1 UNK         0.0000 
     54 H54         4.2695   53.2305   16.5468 H         1 UNK         0.0000 
     55 H55         4.2368   54.2608   20.8449 H         1 UNK         0.0000 
     56 H56         6.3195   54.5301   25.9227 H         1 UNK         0.0000 
     57 H57         1.5990   53.3788   24.7088 H         1 UNK         0.0000 
     58 H58        -0.2901   52.5635   27.0316 H         1 UNK         0.0000 
     59 H59        -0.2686   52.2103   29.4471 H         1 UNK         0.0000 
     60 H60         3.9198   53.2259   29.6592 H         1 UNK         0.0000 
     61 H61         0.9404   52.2645   32.8818 H         1 UNK         0.0000 
     62 H62         0.0220   51.6969   31.5142 H         1 UNK         0.0000 
     63 H63         0.1888   53.4382   31.8084 H         1 UNK         0.0000 
@<TRIPOS>BOND
     1    1    2 1    
     2    1   38 1    
     3    1   39 1    
     4    1   40 1    
     5    2    3 1    
     6    2   41 1    
     7    2   42 1    
     8    3    4 1    
     9    3    9 1    
    10    3    5 1    
    11    5    6 1    
    12    5   43 1    
    13    5   44 1    
    14    6    7 1    
    15    6   45 1    
    16    6   46 1    
    17    7    8 1    
    18    7   47 1    
    19    7   48 1    
    20    8    9 1    
    21    8   49 1    
    22    8   50 1    
    23    9   10 1    
    24   10   11 2    
    25   10   12 2    
    26   10   13 1    
    27   13   18 ar   
    28   13   14 ar   
    29   14   15 ar   
    30   14   51 1    
    31   15   16 ar   
    32   15   52 1    
    33   16   17 ar   
    34   16   19 1    
    35   17   18 ar   
    36   17   53 1    
    37   18   54 1    
    38   19   20 2    
    39   19   21 am   BACKBONE|DICT|INTERRES
    40   21   22 am   BACKBONE|DICT|INTERRES
    41   21   55 1    
    42   22   26 1    
    43   22   23 2    
    44   23   24 1    
    45   24   25 2    
    46   24   27 1    
    47   25   26 1    
    48   25   56 1    
    49   27   35 1    
    50   27   28 2    
    51   28   29 1    
    52   28   57 1    
    53   29   34 ar   
    54   29   30 ar   
    55   30   31 ar   
    56   30   58 1    
    57   31   32 ar   
    58   31   59 1    
    59   32   33 ar   
    60   32   36 1    
    61   33   34 ar   
    62   33   60 1    
    63   34   35 1    
    64   36   37 1    
    65   37   61 1    
    66   37   62 1    
    67   37   63 1    
@<TRIPOS>SUBSTRUCTURE
     1 UNK         1 GROUP             0       ****    0 ROOT    
