ZINC67042639_4715
                    3D
 Schrodinger Suite 2024-2.
 37 38  0  0  1  0            999 V2000
    6.8978   52.9252   17.0726 C   0  0  0  0  0  0
    7.7832   53.9942   17.6820 C   0  0  0  0  0  0
    9.0798   54.2558   17.2110 C   0  0  0  0  0  0
    9.7090   55.3156   17.8374 C   0  0  0  0  0  0
    8.7047   56.0486   19.0283 S   0  0  0  0  0  0
    7.4433   54.8830   18.7269 C   0  0  0  0  0  0
    6.2130   55.0101   19.4789 C   0  0  0  0  0  0
    5.9089   56.0695   20.0370 O   0  0  0  0  0  0
    5.5040   53.8663   19.5711 N   0  0  0  0  0  0
    4.2526   53.9283   20.1716 N   0  0  0  0  0  0
    4.0141   53.1042   21.2089 C   0  0  0  0  0  0
    4.8137   52.2906   21.6817 O   0  0  0  0  0  0
    2.7691   53.2964   21.6814 N   0  0  0  0  0  0
    2.1794   52.6829   22.8712 C   0  0  0  0  0  0
    2.6771   53.2500   24.1393 C   0  0  0  0  0  0
    3.1115   53.6312   25.2152 C   0  0  0  0  0  0
    3.6541   53.9682   26.5217 C   0  0  0  0  0  0
    2.7925   54.1165   27.6111 C   0  0  0  0  0  0
    3.3146   54.3898   28.8714 C   0  0  0  0  0  0
    4.6938   54.4995   29.0361 C   0  0  0  0  0  0
    5.5576   54.3581   27.9510 C   0  0  0  0  0  0
    5.0358   54.0946   26.6870 C   0  0  0  0  0  0
    7.2973   52.5162   16.1416 H   0  0  0  0  0  0
    6.7395   52.0969   17.7607 H   0  0  0  0  0  0
    5.9070   53.3133   16.8360 H   0  0  0  0  0  0
    9.5419   53.6838   16.4185 H   0  0  0  0  0  0
   10.7007   55.7017   17.6556 H   0  0  0  0  0  0
    5.5747   53.1273   18.8852 H   0  0  0  0  0  0
    3.5286   54.1005   19.4884 H   0  0  0  0  0  0
    2.1969   53.9865   21.2084 H   0  0  0  0  0  0
    2.3629   51.6059   22.8800 H   0  0  0  0  0  0
    1.0978   52.8210   22.8450 H   0  0  0  0  0  0
    1.7241   54.0140   27.4882 H   0  0  0  0  0  0
    2.6482   54.5151   29.7120 H   0  0  0  0  0  0
    5.1015   54.7209   30.0112 H   0  0  0  0  0  0
    6.6244   54.4543   28.0928 H   0  0  0  0  0  0
    5.7059   53.9719   25.8475 H   0  0  0  0  0  0
  1  2  1  0  0  0
  1 23  1  0  0  0
  1 24  1  0  0  0
  1 25  1  0  0  0
  2  6  2  0  0  0
  2  3  1  0  0  0
  3  4  2  0  0  0
  3 26  1  0  0  0
  4  5  1  0  0  0
  4 27  1  0  0  0
  5  6  1  0  0  0
  6  7  1  0  0  0
  7  8  2  0  0  0
  7  9  1  0  0  0
  9 10  1  0  0  0
  9 28  1  0  0  0
 10 11  1  0  0  0
 10 29  1  0  0  0
 11 12  2  0  0  0
 11 13  1  0  0  0
 13 14  1  0  0  0
 13 30  1  0  0  0
 14 15  1  0  0  0
 14 31  1  0  0  0
 14 32  1  0  0  0
 15 16  3  0  0  0
 16 17  1  0  0  0
 17 22  2  0  0  0
 17 18  1  0  0  0
 18 19  2  0  0  0
 18 33  1  0  0  0
 19 20  1  0  0  0
 19 34  1  0  0  0
 20 21  2  0  0  0
 20 35  1  0  0  0
 21 22  1  0  0  0
 21 36  1  0  0  0
 22 37  1  0  0  0
M  END
> <i_i_glide_confnum>
51

> <i_i_glide_lignum>
4716

> <i_i_glide_posenum>
390

> <i_i_glide_rotatable_bonds>
8

> <i_m_Source_File_Index>
4305

> <b_m_subgroup_collapsed>
0

> <r_i_docking_score>
-5.43082

> <r_i_glide_ecoul>
-6.18319

> <r_i_glide_eff_state_penalty>
0

> <r_i_glide_einternal>
3.18649

> <r_i_glide_emodel>
-53.3564

> <r_i_glide_energy>
-39.8339

> <r_i_glide_erotb>
1.3239

> <r_i_glide_esite>
-0.0240735

> <r_i_glide_evdw>
-33.6507

> <r_i_glide_gscore>
-5.43082

> <r_i_glide_hbond>
-0.32

> <r_i_glide_ligand_efficiency>
-0.246855

> <r_i_glide_ligand_efficiency_ln>
-1.32749

> <r_i_glide_ligand_efficiency_sa>
-0.691698

> <r_i_glide_lipo>
-2.31781

> <r_i_glide_metal>
0

> <r_i_glide_rewards>
-1.48282

> <s_i_glide_gridfile>
wee1_glide-grid

> <s_m_Source_File>
wee1_decoys_glide_SP.sdf

> <s_m_Source_Path>
/Users/zhangxujun/Desktop

> <s_m_entry_id>
4580

> <s_m_entry_name>
wee1_decoys_glide_SP.4305

> <s_m_subgroup_title>
wee1_decoys_glide_SP

> <s_m_subgroupid>
wee1_decoys_glide_SP


$$$$
