@<TRIPOS>MOLECULE
ZINC43461219_1850
32   34    1
SMALL
USER_CHARGES


@<TRIPOS>ATOM
      1 C1          4.0724   54.0668   25.6735 C.ar      1 UNK         0.0000 
      2 C2          4.2816   54.0964   24.2973 C.ar      1 UNK         0.0000 
      3 C3          5.5150   54.4966   23.7566 C.ar      1 UNK         0.0000 
      4 C4          6.5163   54.9083   24.6536 C.ar      1 UNK         0.0000 
      5 C5          6.3031   54.8894   26.0321 C.ar      1 UNK         0.0000 
      6 C6          5.0810   54.4673   26.5556 C.ar      1 UNK         0.0000 
      7 C7          4.9227   54.4085   28.0828 C.3       1 UNK         0.0000 
      8 N8          3.5487   54.2621   28.6186 N.pl3     1 UNK         0.0000 
      9 C9          2.4486   54.9355   28.2330 C.ar      1 UNK         0.0000 
     10 N10         1.3547   54.5523   28.8456 N.2       1 UNK         0.0000 
     11 C11         1.7828   53.6425   29.7387 C.ar      1 UNK         0.0000 
     12 C12         3.1542   53.4770   29.6615 C.ar      1 UNK         0.0000 
     13 N13         3.9044   52.6993   30.4729 N.ar      1 UNK         0.0000 
     14 C14         3.1630   52.0966   31.4040 C.ar      1 UNK         0.0000 
     15 N15         1.8360   52.0968   31.5564 N.ar      1 UNK         0.0000 
     16 C16         1.1047   52.8749   30.7166 C.ar      1 UNK         0.0000 
     17 N17        -0.2700   52.8915   30.8813 N.pl3     1 UNK         0.0000 
     18 C18         5.7342   54.4947   22.2737 C.2       1 UNK         0.0000 
     19 S19         6.7044   55.5770   21.4528 S.2       1 UNK         0.0000 
     20 N20         5.0256   53.5618   21.5937 N.pl3     1 UNK         0.0000 
     21 H21         3.1238   53.7021   26.0358 H         1 UNK         0.0000 
     22 H22         3.4663   53.7879   23.6593 H         1 UNK         0.0000 
     23 H23         7.4797   55.2294   24.2876 H         1 UNK         0.0000 
     24 H24         7.0962   55.1866   26.7027 H         1 UNK         0.0000 
     25 H25         5.4847   53.5494   28.4546 H         1 UNK         0.0000 
     26 H26         5.3305   55.2965   28.5649 H         1 UNK         0.0000 
     27 H27         2.5220   55.6886   27.4672 H         1 UNK         0.0000 
     28 H28         3.7079   51.4701   32.0950 H         1 UNK         0.0000 
     29 H29        -0.8296   53.4119   30.2262 H         1 UNK         0.0000 
     30 H30        -0.6908   52.3359   31.6279 H         1 UNK         0.0000 
     31 H31         4.4272   52.9182   22.0889 H         1 UNK         0.0000 
     32 H32         5.0950   53.5221   20.5865 H         1 UNK         0.0000 
@<TRIPOS>BOND
     1    1    6 ar   
     2    1    2 ar   
     3    1   21 1    
     4    2    3 ar   
     5    2   22 1    
     6    3    4 ar   
     7    3   18 1    
     8    4    5 ar   
     9    4   23 1    
    10    5    6 ar   
    11    5   24 1    
    12    6    7 1    
    13    7    8 1    
    14    7   25 1    
    15    7   26 1    
    16    8   12 ar   
    17    8    9 ar   
    18    9   10 ar   
    19    9   27 1    
    20   10   11 ar   
    21   11   16 ar   
    22   11   12 ar   
    23   12   13 ar   
    24   13   14 ar   
    25   14   15 ar   
    26   14   28 1    
    27   15   16 ar   
    28   16   17 1    
    29   17   29 1    
    30   17   30 1    
    31   18   19 2    
    32   18   20 1    
    33   20   31 1    
    34   20   32 1    
@<TRIPOS>SUBSTRUCTURE
     1 UNK         1 GROUP             0       ****    0 ROOT    
