ZINC53853446_2522
                    3D
 Schrodinger Suite 2024-2.
 40 43  0  0  1  0            999 V2000
    4.9096   55.4501   17.9402 C   0  0  0  0  0  0
    6.1815   55.1975   18.7753 C   0  0  1  0  0  0
    6.5202   54.1940   18.5074 H   0  0  0  0  0  0
    7.3227   56.1609   18.4215 C   0  0  0  0  0  0
    8.6199   55.6463   18.2360 C   0  0  0  0  0  0
    9.6981   56.4977   17.9832 C   0  0  0  0  0  0
    9.4486   57.8618   17.9064 C   0  0  0  0  0  0
    8.1900   58.3690   18.0523 C   0  0  0  0  0  0
    7.0991   57.5445   18.3050 C   0  0  0  0  0  0
    8.3055   59.7310   17.9203 N   0  0  0  0  0  0
    7.5260   60.3822   17.9066 H   0  0  0  0  0  0
    9.5933   60.0982   17.7559 C   0  0  0  0  0  0
   10.0446   61.2380   17.6780 O   0  0  0  0  0  0
   10.2792   58.9391   17.7204 N   0  0  0  0  0  0
   11.2805   58.8859   17.6142 H   0  0  0  0  0  0
    5.8362   55.1267   20.2036 N   0  0  0  0  0  0
    6.6315   55.2907   21.2807 C   0  0  0  0  0  0
    7.7929   55.6978   21.2495 O   0  0  0  0  0  0
    6.0250   54.8966   22.5293 C   0  0  0  0  0  0
    4.7310   54.4649   22.8149 C   0  0  0  0  0  0
    4.6029   54.3746   24.2402 C   0  0  0  0  0  0
    3.5424   54.0900   25.1125 C   0  0  0  0  0  0
    3.7817   54.0970   26.4855 C   0  0  0  0  0  0
    5.0464   54.3745   26.9988 C   0  0  0  0  0  0
    6.1310   54.6560   26.1687 C   0  0  0  0  0  0
    5.8866   54.6699   24.7904 C   0  0  0  0  0  0
    6.7079   54.9589   23.7234 N   0  0  0  0  0  0
    7.6874   55.2203   23.7425 H   0  0  0  0  0  0
    5.2970   54.3976   28.8825 Br  0  0  0  0  0  0
    5.1321   55.4513   16.8733 H   0  0  0  0  0  0
    4.1617   54.6759   18.1146 H   0  0  0  0  0  0
    4.4446   56.4068   18.1837 H   0  0  0  0  0  0
    8.8048   54.5858   18.3304 H   0  0  0  0  0  0
   10.6932   56.0928   17.8815 H   0  0  0  0  0  0
    6.1139   57.9605   18.4470 H   0  0  0  0  0  0
    4.9120   54.7668   20.3876 H   0  0  0  0  0  0
    3.9413   54.3065   22.0950 H   0  0  0  0  0  0
    2.5577   53.8710   24.7280 H   0  0  0  0  0  0
    2.9700   53.8825   27.1654 H   0  0  0  0  0  0
    7.1018   54.8685   26.5885 H   0  0  0  0  0  0
  1  2  1  0  0  0
  1 30  1  0  0  0
  1 31  1  0  0  0
  1 32  1  0  0  0
  2  3  1  0  0  0
  2  4  1  0  0  0
  2 16  1  0  0  0
  4  9  2  0  0  0
  4  5  1  0  0  0
  5  6  2  0  0  0
  5 33  1  0  0  0
  6  7  1  0  0  0
  6 34  1  0  0  0
  7 14  1  0  0  0
  7  8  2  0  0  0
  8  9  1  0  0  0
  8 10  1  0  0  0
  9 35  1  0  0  0
 10 11  1  0  0  0
 10 12  1  0  0  0
 12 13  2  0  0  0
 12 14  1  0  0  0
 14 15  1  0  0  0
 16 17  1  0  0  0
 16 36  1  0  0  0
 17 18  2  0  0  0
 17 19  1  0  0  0
 19 27  1  0  0  0
 19 20  2  0  0  0
 20 21  1  0  0  0
 20 37  1  0  0  0
 21 26  2  0  0  0
 21 22  1  0  0  0
 22 23  2  0  0  0
 22 38  1  0  0  0
 23 24  1  0  0  0
 23 39  1  0  0  0
 24 25  2  0  0  0
 24 29  1  0  0  0
 25 26  1  0  0  0
 25 40  1  0  0  0
 26 27  1  0  0  0
 27 28  1  0  0  0
M  END
> <i_i_glide_confnum>
4

> <i_i_glide_lignum>
2523

> <i_i_glide_posenum>
232

> <i_i_glide_rotatable_bonds>
4

> <i_m_Source_File_Index>
235

> <b_m_subgroup_collapsed>
0

> <r_i_docking_score>
-6.48366

> <r_i_glide_ecoul>
-7.2817

> <r_i_glide_eff_state_penalty>
0

> <r_i_glide_einternal>
3.49099

> <r_i_glide_emodel>
-58.1709

> <r_i_glide_energy>
-41.4496

> <r_i_glide_erotb>
0.245839

> <r_i_glide_esite>
-0.15736

> <r_i_glide_evdw>
-34.1679

> <r_i_glide_gscore>
-6.48366

> <r_i_glide_hbond>
-0.506474

> <r_i_glide_ligand_efficiency>
-0.259346

> <r_i_glide_ligand_efficiency_ln>
-1.53682

> <r_i_glide_ligand_efficiency_sa>
-0.758333

> <r_i_glide_lipo>
-2.22232

> <r_i_glide_metal>
0

> <r_i_glide_rewards>
-1.0427

> <s_i_glide_gridfile>
wee1_glide-grid

> <s_m_Source_File>
wee1_decoys_glide_SP.sdf

> <s_m_Source_Path>
/Users/zhangxujun/Desktop

> <s_m_entry_id>
510

> <s_m_entry_name>
wee1_decoys_glide_SP.235

> <s_m_subgroup_title>
wee1_decoys_glide_SP

> <s_m_subgroupid>
wee1_decoys_glide_SP


$$$$
