@<TRIPOS>MOLECULE
ZINC47378519_1380
51   53    1
SMALL
USER_CHARGES


@<TRIPOS>ATOM
      1 C1          7.9147   53.2555   17.0973 C.3       1 UNK         0.0000 
      2 C2          6.4298   53.6493   17.1508 C.3       1 UNK         0.0000 
      3 C3          6.1789   55.0639   17.7121 C.3       1 UNK         0.0000 
      4 C4          6.5045   55.1798   19.1874 C.2       1 UNK         0.0000 
      5 N5          7.5946   55.7510   19.6479 N.2       1 UNK         0.0000 
      6 N6          7.7096   55.6965   21.0314 N.2       1 UNK         0.0000 
      7 C7          6.7013   55.0833   21.5958 C.2       1 UNK         0.0000 
      8 S8          5.5039   54.5178   20.4494 S.3       1 UNK         0.0000 
      9 N9          6.6590   54.8972   22.9692 N.am      1 UNK         0.0000 
     10 C10         5.6122   54.4562   23.7062 C.2       1 UNK         0.0000 
     11 O11         4.6663   53.8304   23.2236 O.2       1 UNK         0.0000 
     12 N12         5.6347   54.8255   25.0178 N.am      1 UNK         0.0000 
     13 C13         6.8666   55.2178   25.7398 C.3       1 UNK         0.0000 
     14 C14         7.0917   54.2141   26.8926 C.3       1 UNK         0.0000 
     15 C15         5.8908   54.1264   27.8350 C.3       1 UNK         0.0000 
     16 C16         4.6526   53.7358   27.0034 C.3       1 UNK         0.0000 
     17 H17         4.8027   52.7242   26.6289 H         1 UNK         0.0000 
     18 C18         4.4015   54.7099   25.8309 C.3       1 UNK         0.0000 
     19 C19         3.4131   53.7442   27.9120 C.2       1 UNK         0.0000 
     20 O20         3.1540   54.7328   28.6039 O.2       1 UNK         0.0000 
     21 N21         2.6577   52.6334   27.8726 N.am      1 UNK         0.0000 
     22 C22         1.5513   52.3589   28.6746 C.ar      1 UNK         0.0000 
     23 C23         1.5972   52.3761   30.0852 C.ar      1 UNK         0.0000 
     24 C24         0.4102   52.1102   30.7749 C.ar      1 UNK         0.0000 
     25 C25        -0.7360   51.7392   30.0723 C.ar      1 UNK         0.0000 
     26 C26        -0.6817   51.6969   28.6811 C.ar      1 UNK         0.0000 
     27 N27         0.4359   52.0111   27.9824 N.ar      1 UNK         0.0000 
     28 C28         2.8970   52.5233   30.8699 C.3       1 UNK         0.0000 
     29 H29         8.0339   52.2384   16.7219 H         1 UNK         0.0000 
     30 H30         8.3799   53.2982   18.0816 H         1 UNK         0.0000 
     31 H31         8.4755   53.9189   16.4383 H         1 UNK         0.0000 
     32 H32         6.0189   53.5894   16.1421 H         1 UNK         0.0000 
     33 H33         5.8775   52.9109   17.7353 H         1 UNK         0.0000 
     34 H34         6.7518   55.7869   17.1292 H         1 UNK         0.0000 
     35 H35         5.1339   55.3314   17.5495 H         1 UNK         0.0000 
     36 H36         7.4402   55.2971   23.4665 H         1 UNK         0.0000 
     37 H37         7.7438   55.2616   25.0964 H         1 UNK         0.0000 
     38 H38         6.7039   56.2159   26.1450 H         1 UNK         0.0000 
     39 H39         7.3250   53.2272   26.4911 H         1 UNK         0.0000 
     40 H40         7.9535   54.5073   27.4834 H         1 UNK         0.0000 
     41 H41         6.1272   53.3715   28.5879 H         1 UNK         0.0000 
     42 H42         5.7901   55.1179   28.2841 H         1 UNK         0.0000 
     43 H43         4.1833   55.6967   26.2247 H         1 UNK         0.0000 
     44 H44         3.5370   54.4026   25.2384 H         1 UNK         0.0000 
     45 H45         2.8393   51.9696   27.1362 H         1 UNK         0.0000 
     46 H46         0.3880   52.1003   31.8562 H         1 UNK         0.0000 
     47 H47        -1.6266   51.4388   30.6061 H         1 UNK         0.0000 
     48 H48        -1.5387   51.3754   28.1066 H         1 UNK         0.0000 
     49 H49         2.7759   52.2577   31.9208 H         1 UNK         0.0000 
     50 H50         3.6573   51.8606   30.4540 H         1 UNK         0.0000 
     51 H51         3.2912   53.5332   30.8056 H         1 UNK         0.0000 
@<TRIPOS>BOND
     1    1    2 1    
     2    1   29 1    
     3    1   30 1    
     4    1   31 1    
     5    2    3 1    
     6    2   32 1    
     7    2   33 1    
     8    3    4 1    
     9    3   34 1    
    10    3   35 1    
    11    4    8 1    
    12    4    5 2    
    13    5    6 1    
    14    6    7 2    
    15    7    8 1    
    16    7    9 am   BACKBONE|DICT|INTERRES
    17    9   10 am   BACKBONE|DICT|INTERRES
    18    9   36 1    
    19   10   11 2    
    20   10   12 am   BACKBONE|DICT|INTERRES
    21   12   18 1    
    22   12   13 1    
    23   13   14 1    
    24   13   37 1    
    25   13   38 1    
    26   14   15 1    
    27   14   39 1    
    28   14   40 1    
    29   15   16 1    
    30   15   41 1    
    31   15   42 1    
    32   16   17 1    
    33   16   18 1    
    34   16   19 1    
    35   18   43 1    
    36   18   44 1    
    37   19   20 2    
    38   19   21 am   BACKBONE|DICT|INTERRES
    39   21   22 1    
    40   21   45 1    
    41   22   27 ar   
    42   22   23 ar   
    43   23   24 ar   
    44   23   28 1    
    45   24   25 ar   
    46   24   46 1    
    47   25   26 ar   
    48   25   47 1    
    49   26   27 ar   
    50   26   48 1    
    51   28   49 1    
    52   28   50 1    
    53   28   51 1    
@<TRIPOS>SUBSTRUCTURE
     1 UNK         1 GROUP             0       ****    0 ROOT    
