@<TRIPOS>MOLECULE
ZINC02095752_65
68   72    1
SMALL
USER_CHARGES


@<TRIPOS>ATOM
      1 C1         -6.6339   51.3967   28.1443 C.3       1 UNK         0.0000 
      2 C2         -5.7250   52.0222   27.0919 C.ar      1 UNK         0.0000 
      3 C3         -6.2817   52.9416   26.2000 C.ar      1 UNK         0.0000 
      4 C4         -5.4931   53.5576   25.2367 C.ar      1 UNK         0.0000 
      5 C5         -4.1384   53.2623   25.1541 C.ar      1 UNK         0.0000 
      6 C6         -3.5529   52.3357   26.0319 C.ar      1 UNK         0.0000 
      7 C7         -4.3516   51.7140   27.0175 C.ar      1 UNK         0.0000 
      8 C8         -3.7322   50.7086   27.9983 C.3       1 UNK         0.0000 
      9 N9         -2.1820   52.0021   25.9896 N.am      1 UNK         0.0000 
     10 C10        -1.2420   52.2552   25.0544 C.2       1 UNK         0.0000 
     11 O11        -1.4218   52.8970   24.0165 O.2       1 UNK         0.0000 
     12 C12         0.1547   51.6613   25.3781 C.3       1 UNK         0.0000 
     13 H13         0.0035   50.7157   25.8974 H         1 UNK         0.0000 
     14 C14         1.0240   52.5776   26.2946 C.3       1 UNK         0.0000 
     15 C15         0.5899   52.7994   27.7454 C.ar      1 UNK         0.0000 
     16 C16        -0.0670   51.7951   28.4935 C.ar      1 UNK         0.0000 
     17 C17        -0.3664   52.0063   29.8321 C.ar      1 UNK         0.0000 
     18 C18         0.0369   53.1700   30.4700 C.ar      1 UNK         0.0000 
     19 C19         0.7273   54.1461   29.7690 C.ar      1 UNK         0.0000 
     20 C20         1.0155   53.9637   28.4227 C.ar      1 UNK         0.0000 
     21 N21         0.9125   51.2528   24.1839 N.am      1 UNK         0.0000 
     22 C22         1.5044   52.0180   23.2431 C.2       1 UNK         0.0000 
     23 O23         1.5234   53.2472   23.3240 O.2       1 UNK         0.0000 
     24 N24         2.0766   51.3372   22.2062 N.am      1 UNK         0.0000 
     25 C25         2.7482   52.0700   21.1111 C.3       1 UNK         0.0000 
     26 C26         2.0639   51.6936   19.7664 C.3       1 UNK         0.0000 
     27 H27         2.5816   52.1809   18.9379 H         1 UNK         0.0000 
     28 C28         2.2105   50.1874   19.5288 C.3       1 UNK         0.0000 
     29 C29         1.4925   49.4774   20.6828 C.3       1 UNK         0.0000 
     30 H30         1.6282   48.4030   20.5513 H         1 UNK         0.0000 
     31 C31         2.0815   49.8567   22.0674 C.3       1 UNK         0.0000 
     32 C32        -0.0128   49.7780   20.6320 C.ar      1 UNK         0.0000 
     33 C33        -0.9217   48.8430   20.9979 C.ar      1 UNK         0.0000 
     34 C34        -2.3265   49.1860   20.9744 C.ar      1 UNK         0.0000 
     35 C35        -2.6894   50.4202   20.5732 C.ar      1 UNK         0.0000 
     36 C36        -1.7324   51.4189   20.1206 C.ar      1 UNK         0.0000 
     37 O37        -2.1499   52.4936   19.6809 O.2       1 UNK         0.0000 
     38 N38        -0.3990   51.0611   20.1939 N.pl3     1 UNK         0.0000 
     39 C39         0.5664   52.0971   19.7225 C.3       1 UNK         0.0000 
     40 H40        -7.6107   51.8793   28.1900 H         1 UNK         0.0000 
     41 H41        -6.7851   50.3369   27.9393 H         1 UNK         0.0000 
     42 H42        -6.1908   51.4833   29.1368 H         1 UNK         0.0000 
     43 H43        -7.3333   53.1816   26.2508 H         1 UNK         0.0000 
     44 H44        -5.9338   54.2639   24.5477 H         1 UNK         0.0000 
     45 H45        -3.5633   53.7745   24.3980 H         1 UNK         0.0000 
     46 H46        -2.9830   50.0862   27.5106 H         1 UNK         0.0000 
     47 H47        -4.4529   50.0036   28.4061 H         1 UNK         0.0000 
     48 H48        -3.2508   51.2281   28.8264 H         1 UNK         0.0000 
     49 H49        -1.8778   51.4399   26.7706 H         1 UNK         0.0000 
     50 H50         2.0445   52.1959   26.3297 H         1 UNK         0.0000 
     51 H51         1.1176   53.5594   25.8282 H         1 UNK         0.0000 
     52 H52        -0.3586   50.8563   28.0475 H         1 UNK         0.0000 
     53 H53        -0.9009   51.2494   30.3923 H         1 UNK         0.0000 
     54 H54        -0.1858   53.3029   31.5224 H         1 UNK         0.0000 
     55 H55         1.0438   55.0482   30.2724 H         1 UNK         0.0000 
     56 H56         1.5662   54.7259   27.8944 H         1 UNK         0.0000 
     57 H57         0.9445   50.2563   24.0416 H         1 UNK         0.0000 
     58 H58         2.7209   53.1556   21.2475 H         1 UNK         0.0000 
     59 H59         3.8005   51.7817   21.0846 H         1 UNK         0.0000 
     60 H60         1.7915   49.8983   18.5629 H         1 UNK         0.0000 
     61 H61         3.2650   49.9060   19.4982 H         1 UNK         0.0000 
     62 H62         3.1052   49.4939   22.1399 H         1 UNK         0.0000 
     63 H63         1.5020   49.3440   22.8337 H         1 UNK         0.0000 
     64 H64        -0.6065   47.8642   21.3355 H         1 UNK         0.0000 
     65 H65        -3.0695   48.4741   21.2959 H         1 UNK         0.0000 
     66 H66        -3.7356   50.6902   20.5673 H         1 UNK         0.0000 
     67 H67         0.4141   53.0168   20.2962 H         1 UNK         0.0000 
     68 H68         0.3038   52.3948   18.7029 H         1 UNK         0.0000 
@<TRIPOS>BOND
     1    1    2 1    
     2    1   40 1    
     3    1   41 1    
     4    1   42 1    
     5    2    7 ar   
     6    2    3 ar   
     7    3    4 ar   
     8    3   43 1    
     9    4    5 ar   
    10    4   44 1    
    11    5    6 ar   
    12    5   45 1    
    13    6    7 ar   
    14    6    9 1    
    15    7    8 1    
    16    8   46 1    
    17    8   47 1    
    18    8   48 1    
    19    9   10 am   BACKBONE|DICT|INTERRES
    20    9   49 1    
    21   10   11 2    
    22   10   12 1    
    23   12   13 1    
    24   12   14 1    
    25   12   21 1    
    26   14   15 1    
    27   14   50 1    
    28   14   51 1    
    29   15   20 ar   
    30   15   16 ar   
    31   16   17 ar   
    32   16   52 1    
    33   17   18 ar   
    34   17   53 1    
    35   18   19 ar   
    36   18   54 1    
    37   19   20 ar   
    38   19   55 1    
    39   20   56 1    
    40   21   22 am   BACKBONE|DICT|INTERRES
    41   21   57 1    
    42   22   23 2    
    43   22   24 am   BACKBONE|DICT|INTERRES
    44   24   31 1    
    45   24   25 1    
    46   25   26 1    
    47   25   58 1    
    48   25   59 1    
    49   26   27 1    
    50   26   39 1    
    51   26   28 1    
    52   28   29 1    
    53   28   60 1    
    54   28   61 1    
    55   29   30 1    
    56   29   31 1    
    57   29   32 1    
    58   31   62 1    
    59   31   63 1    
    60   32   38 ar   
    61   32   33 ar   
    62   33   34 ar   
    63   33   64 1    
    64   34   35 ar   
    65   34   65 1    
    66   35   36 ar   
    67   35   66 1    
    68   36   37 2    
    69   36   38 ar   
    70   38   39 1    
    71   39   67 1    
    72   39   68 1    
@<TRIPOS>SUBSTRUCTURE
     1 UNK         1 GROUP             0       ****    0 ROOT    
