ZINC41313882_4198
                    3D
 Schrodinger Suite 2024-2.
 59 63  0  0  1  0            999 V2000
    5.2823   57.3196   16.1980 C   0  0  0  0  0  0
    4.7862   55.8842   16.2293 C   0  0  0  0  0  0
    4.3524   55.2578   15.0550 C   0  0  0  0  0  0
    3.8946   53.9372   15.0534 C   0  0  0  0  0  0
    3.8411   53.1811   16.2273 C   0  0  0  0  0  0
    4.2536   53.7777   17.4276 C   0  0  0  0  0  0
    4.7264   55.1109   17.3995 C   0  0  0  0  0  0
    5.1124   55.5175   18.6457 O   0  0  0  0  0  0
    4.8460   54.4796   19.4917 C   0  0  0  0  0  0
    4.3457   53.3805   18.7967 C   0  0  0  0  0  0
    5.1925   54.6450   20.8728 C   0  0  0  0  0  0
    6.2109   55.2579   21.2035 O   0  0  0  0  0  0
    4.2716   54.1182   21.7067 N   0  0  0  0  0  0
    4.2718   54.0947   23.1020 C   0  0  0  0  0  0
    3.2097   53.6585   23.9236 C   0  0  0  0  0  0
    3.5125   53.8088   25.3039 C   0  0  0  0  0  0
    4.8434   54.2143   25.5024 C   0  0  0  0  0  0
    5.6900   54.4966   24.0333 S   0  0  0  0  0  0
    5.5416   54.3351   26.8414 C   0  0  0  0  0  0
    4.4744   54.3340   27.9547 C   0  0  1  0  0  0
    3.9881   55.3013   27.9998 H   0  0  0  0  0  0
    3.4348   53.2309   27.7402 C   0  0  0  0  0  0
    2.5843   53.5303   26.5044 C   0  0  0  0  0  0
    5.1689   54.1224   29.2819 C   0  0  0  0  0  0
    1.9323   53.2138   23.4063 C   0  0  0  0  0  0
    1.4704   53.6922   22.3803 O   0  0  0  0  0  0
    1.3271   52.2363   24.1003 N   0  0  0  0  0  0
    0.0130   51.6608   23.8334 C   0  0  2  0  0  0
   -0.7697   52.4258   23.8473 H   0  0  0  0  0  0
   -0.3066   50.6362   24.9477 C   0  0  0  0  0  0
   -1.5557   49.8378   24.5514 C   0  0  0  0  0  0
   -1.4161   49.6327   22.6941 S   0  0  0  0  0  0
   -2.6430   50.1348   22.0737 O   0  0  0  0  0  0
   -0.8962   48.3031   22.3648 O   0  0  0  0  0  0
   -0.0446   50.8906   22.4992 C   0  0  0  0  0  0
    5.2441   57.7512   15.1974 H   0  0  0  0  0  0
    4.6789   57.9409   16.8614 H   0  0  0  0  0  0
    6.3118   57.3708   16.5540 H   0  0  0  0  0  0
    4.3724   55.8010   14.1205 H   0  0  0  0  0  0
    3.5777   53.4891   14.1215 H   0  0  0  0  0  0
    3.4975   52.1562   16.2170 H   0  0  0  0  0  0
    4.0966   52.4142   19.2140 H   0  0  0  0  0  0
    3.4176   53.7868   21.2735 H   0  0  0  0  0  0
    6.2171   53.4864   26.9614 H   0  0  0  0  0  0
    6.1393   55.2484   26.8893 H   0  0  0  0  0  0
    3.9155   52.2570   27.6866 H   0  0  0  0  0  0
    2.7817   53.1627   28.6111 H   0  0  0  0  0  0
    1.9491   54.3932   26.6908 H   0  0  0  0  0  0
    1.9132   52.6873   26.3841 H   0  0  0  0  0  0
    5.6847   53.1621   29.2817 H   0  0  0  0  0  0
    5.9041   54.8986   29.4875 H   0  0  0  0  0  0
    4.4563   54.1256   30.1092 H   0  0  0  0  0  0
    1.8120   51.8773   24.9091 H   0  0  0  0  0  0
   -0.4393   51.1289   25.9126 H   0  0  0  0  0  0
    0.5377   49.9532   25.0848 H   0  0  0  0  0  0
   -2.4381   50.4508   24.7466 H   0  0  0  0  0  0
   -1.7033   48.8740   25.0415 H   0  0  0  0  0  0
    0.8538   50.2715   22.4642 H   0  0  0  0  0  0
   -0.0725   51.4430   21.5591 H   0  0  0  0  0  0
  1  2  1  0  0  0
  1 36  1  0  0  0
  1 37  1  0  0  0
  1 38  1  0  0  0
  2  7  2  0  0  0
  2  3  1  0  0  0
  3  4  2  0  0  0
  3 39  1  0  0  0
  4  5  1  0  0  0
  4 40  1  0  0  0
  5  6  2  0  0  0
  5 41  1  0  0  0
  6 10  1  0  0  0
  6  7  1  0  0  0
  7  8  1  0  0  0
  8  9  1  0  0  0
  9 10  2  0  0  0
  9 11  1  0  0  0
 10 42  1  0  0  0
 11 12  2  0  0  0
 11 13  1  0  0  0
 13 14  1  0  0  0
 13 43  1  0  0  0
 14 18  1  0  0  0
 14 15  2  0  0  0
 15 16  1  0  0  0
 15 25  1  0  0  0
 16 23  1  0  0  0
 16 17  2  0  0  0
 17 18  1  0  0  0
 17 19  1  0  0  0
 19 20  1  0  0  0
 19 44  1  0  0  0
 19 45  1  0  0  0
 20 21  1  0  0  0
 20 22  1  0  0  0
 20 24  1  0  0  0
 22 23  1  0  0  0
 22 46  1  0  0  0
 22 47  1  0  0  0
 23 48  1  0  0  0
 23 49  1  0  0  0
 24 50  1  0  0  0
 24 51  1  0  0  0
 24 52  1  0  0  0
 25 26  2  0  0  0
 25 27  1  0  0  0
 27 28  1  0  0  0
 27 53  1  0  0  0
 28 29  1  0  0  0
 28 35  1  0  0  0
 28 30  1  0  0  0
 30 31  1  0  0  0
 30 54  1  0  0  0
 30 55  1  0  0  0
 31 32  1  0  0  0
 31 56  1  0  0  0
 31 57  1  0  0  0
 32 33  2  0  0  0
 32 34  2  0  0  0
 32 35  1  0  0  0
 35 58  1  0  0  0
 35 59  1  0  0  0
M  END
> <i_i_glide_confnum>
85

> <i_i_glide_lignum>
4199

> <i_i_glide_posenum>
278

> <i_i_glide_rotatable_bonds>
6

> <i_m_Source_File_Index>
3735

> <b_m_subgroup_collapsed>
0

> <r_i_docking_score>
-4.40362

> <r_i_glide_ecoul>
-1.95845

> <r_i_glide_eff_state_penalty>
0

> <r_i_glide_einternal>
7.08178

> <r_i_glide_emodel>
-46.9142

> <r_i_glide_energy>
-37.5049

> <r_i_glide_erotb>
0.514984

> <r_i_glide_esite>
-3.87662e-06

> <r_i_glide_evdw>
-35.5465

> <r_i_glide_gscore>
-4.40362

> <r_i_glide_hbond>
0

> <r_i_glide_ligand_efficiency>
-0.133443

> <r_i_glide_ligand_efficiency_ln>
-0.979342

> <r_i_glide_ligand_efficiency_sa>
-0.428023

> <r_i_glide_lipo>
-2.28784

> <r_i_glide_metal>
0

> <r_i_glide_rewards>
-0.559667

> <s_i_glide_gridfile>
wee1_glide-grid

> <s_m_Source_File>
wee1_decoys_glide_SP.sdf

> <s_m_Source_Path>
/Users/zhangxujun/Desktop

> <s_m_entry_id>
4010

> <s_m_entry_name>
wee1_decoys_glide_SP.3735

> <s_m_subgroup_title>
wee1_decoys_glide_SP

> <s_m_subgroupid>
wee1_decoys_glide_SP


$$$$
