@<TRIPOS>MOLECULE
ZINC20246662_3448
42   44    1
SMALL
USER_CHARGES


@<TRIPOS>ATOM
      1 C1          7.8657   55.9036   19.9060 C.ar      1 UNK         0.0000 
      2 C2          6.7329   55.9562   19.1055 C.ar      1 UNK         0.0000 
      3 C3          5.5256   55.4601   19.5864 C.ar      1 UNK         0.0000 
      4 C4          5.4378   54.8989   20.8656 C.ar      1 UNK         0.0000 
      5 C5          6.5750   54.8967   21.7215 C.ar      1 UNK         0.0000 
      6 C6          7.7844   55.3860   21.1956 C.ar      1 UNK         0.0000 
      7 C7          6.5695   54.3751   23.1518 C.2       1 UNK         0.0000 
      8 O8          7.5044   53.6965   23.5758 O.2       1 UNK         0.0000 
      9 N9          5.4913   54.7100   23.8864 N.am      1 UNK         0.0000 
     10 C10         5.2030   54.4209   25.2279 C.ar      1 UNK         0.0000 
     11 C11         6.1808   54.2188   26.2130 C.ar      1 UNK         0.0000 
     12 C12         5.7976   53.9571   27.5279 C.ar      1 UNK         0.0000 
     13 C13         4.4440   53.8914   27.8534 C.ar      1 UNK         0.0000 
     14 C14         3.4707   54.0978   26.8792 C.ar      1 UNK         0.0000 
     15 C15         3.8505   54.3738   25.5695 C.ar      1 UNK         0.0000 
     16 Br16        3.9039   53.5164   29.6410 Br        1 UNK         0.0000 
     17 N17         4.1627   54.4038   21.1854 N.am      1 UNK         0.0000 
     18 C18         3.8831   53.1623   21.6147 C.2       1 UNK         0.0000 
     19 O19         4.7047   52.2471   21.6818 O.2       1 UNK         0.0000 
     20 N20         2.5953   53.0979   22.0012 N.am      1 UNK         0.0000 
     21 C21         1.9152   51.9988   22.5434 C.ar      1 UNK         0.0000 
     22 C22         2.2283   50.6724   22.2182 C.ar      1 UNK         0.0000 
     23 C23         1.5071   49.6340   22.7956 C.ar      1 UNK         0.0000 
     24 C24         0.4755   49.9136   23.6875 C.ar      1 UNK         0.0000 
     25 C25         0.1483   51.2313   24.0003 C.ar      1 UNK         0.0000 
     26 C26         0.8649   52.2762   23.4218 C.ar      1 UNK         0.0000 
     27 Br27       -0.4953   48.4814   24.4805 Br        1 UNK         0.0000 
     28 H28         8.8132   56.2676   19.5330 H         1 UNK         0.0000 
     29 H29         6.7923   56.3616   18.1059 H         1 UNK         0.0000 
     30 H30         4.6630   55.4828   18.9344 H         1 UNK         0.0000 
     31 H31         8.6989   55.3741   21.7680 H         1 UNK         0.0000 
     32 H32         4.7534   55.1712   23.3770 H         1 UNK         0.0000 
     33 H33         7.2309   54.2651   25.9733 H         1 UNK         0.0000 
     34 H34         6.5464   53.8011   28.2906 H         1 UNK         0.0000 
     35 H35         2.4238   54.0446   27.1390 H         1 UNK         0.0000 
     36 H36         3.0870   54.5297   24.8210 H         1 UNK         0.0000 
     37 H37         3.3878   54.8705   20.7349 H         1 UNK         0.0000 
     38 H38         2.0619   53.9526   21.9477 H         1 UNK         0.0000 
     39 H39         3.0204   50.4358   21.5226 H         1 UNK         0.0000 
     40 H40         1.7587   48.6124   22.5580 H         1 UNK         0.0000 
     41 H41        -0.6545   51.4393   24.6930 H         1 UNK         0.0000 
     42 H42         0.6083   53.2947   23.6724 H         1 UNK         0.0000 
@<TRIPOS>BOND
     1    1    6 ar   
     2    1    2 ar   
     3    1   28 1    
     4    2    3 ar   
     5    2   29 1    
     6    3    4 ar   
     7    3   30 1    
     8    4    5 ar   
     9    4   17 1    
    10    5    6 ar   
    11    5    7 1    
    12    6   31 1    
    13    7    8 2    
    14    7    9 am   BACKBONE|DICT|INTERRES
    15    9   10 1    
    16    9   32 1    
    17   10   15 ar   
    18   10   11 ar   
    19   11   12 ar   
    20   11   33 1    
    21   12   13 ar   
    22   12   34 1    
    23   13   14 ar   
    24   13   16 1    
    25   14   15 ar   
    26   14   35 1    
    27   15   36 1    
    28   17   18 am   BACKBONE|DICT|INTERRES
    29   17   37 1    
    30   18   19 2    
    31   18   20 am   BACKBONE|DICT|INTERRES
    32   20   21 1    
    33   20   38 1    
    34   21   26 ar   
    35   21   22 ar   
    36   22   23 ar   
    37   22   39 1    
    38   23   24 ar   
    39   23   40 1    
    40   24   25 ar   
    41   24   27 1    
    42   25   26 ar   
    43   25   41 1    
    44   26   42 1    
@<TRIPOS>SUBSTRUCTURE
     1 UNK         1 GROUP             0       ****    0 ROOT    
