@<TRIPOS>MOLECULE
ZINC39965417_5609
65   69    1
SMALL
USER_CHARGES


@<TRIPOS>ATOM
      1 C1          5.7491   53.9588   14.0043 C.3       1 UNK         0.0000 
      2 C2          4.2335   53.9756   13.7312 C.3       1 UNK         0.0000 
      3 C3          3.3219   54.8393   14.6681 C.3       1 UNK         0.0000 
      4 C4          3.6776   56.3402   14.4893 C.3       1 UNK         0.0000 
      5 C5          1.8674   54.6782   14.1443 C.3       1 UNK         0.0000 
      6 C6          3.3561   54.4231   16.1963 C.3       1 UNK         0.0000 
      7 H7          2.4244   54.8007   16.6240 H         1 UNK         0.0000 
      8 C8          3.3228   52.8848   16.4147 C.3       1 UNK         0.0000 
      9 C9          2.9749   52.5028   17.8673 C.3       1 UNK         0.0000 
     10 C10         3.8626   53.2945   18.8299 C.2       1 UNK         0.0000 
     11 C11         4.5572   54.4398   18.4182 C.2       1 UNK         0.0000 
     12 S12         5.5480   55.0872   19.6777 S.3       1 UNK         0.0000 
     13 C13         5.0249   53.8429   20.7859 C.2       1 UNK         0.0000 
     14 C14         4.1358   52.9523   20.1713 C.2       1 UNK         0.0000 
     15 C15         3.5498   51.8021   20.8519 C.1       1 UNK         0.0000 
     16 N16         3.0880   50.8948   21.3997 N.1       1 UNK         0.0000 
     17 N17         5.4932   53.7340   22.0954 N.am      1 UNK         0.0000 
     18 C18         6.3050   54.5688   22.7745 C.2       1 UNK         0.0000 
     19 O19         6.7091   55.6537   22.3598 O.2       1 UNK         0.0000 
     20 C20         6.7451   54.0680   24.1507 C.3       1 UNK         0.0000 
     21 S21         6.7043   55.3204   25.4617 S.3       1 UNK         0.0000 
     22 C22         5.8182   54.3942   26.6688 C.ar      1 UNK         0.0000 
     23 N23         6.3735   53.8878   27.7375 N.2       1 UNK         0.0000 
     24 N24         5.3644   53.2943   28.4820 N.2       1 UNK         0.0000 
     25 C25         4.2339   53.4505   27.8363 C.ar      1 UNK         0.0000 
     26 N26         4.4589   54.1562   26.6664 N.pl3     1 UNK         0.0000 
     27 C27         3.5058   54.6316   25.6743 C.3       1 UNK         0.0000 
     28 C28         2.9082   52.9858   28.3662 C.ar      1 UNK         0.0000 
     29 C29         2.6533   53.0606   29.7533 C.ar      1 UNK         0.0000 
     30 C30         1.3918   52.7431   30.2807 C.ar      1 UNK         0.0000 
     31 C31         0.4097   52.3352   29.3868 C.ar      1 UNK         0.0000 
     32 C32         0.6605   52.2051   28.0527 C.ar      1 UNK         0.0000 
     33 C33         1.9032   52.4994   27.5096 C.ar      1 UNK         0.0000 
     34 O34        -0.4700   51.8232   27.4069 O.3       1 UNK         0.0000 
     35 C35        -1.4168   51.5705   28.4111 C.3       1 UNK         0.0000 
     36 O36        -0.8952   52.0468   29.6268 O.3       1 UNK         0.0000 
     37 C37         4.5321   55.0365   17.0160 C.3       1 UNK         0.0000 
     38 H38         6.2738   53.4454   13.1988 H         1 UNK         0.0000 
     39 H39         5.9938   53.4223   14.9195 H         1 UNK         0.0000 
     40 H40         6.1695   54.9631   14.0681 H         1 UNK         0.0000 
     41 H41         4.0990   54.3190   12.7044 H         1 UNK         0.0000 
     42 H42         3.8785   52.9436   13.7157 H         1 UNK         0.0000 
     43 H43         3.0309   56.9787   15.0950 H         1 UNK         0.0000 
     44 H44         4.7046   56.5637   14.7724 H         1 UNK         0.0000 
     45 H45         3.5684   56.6598   13.4515 H         1 UNK         0.0000 
     46 H46         1.1603   55.2857   14.7126 H         1 UNK         0.0000 
     47 H47         1.7784   54.9858   13.1004 H         1 UNK         0.0000 
     48 H48         1.5214   53.6456   14.1952 H         1 UNK         0.0000 
     49 H49         2.5505   52.4380   15.7894 H         1 UNK         0.0000 
     50 H50         4.2442   52.4084   16.0770 H         1 UNK         0.0000 
     51 H51         1.9261   52.7150   18.0753 H         1 UNK         0.0000 
     52 H52         3.1041   51.4261   17.9982 H         1 UNK         0.0000 
     53 H53         5.1668   52.9178   22.5902 H         1 UNK         0.0000 
     54 H54         6.1032   53.2477   24.4491 H         1 UNK         0.0000 
     55 H55         7.7590   53.6771   24.0637 H         1 UNK         0.0000 
     56 H56         2.4828   54.4959   26.0108 H         1 UNK         0.0000 
     57 H57         3.6664   55.6965   25.5165 H         1 UNK         0.0000 
     58 H58         3.6446   54.0831   24.7418 H         1 UNK         0.0000 
     59 H59         3.4326   53.3976   30.4209 H         1 UNK         0.0000 
     60 H60         1.1875   52.8313   31.3378 H         1 UNK         0.0000 
     61 H61         2.0711   52.3886   26.4494 H         1 UNK         0.0000 
     62 H62        -1.5817   50.4968   28.4878 H         1 UNK         0.0000 
     63 H63        -2.3527   52.0688   28.1614 H         1 UNK         0.0000 
     64 H64         5.4865   54.8418   16.5339 H         1 UNK         0.0000 
     65 H65         4.4199   56.1170   17.0865 H         1 UNK         0.0000 
@<TRIPOS>BOND
     1    1    2 1    
     2    1   38 1    
     3    1   39 1    
     4    1   40 1    
     5    2    3 1    
     6    2   41 1    
     7    2   42 1    
     8    3    4 1    
     9    3    5 1    
    10    3    6 1    
    11    4   43 1    
    12    4   44 1    
    13    4   45 1    
    14    5   46 1    
    15    5   47 1    
    16    5   48 1    
    17    6    7 1    
    18    6   37 1    
    19    6    8 1    
    20    8    9 1    
    21    8   49 1    
    22    8   50 1    
    23    9   10 1    
    24    9   51 1    
    25    9   52 1    
    26   10   14 1    
    27   10   11 2    
    28   11   12 1    
    29   11   37 1    
    30   12   13 1    
    31   13   14 2    
    32   13   17 am   BACKBONE|DICT|INTERRES
    33   14   15 1    
    34   15   16 3    
    35   17   18 am   BACKBONE|DICT|INTERRES
    36   17   53 1    
    37   18   19 2    
    38   18   20 1    
    39   20   21 1    
    40   20   54 1    
    41   20   55 1    
    42   21   22 1    
    43   22   26 ar   
    44   22   23 ar   
    45   23   24 ar   
    46   24   25 ar   
    47   25   26 ar   
    48   25   28 1    
    49   26   27 1    
    50   27   56 1    
    51   27   57 1    
    52   27   58 1    
    53   28   33 ar   
    54   28   29 ar   
    55   29   30 ar   
    56   29   59 1    
    57   30   31 ar   
    58   30   60 1    
    59   31   36 1    
    60   31   32 ar   
    61   32   33 ar   
    62   32   34 1    
    63   33   61 1    
    64   34   35 1    
    65   35   36 1    
    66   35   62 1    
    67   35   63 1    
    68   37   64 1    
    69   37   65 1    
@<TRIPOS>SUBSTRUCTURE
     1 UNK         1 GROUP             0       ****    0 ROOT    
