@<TRIPOS>MOLECULE
ZINC12637947_1024
73   77    1
SMALL
USER_CHARGES


@<TRIPOS>ATOM
      1 C1          6.1723   55.2856   26.6620 C.3       1 UNK         0.0000 
      2 C2          4.8290   54.6937   26.2619 C.ar      1 UNK         0.0000 
      3 C3          3.7664   54.6421   27.1612 C.ar      1 UNK         0.0000 
      4 C4          2.5480   54.0833   26.7825 C.ar      1 UNK         0.0000 
      5 C5          2.3749   53.4764   25.5261 C.ar      1 UNK         0.0000 
      6 C6          3.4315   53.6311   24.5840 C.ar      1 UNK         0.0000 
      7 C7          4.6407   54.2201   24.9677 C.ar      1 UNK         0.0000 
      8 C8          3.3541   53.1294   23.1415 C.3       1 UNK         0.0000 
      9 N9          1.1294   52.8245   25.1878 N.am      1 UNK         0.0000 
     10 C10         0.4741   51.7315   26.0224 C.3       1 UNK         0.0000 
     11 H11        -0.5913   51.8381   25.9035 H         1 UNK         0.0000 
     12 C12         0.6186   51.8304   27.5401 C.ar      1 UNK         0.0000 
     13 C13        -0.5211   52.1016   28.3032 C.ar      1 UNK         0.0000 
     14 C14        -0.4354   52.2198   29.6879 C.ar      1 UNK         0.0000 
     15 C15         0.7796   52.0972   30.3375 C.ar      1 UNK         0.0000 
     16 C16         1.9353   51.8345   29.6033 C.ar      1 UNK         0.0000 
     17 C17         1.8296   51.6362   28.2206 C.ar      1 UNK         0.0000 
     18 O18         3.1177   51.7003   30.2924 O.3       1 UNK         0.0000 
     19 C19         4.3078   52.1677   29.6872 C.3       1 UNK         0.0000 
     20 O20         0.8106   52.2186   31.7027 O.3       1 UNK         0.0000 
     21 C21         0.6051   50.2841   25.4553 C.2       1 UNK         0.0000 
     22 O22         0.7046   49.3317   26.2245 O.2       1 UNK         0.0000 
     23 N23         0.6644   50.1444   24.1185 N.am      1 UNK         0.0000 
     24 C24         0.9128   48.9039   23.3874 C.3       1 UNK         0.0000 
     25 C25        -0.2542   48.5046   22.4686 C.3       1 UNK         0.0000 
     26 C26         0.2446   48.6746   21.0174 C.3       1 UNK         0.0000 
     27 C27         1.5722   49.4428   21.1068 C.3       1 UNK         0.0000 
     28 C28         2.1376   49.0719   22.4788 C.3       1 UNK         0.0000 
     29 C29         0.4146   53.4166   24.1673 C.2       1 UNK         0.0000 
     30 O30         0.7461   54.4958   23.6766 O.2       1 UNK         0.0000 
     31 C31        -0.8065   52.7375   23.5853 C.ar      1 UNK         0.0000 
     32 C32        -0.7343   52.1495   22.3101 C.ar      1 UNK         0.0000 
     33 C33        -1.8195   51.4539   21.7813 C.ar      1 UNK         0.0000 
     34 C34        -2.9707   51.2964   22.5453 C.ar      1 UNK         0.0000 
     35 C35        -3.0736   51.9236   23.7957 C.ar      1 UNK         0.0000 
     36 C36        -2.0199   52.6855   24.2876 C.ar      1 UNK         0.0000 
     37 O37        -4.2124   51.8333   24.5676 O.3       1 UNK         0.0000 
     38 C38        -4.9624   50.6429   24.3110 C.3       1 UNK         0.0000 
     39 C39        -5.1934   50.4854   22.7900 C.3       1 UNK         0.0000 
     40 O40        -3.9675   50.4858   22.0424 O.3       1 UNK         0.0000 
     41 H41         6.4455   56.0949   25.9820 H         1 UNK         0.0000 
     42 H42         6.1633   55.6833   27.6782 H         1 UNK         0.0000 
     43 H43         6.9496   54.5232   26.5933 H         1 UNK         0.0000 
     44 H44         3.8710   55.0546   28.1543 H         1 UNK         0.0000 
     45 H45         1.7351   54.1229   27.4903 H         1 UNK         0.0000 
     46 H46         5.4513   54.2939   24.2556 H         1 UNK         0.0000 
     47 H47         2.9244   53.8910   22.4904 H         1 UNK         0.0000 
     48 H48         4.3421   52.8865   22.7513 H         1 UNK         0.0000 
     49 H49         2.7563   52.2232   23.0601 H         1 UNK         0.0000 
     50 H50        -1.4838   52.2056   27.8257 H         1 UNK         0.0000 
     51 H51        -1.2956   52.4148   30.2875 H         1 UNK         0.0000 
     52 H52         2.7049   51.3639   27.6742 H         1 UNK         0.0000 
     53 H53         5.1050   51.7761   30.3044 H         1 UNK         0.0000 
     54 H54         4.4917   51.8218   28.6686 H         1 UNK         0.0000 
     55 H55         4.3490   53.2554   29.7058 H         1 UNK         0.0000 
     56 H56        -0.0489   52.0973   32.1354 H         1 UNK         0.0000 
     57 H57         0.5301   50.9638   23.5448 H         1 UNK         0.0000 
     58 H58         1.1033   48.1110   24.1100 H         1 UNK         0.0000 
     59 H59        -1.1635   49.0680   22.6774 H         1 UNK         0.0000 
     60 H60        -0.5018   47.4555   22.6293 H         1 UNK         0.0000 
     61 H61        -0.4810   49.1884   20.3859 H         1 UNK         0.0000 
     62 H62         0.4154   47.6997   20.5556 H         1 UNK         0.0000 
     63 H63         1.4031   50.5174   21.0511 H         1 UNK         0.0000 
     64 H64         2.2585   49.1879   20.2947 H         1 UNK         0.0000 
     65 H65         2.6583   48.1195   22.3908 H         1 UNK         0.0000 
     66 H66         2.8719   49.7737   22.8741 H         1 UNK         0.0000 
     67 H67         0.1718   52.2356   21.7238 H         1 UNK         0.0000 
     68 H68        -1.7537   50.9989   20.8048 H         1 UNK         0.0000 
     69 H69        -2.1313   53.1711   25.2487 H         1 UNK         0.0000 
     70 H70        -5.9136   50.6925   24.8431 H         1 UNK         0.0000 
     71 H71        -4.4170   49.7762   24.6870 H         1 UNK         0.0000 
     72 H72        -5.8328   51.2956   22.4457 H         1 UNK         0.0000 
     73 H73        -5.7269   49.5597   22.5827 H         1 UNK         0.0000 
@<TRIPOS>BOND
     1    1    2 1    
     2    1   41 1    
     3    1   42 1    
     4    1   43 1    
     5    2    7 ar   
     6    2    3 ar   
     7    3    4 ar   
     8    3   44 1    
     9    4    5 ar   
    10    4   45 1    
    11    5    6 ar   
    12    5    9 1    
    13    6    7 ar   
    14    6    8 1    
    15    7   46 1    
    16    8   47 1    
    17    8   48 1    
    18    8   49 1    
    19    9   10 1    
    20    9   29 am   BACKBONE|DICT|INTERRES
    21   10   11 1    
    22   10   12 1    
    23   10   21 1    
    24   12   17 ar   
    25   12   13 ar   
    26   13   14 ar   
    27   13   50 1    
    28   14   15 ar   
    29   14   51 1    
    30   15   16 ar   
    31   15   20 1    
    32   16   17 ar   
    33   16   18 1    
    34   17   52 1    
    35   18   19 1    
    36   19   53 1    
    37   19   54 1    
    38   19   55 1    
    39   20   56 1    
    40   21   22 2    
    41   21   23 am   BACKBONE|DICT|INTERRES
    42   23   24 1    
    43   23   57 1    
    44   24   28 1    
    45   24   25 1    
    46   24   58 1    
    47   25   26 1    
    48   25   59 1    
    49   25   60 1    
    50   26   27 1    
    51   26   61 1    
    52   26   62 1    
    53   27   28 1    
    54   27   63 1    
    55   27   64 1    
    56   28   65 1    
    57   28   66 1    
    58   29   30 2    
    59   29   31 1    
    60   31   36 ar   
    61   31   32 ar   
    62   32   33 ar   
    63   32   67 1    
    64   33   34 ar   
    65   33   68 1    
    66   34   40 1    
    67   34   35 ar   
    68   35   36 ar   
    69   35   37 1    
    70   36   69 1    
    71   37   38 1    
    72   38   39 1    
    73   38   70 1    
    74   38   71 1    
    75   39   40 1    
    76   39   72 1    
    77   39   73 1    
@<TRIPOS>SUBSTRUCTURE
     1 UNK         1 GROUP             0       ****    0 ROOT    
