@<TRIPOS>MOLECULE
ZINC13941996_2596
49   51    1
SMALL
USER_CHARGES


@<TRIPOS>ATOM
      1 C1          1.6072   52.0681   29.5016 C.3       1 UNK         0.0000 
      2 C2          1.3700   52.2204   28.0117 C.ar      1 UNK         0.0000 
      3 C3          2.1203   53.1388   27.2820 C.ar      1 UNK         0.0000 
      4 C4          1.8920   53.2967   25.9180 C.ar      1 UNK         0.0000 
      5 C5          0.8960   52.5574   25.2510 C.ar      1 UNK         0.0000 
      6 C6          0.1627   51.6270   26.0117 C.ar      1 UNK         0.0000 
      7 C7          0.3920   51.4602   27.3747 C.ar      1 UNK         0.0000 
      8 C8          0.6068   52.7555   23.7990 C.2       1 UNK         0.0000 
      9 N9         -0.2746   52.0084   23.2049 N.2       1 UNK         0.0000 
     10 N10        -0.5597   52.0967   21.9155 N.2       1 UNK         0.0000 
     11 C11         0.2611   51.6797   21.0135 C.2       1 UNK         0.0000 
     12 N12         1.4927   51.1390   21.2157 N.am      1 UNK         0.0000 
     13 C13         2.5049   50.7905   20.4030 C.2       1 UNK         0.0000 
     14 O14         3.5855   50.5012   20.8954 O.2       1 UNK         0.0000 
     15 C15         2.2648   50.8496   18.8806 C.3       1 UNK         0.0000 
     16 C16         0.7815   50.7019   18.4414 C.3       1 UNK         0.0000 
     17 H17         0.6787   50.8976   17.3736 H         1 UNK         0.0000 
     18 S18        -0.2837   51.9124   19.3048 S.3       1 UNK         0.0000 
     19 C19         0.2161   49.2594   18.6102 C.2       1 UNK         0.0000 
     20 O20        -0.8567   49.0691   19.1899 O.2       1 UNK         0.0000 
     21 N21         0.9384   48.2590   18.0533 N.am      1 UNK         0.0000 
     22 C22         0.6774   46.8763   18.1252 C.ar      1 UNK         0.0000 
     23 C23         1.1289   46.0773   17.0735 C.ar      1 UNK         0.0000 
     24 C24         0.9804   44.6909   17.1314 C.ar      1 UNK         0.0000 
     25 C25         0.3953   44.0817   18.2533 C.ar      1 UNK         0.0000 
     26 C26        -0.0966   44.8965   19.2811 C.ar      1 UNK         0.0000 
     27 C27         0.0535   46.2776   19.2276 C.ar      1 UNK         0.0000 
     28 C28         0.3375   42.5874   18.3822 C.2       1 UNK         0.0000 
     29 O29         0.0719   42.0975   19.5073 O.co2     1 UNK         0.0000 
     30 C30         1.4064   53.8789   23.1115 C.3       1 UNK         0.0000 
     31 H31         2.4416   51.3906   29.6813 H         1 UNK         0.0000 
     32 H32         1.8423   53.0332   29.9533 H         1 UNK         0.0000 
     33 H33         0.7157   51.6957   30.0105 H         1 UNK         0.0000 
     34 H34         2.8834   53.7302   27.7672 H         1 UNK         0.0000 
     35 H35         2.5037   54.0208   25.4015 H         1 UNK         0.0000 
     36 H36        -0.6100   51.0237   25.5563 H         1 UNK         0.0000 
     37 H37        -0.1959   50.7399   27.9288 H         1 UNK         0.0000 
     38 H38         1.7450   51.0417   22.1866 H         1 UNK         0.0000 
     39 H39         2.6383   51.8198   18.5526 H         1 UNK         0.0000 
     40 H40         2.9063   50.0990   18.4194 H         1 UNK         0.0000 
     41 H41         1.7457   48.5169   17.5015 H         1 UNK         0.0000 
     42 H42         1.6192   46.5221   16.2189 H         1 UNK         0.0000 
     43 H43         1.3632   44.0884   16.3190 H         1 UNK         0.0000 
     44 H44        -0.5558   44.4624   20.1584 H         1 UNK         0.0000 
     45 H45        -0.2866   46.8621   20.0691 H         1 UNK         0.0000 
     46 H46         1.2680   54.8310   23.6216 H         1 UNK         0.0000 
     47 H47         2.4687   53.6392   23.0779 H         1 UNK         0.0000 
     48 H48         1.1081   54.0533   22.0820 H         1 UNK         0.0000 
     49 O49         0.5601   41.8877   17.3700 O.co2     1 UNK         0.0000 
@<TRIPOS>BOND
     1    1    2 1    
     2    1   31 1    
     3    1   32 1    
     4    1   33 1    
     5    2    7 ar   
     6    2    3 ar   
     7    3    4 ar   
     8    3   34 1    
     9    4    5 ar   
    10    4   35 1    
    11    5    6 ar   
    12    5    8 1    
    13    6    7 ar   
    14    6   36 1    
    15    7   37 1    
    16    8    9 2    
    17    8   30 1    
    18    9   10 1    
    19   10   11 2    
    20   11   18 1    
    21   11   12 am   BACKBONE|DICT|INTERRES
    22   12   13 am   BACKBONE|DICT|INTERRES
    23   12   38 1    
    24   13   14 2    
    25   13   15 1    
    26   15   16 1    
    27   15   39 1    
    28   15   40 1    
    29   16   17 1    
    30   16   18 1    
    31   16   19 1    
    32   19   20 2    
    33   19   21 am   BACKBONE|DICT|INTERRES
    34   21   22 1    
    35   21   41 1    
    36   22   27 ar   
    37   22   23 ar   
    38   23   24 ar   
    39   23   42 1    
    40   24   25 ar   
    41   24   43 1    
    42   25   26 ar   
    43   25   28 1    
    44   26   27 ar   
    45   26   44 1    
    46   27   45 1    
    47   28   29 2    
    48   28   49 1    
    49   30   46 1    
    50   30   47 1    
    51   30   48 1    
@<TRIPOS>SUBSTRUCTURE
     1 UNK         1 GROUP             0       ****    0 ROOT    
