@<TRIPOS>MOLECULE
ZINC31776101_6066
52   55    1
SMALL
USER_CHARGES


@<TRIPOS>ATOM
      1 C1          7.8807   52.3461   15.5703 C.3       1 UNK         0.0000 
      2 C2          6.5294   53.0770   15.5623 C.3       1 UNK         0.0000 
      3 O3          6.0563   53.2939   16.8874 O.3       1 UNK         0.0000 
      4 C4          6.4978   54.3234   17.6539 C.2       1 UNK         0.0000 
      5 O5          7.2719   55.1939   17.2469 O.2       1 UNK         0.0000 
      6 C6          5.9726   54.2785   19.0584 C.ar      1 UNK         0.0000 
      7 C7          6.3857   55.2539   19.9739 C.ar      1 UNK         0.0000 
      8 C8          5.9628   55.2012   21.2982 C.ar      1 UNK         0.0000 
      9 C9          5.1121   54.1757   21.7323 C.ar      1 UNK         0.0000 
     10 C10         4.6942   53.2039   20.8186 C.ar      1 UNK         0.0000 
     11 C11         5.1077   53.2628   19.4919 C.ar      1 UNK         0.0000 
     12 N12         4.6814   54.0959   23.1118 N.pl3     1 UNK         0.0000 
     13 C13         5.7931   54.0984   24.0815 C.3       1 UNK         0.0000 
     14 C14         5.3531   54.1840   25.5240 C.ar      1 UNK         0.0000 
     15 C15         6.3028   54.3278   26.5417 C.ar      1 UNK         0.0000 
     16 C16         5.9144   54.4374   27.8728 C.ar      1 UNK         0.0000 
     17 C17         4.5626   54.5011   28.1869 C.ar      1 UNK         0.0000 
     18 C18         3.6134   54.3933   27.1731 C.ar      1 UNK         0.0000 
     19 C19         3.9929   54.1020   25.8537 C.ar      1 UNK         0.0000 
     20 C20         3.0155   53.7000   24.7945 C.2       1 UNK         0.0000 
     21 C21         1.8262   53.0583   25.0320 C.2       1 UNK         0.0000 
     22 C22         1.1300   52.5480   26.2482 C.ar      1 UNK         0.0000 
     23 C23         1.7840   52.0964   27.4019 C.ar      1 UNK         0.0000 
     24 C24         1.0670   51.7054   28.5262 C.ar      1 UNK         0.0000 
     25 C25        -0.3208   51.7334   28.4973 C.ar      1 UNK         0.0000 
     26 C26        -0.9942   52.0956   27.3358 C.ar      1 UNK         0.0000 
     27 C27        -0.2691   52.4966   26.2174 C.ar      1 UNK         0.0000 
     28 Br28       -1.2956   51.2967   30.0676 Br        1 UNK         0.0000 
     29 C29         3.3648   53.9607   23.4509 C.2       1 UNK         0.0000 
     30 N30         2.4418   54.0968   22.4827 N.pl3     1 UNK         0.0000 
     31 H31         8.2068   52.1204   14.5552 H         1 UNK         0.0000 
     32 H32         8.6573   52.9481   16.0423 H         1 UNK         0.0000 
     33 H33         7.8117   51.4035   16.1144 H         1 UNK         0.0000 
     34 H34         5.7936   52.4617   15.0435 H         1 UNK         0.0000 
     35 H35         6.5945   54.0161   15.0100 H         1 UNK         0.0000 
     36 H36         7.0513   56.0508   19.6702 H         1 UNK         0.0000 
     37 H37         6.3044   55.9698   21.9756 H         1 UNK         0.0000 
     38 H38         4.0561   52.3877   21.1281 H         1 UNK         0.0000 
     39 H39         4.7701   52.4890   18.8149 H         1 UNK         0.0000 
     40 H40         6.3753   53.1960   23.9108 H         1 UNK         0.0000 
     41 H41         6.4489   54.9424   23.8719 H         1 UNK         0.0000 
     42 H42         7.3549   54.3309   26.3007 H         1 UNK         0.0000 
     43 H43         6.6601   54.4989   28.6533 H         1 UNK         0.0000 
     44 H44         4.2518   54.6503   29.2104 H         1 UNK         0.0000 
     45 H45         2.5720   54.4839   27.4403 H         1 UNK         0.0000 
     46 H46         1.2545   52.8076   24.1528 H         1 UNK         0.0000 
     47 H47         2.8597   52.0474   27.4459 H         1 UNK         0.0000 
     48 H48         1.5822   51.3900   29.4201 H         1 UNK         0.0000 
     49 H49        -2.0738   52.0844   27.3107 H         1 UNK         0.0000 
     50 H50        -0.8113   52.8013   25.3335 H         1 UNK         0.0000 
     51 H51         2.7280   54.3188   21.5346 H         1 UNK         0.0000 
     52 H52         1.4575   54.0616   22.6965 H         1 UNK         0.0000 
@<TRIPOS>BOND
     1    1    2 1    
     2    1   31 1    
     3    1   32 1    
     4    1   33 1    
     5    2    3 1    
     6    2   34 1    
     7    2   35 1    
     8    3    4 1    
     9    4    5 2    
    10    4    6 1    
    11    6   11 ar   
    12    6    7 ar   
    13    7    8 ar   
    14    7   36 1    
    15    8    9 ar   
    16    8   37 1    
    17    9   10 ar   
    18    9   12 1    
    19   10   11 ar   
    20   10   38 1    
    21   11   39 1    
    22   12   29 1    
    23   12   13 1    
    24   13   14 1    
    25   13   40 1    
    26   13   41 1    
    27   14   19 ar   
    28   14   15 ar   
    29   15   16 ar   
    30   15   42 1    
    31   16   17 ar   
    32   16   43 1    
    33   17   18 ar   
    34   17   44 1    
    35   18   19 ar   
    36   18   45 1    
    37   19   20 1    
    38   20   21 2    
    39   20   29 1    
    40   21   22 1    
    41   21   46 1    
    42   22   27 ar   
    43   22   23 ar   
    44   23   24 ar   
    45   23   47 1    
    46   24   25 ar   
    47   24   48 1    
    48   25   26 ar   
    49   25   28 1    
    50   26   27 ar   
    51   26   49 1    
    52   27   50 1    
    53   29   30 2    
    54   30   51 1    
    55   30   52 1    
@<TRIPOS>SUBSTRUCTURE
     1 UNK         1 GROUP             0       ****    0 ROOT    
