ZINC09898734_5182
                    3D
 Schrodinger Suite 2024-2.
 51 54  0  0  1  0            999 V2000
    1.9020   52.1007   31.1177 C   0  0  0  0  0  0
    2.4031   52.1905   29.8137 C   0  0  0  0  0  0
    1.6613   53.0136   28.9570 C   0  0  0  0  0  0
    0.3044   53.6696   29.8344 S   0  0  0  0  0  0
    0.7385   52.8277   31.2806 C   0  0  0  0  0  0
    1.8715   53.3550   27.4824 C   0  0  1  0  0  0
    1.2746   54.2414   27.2545 H   0  0  0  0  0  0
    3.3090   53.7844   27.0913 C   0  0  0  0  0  0
    4.2751   54.0958   28.0642 C   0  0  0  0  0  0
    5.5572   54.4967   27.6985 C   0  0  0  0  0  0
    5.8784   54.6271   26.3530 C   0  0  0  0  0  0
    4.9383   54.3412   25.3725 C   0  0  0  0  0  0
    3.6655   53.9189   25.7406 C   0  0  0  0  0  0
    7.1044   55.0576   25.9931 F   0  0  0  0  0  0
    1.2987   52.2369   26.7140 N   0  0  0  0  0  0
    0.7044   52.2645   25.5025 C   0  0  0  0  0  0
    0.6209   53.2933   24.8289 O   0  0  0  0  0  0
    0.1203   50.9587   24.9917 C   0  0  0  0  0  0
    0.0902   49.7963   25.7825 C   0  0  0  0  0  0
   -0.4508   48.6150   25.2828 C   0  0  0  0  0  0
   -0.9882   48.5720   24.0023 C   0  0  0  0  0  0
   -0.9818   49.7178   23.2088 C   0  0  0  0  0  0
   -0.4274   50.9002   23.6989 C   0  0  0  0  0  0
   -1.4903   47.3610   23.5162 N   0  0  0  0  0  0
   -3.2167   47.0671   23.2589 S   0  0  0  0  0  0
   -3.8307   48.3288   22.8335 O   0  0  0  0  0  0
   -3.2898   45.8650   22.4200 O   0  0  0  0  0  0
   -3.9294   46.6183   24.8445 C   0  0  0  0  0  0
   -4.8602   45.5757   24.9017 C   0  0  0  0  0  0
   -5.3906   45.1854   26.1283 C   0  0  0  0  0  0
   -5.0015   45.8462   27.2912 C   0  0  0  0  0  0
   -4.0958   46.9026   27.2362 C   0  0  0  0  0  0
   -3.5702   47.3004   26.0105 C   0  0  0  0  0  0
   -5.5179   45.4657   28.4811 F   0  0  0  0  0  0
    2.3534   51.5264   31.9153 H   0  0  0  0  0  0
    3.2951   51.6749   29.4892 H   0  0  0  0  0  0
    0.1234   52.9056   32.1670 H   0  0  0  0  0  0
    4.0515   54.0504   29.1176 H   0  0  0  0  0  0
    6.2923   54.7353   28.4538 H   0  0  0  0  0  0
    5.1956   54.4482   24.3292 H   0  0  0  0  0  0
    2.9692   53.7112   24.9472 H   0  0  0  0  0  0
    1.4880   51.3261   27.1003 H   0  0  0  0  0  0
    0.4635   49.7810   26.7962 H   0  0  0  0  0  0
   -0.4950   47.7380   25.9145 H   0  0  0  0  0  0
   -1.3956   49.6904   22.2107 H   0  0  0  0  0  0
   -0.4284   51.7733   23.0610 H   0  0  0  0  0  0
   -0.8963   46.5493   23.5558 H   0  0  0  0  0  0
   -5.1696   45.0637   24.0017 H   0  0  0  0  0  0
   -6.1036   44.3767   26.1843 H   0  0  0  0  0  0
   -3.7932   47.4155   28.1390 H   0  0  0  0  0  0
   -2.8853   48.1332   25.9891 H   0  0  0  0  0  0
  1  5  2  0  0  0
  1  2  1  0  0  0
  1 35  1  0  0  0
  2  3  2  0  0  0
  2 36  1  0  0  0
  3  4  1  0  0  0
  3  6  1  0  0  0
  4  5  1  0  0  0
  5 37  1  0  0  0
  6  7  1  0  0  0
  6  8  1  0  0  0
  6 15  1  0  0  0
  8 13  2  0  0  0
  8  9  1  0  0  0
  9 10  2  0  0  0
  9 38  1  0  0  0
 10 11  1  0  0  0
 10 39  1  0  0  0
 11 12  2  0  0  0
 11 14  1  0  0  0
 12 13  1  0  0  0
 12 40  1  0  0  0
 13 41  1  0  0  0
 15 16  1  0  0  0
 15 42  1  0  0  0
 16 17  2  0  0  0
 16 18  1  0  0  0
 18 23  2  0  0  0
 18 19  1  0  0  0
 19 20  2  0  0  0
 19 43  1  0  0  0
 20 21  1  0  0  0
 20 44  1  0  0  0
 21 22  2  0  0  0
 21 24  1  0  0  0
 22 23  1  0  0  0
 22 45  1  0  0  0
 23 46  1  0  0  0
 24 25  1  0  0  0
 24 47  1  0  0  0
 25 26  2  0  0  0
 25 27  2  0  0  0
 25 28  1  0  0  0
 28 33  2  0  0  0
 28 29  1  0  0  0
 29 30  2  0  0  0
 29 48  1  0  0  0
 30 31  1  0  0  0
 30 49  1  0  0  0
 31 32  2  0  0  0
 31 34  1  0  0  0
 32 33  1  0  0  0
 32 50  1  0  0  0
 33 51  1  0  0  0
M  END
> <i_i_glide_confnum>
177

> <i_i_glide_lignum>
5183

> <i_i_glide_posenum>
342

> <i_i_glide_rotatable_bonds>
8

> <i_m_Source_File_Index>
1252

> <b_m_subgroup_collapsed>
0

> <r_i_docking_score>
-4.59128

> <r_i_glide_ecoul>
-6.95332

> <r_i_glide_eff_state_penalty>
0

> <r_i_glide_einternal>
11.3439

> <r_i_glide_emodel>
-56.9112

> <r_i_glide_energy>
-48.1817

> <r_i_glide_erotb>
0.692009

> <r_i_glide_esite>
-0.151799

> <r_i_glide_evdw>
-41.2284

> <r_i_glide_gscore>
-4.59128

> <r_i_glide_hbond>
-0.163406

> <r_i_glide_ligand_efficiency>
-0.13913

> <r_i_glide_ligand_efficiency_ln>
-1.02108

> <r_i_glide_ligand_efficiency_sa>
-0.446263

> <r_i_glide_lipo>
-2.11428

> <r_i_glide_metal>
0

> <r_i_glide_rewards>
0.250614

> <s_i_glide_gridfile>
wee1_glide-grid

> <s_m_Source_File>
wee1_decoys_glide_SP.sdf

> <s_m_Source_Path>
/Users/zhangxujun/Desktop

> <s_m_entry_id>
1527

> <s_m_entry_name>
wee1_decoys_glide_SP.1252

> <s_m_subgroup_title>
wee1_decoys_glide_SP

> <s_m_subgroupid>
wee1_decoys_glide_SP


$$$$
