ZINC39693324_401
                    3D
 Schrodinger Suite 2024-2.
 76 80  0  0  1  0            999 V2000
    2.7724   57.0056   16.2853 C   0  0  0  0  0  0
    2.4674   55.6616   16.4551 C   0  0  0  0  0  0
    3.2854   54.8414   17.2283 C   0  0  0  0  0  0
    4.4412   55.3606   17.8804 C   0  0  0  0  0  0
    4.7502   56.7476   17.6863 C   0  0  0  0  0  0
    3.9025   57.5515   16.8826 C   0  0  0  0  0  0
    5.9049   57.2971   18.2952 C   0  0  0  0  0  0
    6.7353   56.5021   19.0757 C   0  0  0  0  0  0
    6.4473   55.1579   19.2683 C   0  0  0  0  0  0
    5.3209   54.5657   18.6941 C   0  0  0  0  0  0
    5.1116   53.0560   18.8813 C   0  0  0  0  0  0
    3.8620   52.6503   19.6799 C   0  0  0  0  0  0
    3.6277   53.1524   20.7794 O   0  0  0  0  0  0
    3.1044   51.6969   19.1039 N   0  0  0  0  0  0
    1.8602   51.0876   19.5707 C   0  0  0  0  0  0
    0.7594   52.0613   20.0362 C   0  0  0  0  0  0
    0.9442   52.4963   21.4206 N   0  0  0  0  0  0
    0.0002   52.4072   22.3682 C   0  0  0  0  0  0
   -1.1556   52.0828   22.0927 O   0  0  0  0  0  0
    0.3061   52.8320   23.8242 C   0  0  2  0  0  0
   -0.2867   53.7327   23.9913 H   0  0  0  0  0  0
    1.7791   53.2297   24.0539 C   0  0  0  0  0  0
    1.9043   53.1324   25.5159 N   0  0  0  0  0  0
    0.8286   52.3080   26.0843 C   0  0  0  0  0  0
    0.0358   51.7350   24.8859 C   0  0  0  0  0  0
    0.5590   50.3209   24.4670 C   0  0  0  0  0  0
    0.4390   49.2895   25.6099 C   0  0  0  0  0  0
   -1.0340   49.2536   26.0816 N   0  3  0  0  0  0
   -1.6772   50.6209   26.3977 C   0  0  0  0  0  0
   -1.4717   51.5364   25.1820 C   0  0  0  0  0  0
    2.8250   53.8657   26.2045 C   0  0  0  0  0  0
    3.6530   54.5543   25.6028 O   0  0  0  0  0  0
    2.9139   53.8607   27.7610 C   0  0  2  0  0  0
    3.7031   54.5851   27.9777 H   0  0  0  0  0  0
    3.4627   52.5066   28.2744 C   0  0  0  0  0  0
    3.5263   52.4426   29.8128 C   0  0  0  0  0  0
    2.2119   52.8943   30.4228 C   0  0  0  0  0  0
    1.3870   53.7772   29.8311 C   0  0  0  0  0  0
    1.6539   54.4437   28.4839 C   0  0  0  0  0  0
    2.1301   57.6327   15.6846 H   0  0  0  0  0  0
    1.5906   55.2487   15.9779 H   0  0  0  0  0  0
    3.0279   53.7990   17.3250 H   0  0  0  0  0  0
    4.1339   58.5990   16.7446 H   0  0  0  0  0  0
    6.1357   58.3436   18.1451 H   0  0  0  0  0  0
    7.6231   56.9241   19.5222 H   0  0  0  0  0  0
    7.1252   54.5669   19.8657 H   0  0  0  0  0  0
    5.1037   52.5978   17.8908 H   0  0  0  0  0  0
    5.9625   52.6100   19.3934 H   0  0  0  0  0  0
    3.5587   51.2157   18.3310 H   0  0  0  0  0  0
    1.4684   50.3568   18.8624 H   0  0  0  0  0  0
    2.1614   50.4798   20.4268 H   0  0  0  0  0  0
    0.8517   52.9773   19.4501 H   0  0  0  0  0  0
   -0.2326   51.6858   19.7773 H   0  0  0  0  0  0
    1.8416   52.9268   21.6193 H   0  0  0  0  0  0
    2.4411   52.4786   23.6202 H   0  0  0  0  0  0
    1.9811   54.2233   23.6465 H   0  0  0  0  0  0
    0.1255   52.9803   26.5637 H   0  0  0  0  0  0
    1.1034   51.5790   26.8393 H   0  0  0  0  0  0
    0.0538   49.9508   23.5727 H   0  0  0  0  0  0
    1.6115   50.3802   24.1896 H   0  0  0  0  0  0
    0.6830   48.2759   25.2834 H   0  0  0  0  0  0
    1.0499   49.5137   26.4840 H   0  0  0  0  0  0
   -1.5980   48.7664   25.4018 H   0  0  0  0  0  0
   -2.7296   50.4179   26.6061 H   0  0  0  0  0  0
   -1.2053   50.9810   27.3135 H   0  0  0  0  0  0
   -1.9194   52.5015   25.4230 H   0  0  0  0  0  0
   -2.0219   51.1745   24.3120 H   0  0  0  0  0  0
    2.8181   51.6751   27.9938 H   0  0  0  0  0  0
    4.4830   52.3534   27.9180 H   0  0  0  0  0  0
    4.3267   53.0816   30.1825 H   0  0  0  0  0  0
    3.7801   51.4303   30.1285 H   0  0  0  0  0  0
    1.9233   52.4979   31.3873 H   0  0  0  0  0  0
    0.4809   54.0363   30.3597 H   0  0  0  0  0  0
    1.6918   55.5330   28.5472 H   0  0  0  0  0  0
    0.7409   54.2234   27.9457 H   0  0  0  0  0  0
   -1.1140   48.7177   26.9650 H   0  0  0  0  0  0
  1  6  2  0  0  0
  1  2  1  0  0  0
  1 40  1  0  0  0
  2  3  2  0  0  0
  2 41  1  0  0  0
  3  4  1  0  0  0
  3 42  1  0  0  0
  4 10  2  0  0  0
  4  5  1  0  0  0
  5  6  1  0  0  0
  5  7  2  0  0  0
  6 43  1  0  0  0
  7  8  1  0  0  0
  7 44  1  0  0  0
  8  9  2  0  0  0
  8 45  1  0  0  0
  9 10  1  0  0  0
  9 46  1  0  0  0
 10 11  1  0  0  0
 11 12  1  0  0  0
 11 47  1  0  0  0
 11 48  1  0  0  0
 12 13  2  0  0  0
 12 14  1  0  0  0
 14 15  1  0  0  0
 14 49  1  0  0  0
 15 16  1  0  0  0
 15 50  1  0  0  0
 15 51  1  0  0  0
 16 17  1  0  0  0
 16 52  1  0  0  0
 16 53  1  0  0  0
 17 18  1  0  0  0
 17 54  1  0  0  0
 18 19  2  0  0  0
 18 20  1  0  0  0
 20 21  1  0  0  0
 20 25  1  0  0  0
 20 22  1  0  0  0
 22 23  1  0  0  0
 22 55  1  0  0  0
 22 56  1  0  0  0
 23 24  1  0  0  0
 23 31  1  0  0  0
 24 25  1  0  0  0
 24 57  1  0  0  0
 24 58  1  0  0  0
 25 30  1  0  0  0
 25 26  1  0  0  0
 26 27  1  0  0  0
 26 59  1  0  0  0
 26 60  1  0  0  0
 27 28  1  0  0  0
 27 61  1  0  0  0
 27 62  1  0  0  0
 28 29  1  0  0  0
 28 63  1  0  0  0
 28 76  1  0  0  0
 29 30  1  0  0  0
 29 64  1  0  0  0
 29 65  1  0  0  0
 30 66  1  0  0  0
 30 67  1  0  0  0
 31 32  2  0  0  0
 31 33  1  0  0  0
 33 34  1  0  0  0
 33 39  1  0  0  0
 33 35  1  0  0  0
 35 36  1  0  0  0
 35 68  1  0  0  0
 35 69  1  0  0  0
 36 37  1  0  0  0
 36 70  1  0  0  0
 36 71  1  0  0  0
 37 38  2  0  0  0
 37 72  1  0  0  0
 38 39  1  0  0  0
 38 73  1  0  0  0
 39 74  1  0  0  0
 39 75  1  0  0  0
M  CHG  1  28   1
M  END
> <i_i_glide_confnum>
420

> <i_i_glide_lignum>
402

> <i_i_glide_posenum>
398

> <i_i_glide_rotatable_bonds>
10

> <i_m_Source_File_Index>
3464

> <b_m_subgroup_collapsed>
0

> <r_i_docking_score>
-5.5016

> <r_i_glide_ecoul>
-9.42865

> <r_i_glide_eff_state_penalty>
0

> <r_i_glide_einternal>
14.7404

> <r_i_glide_emodel>
-59.2843

> <r_i_glide_energy>
-47.3816

> <r_i_glide_erotb>
0.725246

> <r_i_glide_esite>
-0.243927

> <r_i_glide_evdw>
-37.9529

> <r_i_glide_gscore>
-5.5016

> <r_i_glide_hbond>
-0.288622

> <r_i_glide_ligand_efficiency>
-0.148692

> <r_i_glide_ligand_efficiency_ln>
-1.19317

> <r_i_glide_ligand_efficiency_sa>
-0.495474

> <r_i_glide_lipo>
-1.82329

> <r_i_glide_metal>
0

> <r_i_glide_rewards>
-0.559057

> <s_i_glide_gridfile>
wee1_glide-grid

> <s_m_Source_File>
wee1_decoys_glide_SP.sdf

> <s_m_Source_Path>
/Users/zhangxujun/Desktop

> <s_m_entry_id>
3739

> <s_m_entry_name>
wee1_decoys_glide_SP.3464

> <s_m_subgroup_title>
wee1_decoys_glide_SP

> <s_m_subgroupid>
wee1_decoys_glide_SP


$$$$
