@<TRIPOS>MOLECULE
ZINC08781320_5278
48   50    1
SMALL
USER_CHARGES


@<TRIPOS>ATOM
      1 C1          0.9116   49.9638   17.6577 C.3       1 UNK         0.0000 
      2 C2          1.2133   50.9497   18.7960 C.3       1 UNK         0.0000 
      3 H3          1.6330   51.8559   18.3535 H         1 UNK         0.0000 
      4 C4         -0.0318   51.3142   19.6562 C.3       1 UNK         0.0000 
      5 H5         -0.4932   50.3980   20.0306 H         1 UNK         0.0000 
      6 O6          0.3756   52.1169   20.7713 O.3       1 UNK         0.0000 
      7 C7          1.3133   51.4404   21.5655 C.3       1 UNK         0.0000 
      8 H8          0.8163   50.5465   21.9584 H         1 UNK         0.0000 
      9 C9          2.5712   51.1261   20.7229 C.3       1 UNK         0.0000 
     10 H10         3.2981   50.4961   21.2445 H         1 UNK         0.0000 
     11 O11         2.1981   50.3340   19.6320 O.3       1 UNK         0.0000 
     12 N12         3.2705   52.3487   20.3770 N.am      1 UNK         0.0000 
     13 C13         4.4735   52.7403   20.8368 C.2       1 UNK         0.0000 
     14 O14         5.1045   52.1045   21.6817 O.2       1 UNK         0.0000 
     15 C15         5.0037   54.0518   20.3086 C.ar      1 UNK         0.0000 
     16 C16         4.7068   54.4911   19.0085 C.ar      1 UNK         0.0000 
     17 C17         5.2214   55.6977   18.5392 C.ar      1 UNK         0.0000 
     18 C18         6.0335   56.4712   19.3655 C.ar      1 UNK         0.0000 
     19 C19         6.3476   56.0393   20.6509 C.ar      1 UNK         0.0000 
     20 C20         5.8331   54.8378   21.1216 C.ar      1 UNK         0.0000 
     21 Br21        6.7064   58.1407   18.7536 Br        1 UNK         0.0000 
     22 N22         1.7199   52.1249   22.7607 N.am      1 UNK         0.0000 
     23 C23         0.9309   52.4551   23.7998 C.2       1 UNK         0.0000 
     24 O24        -0.2888   52.2805   23.8062 O.2       1 UNK         0.0000 
     25 C25         1.6477   52.9859   25.0207 C.ar      1 UNK         0.0000 
     26 C26         2.8528   53.6990   24.9119 C.ar      1 UNK         0.0000 
     27 C27         3.5067   54.1513   26.0547 C.ar      1 UNK         0.0000 
     28 C28         2.9601   53.9073   27.3119 C.ar      1 UNK         0.0000 
     29 C29         1.7606   53.2110   27.4337 C.ar      1 UNK         0.0000 
     30 C30         1.1071   52.7524   26.2928 C.ar      1 UNK         0.0000 
     31 Br31        3.8543   54.5318   28.8720 Br        1 UNK         0.0000 
     32 C32        -1.1032   52.0964   18.8809 C.3       1 UNK         0.0000 
     33 H33         0.2340   50.3901   16.9195 H         1 UNK         0.0000 
     34 H34         1.8313   49.6914   17.1362 H         1 UNK         0.0000 
     35 H35         0.4667   49.0420   18.0365 H         1 UNK         0.0000 
     36 H36         2.7913   52.9697   19.7431 H         1 UNK         0.0000 
     37 H37         4.0907   53.8998   18.3464 H         1 UNK         0.0000 
     38 H38         4.9851   56.0372   17.5414 H         1 UNK         0.0000 
     39 H39         6.9853   56.6293   21.2890 H         1 UNK         0.0000 
     40 H40         6.0906   54.5174   22.1217 H         1 UNK         0.0000 
     41 H41         2.7011   52.3482   22.8259 H         1 UNK         0.0000 
     42 H42         3.2973   53.9082   23.9492 H         1 UNK         0.0000 
     43 H43         4.4379   54.6922   25.9678 H         1 UNK         0.0000 
     44 H44         1.3404   53.0211   28.4104 H         1 UNK         0.0000 
     45 H45         0.1815   52.2037   26.4061 H         1 UNK         0.0000 
     46 H46        -1.5036   51.5161   18.0487 H         1 UNK         0.0000 
     47 H47        -1.9392   52.3474   19.5322 H         1 UNK         0.0000 
     48 H48        -0.6999   53.0268   18.4811 H         1 UNK         0.0000 
@<TRIPOS>BOND
     1    1    2 1    
     2    1   33 1    
     3    1   34 1    
     4    1   35 1    
     5    2    3 1    
     6    2   11 1    
     7    2    4 1    
     8    4    5 1    
     9    4    6 1    
    10    4   32 1    
    11    6    7 1    
    12    7    8 1    
    13    7    9 1    
    14    7   22 1    
    15    9   10 1    
    16    9   11 1    
    17    9   12 1    
    18   12   13 am   BACKBONE|DICT|INTERRES
    19   12   36 1    
    20   13   14 2    
    21   13   15 1    
    22   15   20 ar   
    23   15   16 ar   
    24   16   17 ar   
    25   16   37 1    
    26   17   18 ar   
    27   17   38 1    
    28   18   19 ar   
    29   18   21 1    
    30   19   20 ar   
    31   19   39 1    
    32   20   40 1    
    33   22   23 am   BACKBONE|DICT|INTERRES
    34   22   41 1    
    35   23   24 2    
    36   23   25 1    
    37   25   30 ar   
    38   25   26 ar   
    39   26   27 ar   
    40   26   42 1    
    41   27   28 ar   
    42   27   43 1    
    43   28   29 ar   
    44   28   31 1    
    45   29   30 ar   
    46   29   44 1    
    47   30   45 1    
    48   32   46 1    
    49   32   47 1    
    50   32   48 1    
@<TRIPOS>SUBSTRUCTURE
     1 UNK         1 GROUP             0       ****    0 ROOT    
