@<TRIPOS>MOLECULE
ZINC39624659_129
62   65    1
SMALL
USER_CHARGES


@<TRIPOS>ATOM
      1 C1          2.6463   58.0758   16.4326 C.3       1 UNK         0.0000 
      2 C2          3.2726   58.5373   15.0993 C.3       1 UNK         0.0000 
      3 C3          2.4534   59.6999   14.5072 C.3       1 UNK         0.0000 
      4 C4          4.7685   58.9334   15.2279 C.3       1 UNK         0.0000 
      5 N5          5.6841   57.8289   15.5110 N.am      1 UNK         0.0000 
      6 C6          5.9795   57.3774   16.7405 C.2       1 UNK         0.0000 
      7 O7          5.5145   57.8731   17.7648 O.2       1 UNK         0.0000 
      8 C8          7.0042   56.2188   16.8179 C.3       1 UNK         0.0000 
      9 H9          7.6879   56.3055   15.9714 H         1 UNK         0.0000 
     10 C10         7.7485   56.1955   18.1716 C.3       1 UNK         0.0000 
     11 N11         6.8751   55.3959   19.0459 N.am      1 UNK         0.0000 
     12 C12         5.8887   54.6439   18.2666 C.3       1 UNK         0.0000 
     13 C13         6.3046   54.8283   16.7806 C.3       1 UNK         0.0000 
     14 C14         7.3601   53.7801   16.3078 C.3       1 UNK         0.0000 
     15 C15         6.8612   52.3371   16.4732 C.3       1 UNK         0.0000 
     16 N16         5.5429   52.1628   15.6787 N.4       1 UNK         0.0000 
     17 C17         4.4770   53.2485   15.9387 C.3       1 UNK         0.0000 
     18 C18         5.1347   54.6325   15.7700 C.3       1 UNK         0.0000 
     19 C19         6.9725   55.4924   20.3976 C.2       1 UNK         0.0000 
     20 O20         7.9056   56.0962   20.9286 O.2       1 UNK         0.0000 
     21 C21         5.9755   54.8783   21.2587 C.2       1 UNK         0.0000 
     22 C22         4.7201   54.2935   21.0697 C.2       1 UNK         0.0000 
     23 C23         4.2431   53.9377   22.3311 C.2       1 UNK         0.0000 
     24 C24         5.1992   54.3250   23.2585 C.2       1 UNK         0.0000 
     25 O25         6.2423   54.8874   22.5959 O.3       1 UNK         0.0000 
     26 C26         5.2609   54.3073   24.7488 C.ar      1 UNK         0.0000 
     27 C27         6.4712   54.5070   25.4219 C.ar      1 UNK         0.0000 
     28 C28         6.5058   54.4962   26.8159 C.ar      1 UNK         0.0000 
     29 C29         5.3297   54.2915   27.5330 C.ar      1 UNK         0.0000 
     30 C30         4.1213   54.0972   26.8707 C.ar      1 UNK         0.0000 
     31 C31         4.0862   54.1014   25.4792 C.ar      1 UNK         0.0000 
     32 F32         5.3599   54.2857   28.8835 F         1 UNK         0.0000 
     33 H33         2.7989   58.8182   17.2180 H         1 UNK         0.0000 
     34 H34         1.5721   57.9126   16.3397 H         1 UNK         0.0000 
     35 H35         3.0751   57.1392   16.7820 H         1 UNK         0.0000 
     36 H36         3.2062   57.7064   14.3948 H         1 UNK         0.0000 
     37 H37         2.4609   60.5663   15.1696 H         1 UNK         0.0000 
     38 H38         2.8469   60.0184   13.5422 H         1 UNK         0.0000 
     39 H39         1.4123   59.4129   14.3543 H         1 UNK         0.0000 
     40 H40         4.8868   59.6965   15.9956 H         1 UNK         0.0000 
     41 H41         5.1042   59.4101   14.3061 H         1 UNK         0.0000 
     42 H42         6.1482   57.4176   14.7162 H         1 UNK         0.0000 
     43 H43         8.7115   55.7025   18.0381 H         1 UNK         0.0000 
     44 H44         7.9341   57.2114   18.5272 H         1 UNK         0.0000 
     45 H45         4.9295   55.1486   18.3888 H         1 UNK         0.0000 
     46 H46         5.7406   53.6104   18.5715 H         1 UNK         0.0000 
     47 H47         8.2604   53.8508   16.9193 H         1 UNK         0.0000 
     48 H48         7.6963   53.9747   15.2879 H         1 UNK         0.0000 
     49 H49         6.6600   52.0967   17.5149 H         1 UNK         0.0000 
     50 H50         7.5633   51.6003   16.0778 H         1 UNK         0.0000 
     51 H51         5.1411   51.2608   15.9121 H         1 UNK         0.0000 
     52 H52         4.0884   53.0653   16.9419 H         1 UNK         0.0000 
     53 H53         3.6768   53.0725   15.2187 H         1 UNK         0.0000 
     54 H54         5.4512   54.8098   14.7413 H         1 UNK         0.0000 
     55 H55         4.3496   55.3637   15.9589 H         1 UNK         0.0000 
     56 H56         4.1778   54.1482   20.1483 H         1 UNK         0.0000 
     57 H57         3.2918   53.4726   22.5432 H         1 UNK         0.0000 
     58 H58         7.3854   54.6644   24.8670 H         1 UNK         0.0000 
     59 H59         7.4328   54.6459   27.3507 H         1 UNK         0.0000 
     60 H60         3.2154   53.9415   27.4371 H         1 UNK         0.0000 
     61 H61         3.1428   53.9467   24.9757 H         1 UNK         0.0000 
     62 H62         5.7554   52.1397   14.6913 H         1 UNK         0.0000 
@<TRIPOS>BOND
     1    1    2 1    
     2    1   33 1    
     3    1   34 1    
     4    1   35 1    
     5    2    3 1    
     6    2    4 1    
     7    2   36 1    
     8    3   37 1    
     9    3   38 1    
    10    3   39 1    
    11    4    5 1    
    12    4   40 1    
    13    4   41 1    
    14    5    6 am   BACKBONE|DICT|INTERRES
    15    5   42 1    
    16    6    7 2    
    17    6    8 1    
    18    8    9 1    
    19    8   13 1    
    20    8   10 1    
    21   10   11 1    
    22   10   43 1    
    23   10   44 1    
    24   11   12 1    
    25   11   19 am   BACKBONE|DICT|INTERRES
    26   12   13 1    
    27   12   45 1    
    28   12   46 1    
    29   13   18 1    
    30   13   14 1    
    31   14   15 1    
    32   14   47 1    
    33   14   48 1    
    34   15   16 1    
    35   15   49 1    
    36   15   50 1    
    37   16   17 1    
    38   16   51 1    
    39   16   62 1    
    40   17   18 1    
    41   17   52 1    
    42   17   53 1    
    43   18   54 1    
    44   18   55 1    
    45   19   20 2    
    46   19   21 1    
    47   21   25 1    
    48   21   22 2    
    49   22   23 1    
    50   22   56 1    
    51   23   24 2    
    52   23   57 1    
    53   24   25 1    
    54   24   26 1    
    55   26   31 ar   
    56   26   27 ar   
    57   27   28 ar   
    58   27   58 1    
    59   28   29 ar   
    60   28   59 1    
    61   29   30 ar   
    62   29   32 1    
    63   30   31 ar   
    64   30   60 1    
    65   31   61 1    
@<TRIPOS>SUBSTRUCTURE
     1 UNK         1 GROUP             0       ****    0 ROOT    
