@<TRIPOS>MOLECULE
ZINC14975631_3049
70   74    1
SMALL
USER_CHARGES


@<TRIPOS>ATOM
      1 C1         -0.0438   51.7612   29.1648 C.ar      1 UNK         0.0000 
      2 C2          0.1252   52.7512   30.1285 C.ar      1 UNK         0.0000 
      3 C3          1.2729   53.5415   30.1156 C.ar      1 UNK         0.0000 
      4 C4          2.2678   53.3301   29.1543 C.ar      1 UNK         0.0000 
      5 C5          2.0825   52.3313   28.1887 C.ar      1 UNK         0.0000 
      6 C6          0.9280   51.5527   28.1918 C.ar      1 UNK         0.0000 
      7 C7          3.5326   54.1981   29.2065 C.3       1 UNK         0.0000 
      8 N8          4.5944   53.9300   28.2279 N.am      1 UNK         0.0000 
      9 C9          4.5603   54.2983   26.9357 C.2       1 UNK         0.0000 
     10 O10         3.6091   54.9002   26.4452 O.2       1 UNK         0.0000 
     11 C11         5.7919   53.9397   26.0889 C.3       1 UNK         0.0000 
     12 C12         5.6531   54.1505   24.5722 C.ar      1 UNK         0.0000 
     13 C13         4.5281   53.7057   23.8695 C.ar      1 UNK         0.0000 
     14 C14         4.4441   53.8796   22.4940 C.ar      1 UNK         0.0000 
     15 C15         5.4923   54.4684   21.7763 C.ar      1 UNK         0.0000 
     16 C16         6.6215   54.9069   22.4854 C.ar      1 UNK         0.0000 
     17 C17         6.6998   54.7439   23.8674 C.ar      1 UNK         0.0000 
     18 N18         5.3781   54.5882   20.3908 N.pl3     1 UNK         0.0000 
     19 C19         6.2577   55.4926   19.6232 C.3       1 UNK         0.0000 
     20 C20         5.7530   55.7928   18.1913 C.3       1 UNK         0.0000 
     21 C21         5.4939   54.5114   17.3903 C.3       1 UNK         0.0000 
     22 C22         4.5168   53.6545   18.2051 C.3       1 UNK         0.0000 
     23 C23         5.0512   53.3710   19.6185 C.3       1 UNK         0.0000 
     24 C24         4.6394   53.7932   15.0154 C.3       1 UNK         0.0000 
     25 C25         5.9868   53.2381   14.6086 C.ar      1 UNK         0.0000 
     26 C26         6.7791   53.5624   13.4982 C.ar      1 UNK         0.0000 
     27 N27         7.9150   52.9022   13.4491 N.2       1 UNK         0.0000 
     28 N28         7.9099   52.1084   14.5337 N.pl3     1 UNK         0.0000 
     29 C29         6.7422   52.2649   15.2414 C.ar      1 UNK         0.0000 
     30 C30         9.0094   51.2730   14.8456 C.ar      1 UNK         0.0000 
     31 C31         9.8278   50.7574   13.8305 C.ar      1 UNK         0.0000 
     32 C32        10.9122   49.9478   14.1541 C.ar      1 UNK         0.0000 
     33 C33        11.1800   49.6488   15.4867 C.ar      1 UNK         0.0000 
     34 C34        10.3656   50.1448   16.5004 C.ar      1 UNK         0.0000 
     35 C35         9.2848   50.9615   16.1837 C.ar      1 UNK         0.0000 
     36 F36        12.2429   48.8736   15.8002 F         1 UNK         0.0000 
     37 H37        -0.9295   51.1409   29.1802 H         1 UNK         0.0000 
     38 H38        -0.6241   52.8926   30.8941 H         1 UNK         0.0000 
     39 H39         1.3889   54.3069   30.8694 H         1 UNK         0.0000 
     40 H40         2.8272   52.1425   27.4334 H         1 UNK         0.0000 
     41 H41         0.7906   50.7756   27.4541 H         1 UNK         0.0000 
     42 H42         3.2317   55.2457   29.1464 H         1 UNK         0.0000 
     43 H43         3.9728   54.0807   30.1962 H         1 UNK         0.0000 
     44 H44         5.3722   53.3750   28.5463 H         1 UNK         0.0000 
     45 H45         6.6285   54.5265   26.4698 H         1 UNK         0.0000 
     46 H46         6.0435   52.8976   26.2757 H         1 UNK         0.0000 
     47 H47         3.7004   53.2506   24.3922 H         1 UNK         0.0000 
     48 H48         3.5458   53.5577   21.9901 H         1 UNK         0.0000 
     49 H49         7.4574   55.3624   21.9760 H         1 UNK         0.0000 
     50 H50         7.5750   55.0853   24.3957 H         1 UNK         0.0000 
     51 H51         6.3326   56.4402   20.1582 H         1 UNK         0.0000 
     52 H52         7.2615   55.0659   19.5912 H         1 UNK         0.0000 
     53 H53         4.8484   56.4007   18.2527 H         1 UNK         0.0000 
     54 H54         6.4537   56.4344   17.6570 H         1 UNK         0.0000 
     55 H55         6.4546   54.0153   17.2536 H         1 UNK         0.0000 
     56 H56         4.3055   52.7169   17.6920 H         1 UNK         0.0000 
     57 H57         3.5380   54.1319   18.2839 H         1 UNK         0.0000 
     58 H58         5.9392   52.7405   19.5592 H         1 UNK         0.0000 
     59 H59         4.2999   52.7681   20.1319 H         1 UNK         0.0000 
     60 H60         3.9763   53.0614   15.4780 H         1 UNK         0.0000 
     61 H61         4.1058   54.2749   14.1942 H         1 UNK         0.0000 
     62 H62         6.5275   54.2866   12.7360 H         1 UNK         0.0000 
     63 H63         6.5576   51.6972   16.1420 H         1 UNK         0.0000 
     64 H64         9.6365   50.9746   12.7890 H         1 UNK         0.0000 
     65 H65        11.5458   49.5556   13.3703 H         1 UNK         0.0000 
     66 H66        10.5843   49.9103   17.5316 H         1 UNK         0.0000 
     67 H67         8.6765   51.3455   16.9887 H         1 UNK         0.0000 
     68 N68         4.8474   54.9169   16.0505 N.4       1 UNK         0.0000 
     69 H69         3.9525   55.3334   16.2640 H         1 UNK         0.0000 
     70 H70         5.3986   55.6582   15.6424 H         1 UNK         0.0000 
@<TRIPOS>BOND
     1    1    6 ar   
     2    1    2 ar   
     3    1   37 1    
     4    2    3 ar   
     5    2   38 1    
     6    3    4 ar   
     7    3   39 1    
     8    4    5 ar   
     9    4    7 1    
    10    5    6 ar   
    11    5   40 1    
    12    6   41 1    
    13    7    8 1    
    14    7   42 1    
    15    7   43 1    
    16    8    9 am   BACKBONE|DICT|INTERRES
    17    8   44 1    
    18    9   10 2    
    19    9   11 1    
    20   11   12 1    
    21   11   45 1    
    22   11   46 1    
    23   12   17 ar   
    24   12   13 ar   
    25   13   14 ar   
    26   13   47 1    
    27   14   15 ar   
    28   14   48 1    
    29   15   16 ar   
    30   15   18 1    
    31   16   17 ar   
    32   16   49 1    
    33   17   50 1    
    34   18   23 1    
    35   18   19 1    
    36   19   20 1    
    37   19   51 1    
    38   19   52 1    
    39   20   21 1    
    40   20   53 1    
    41   20   54 1    
    42   21   22 1    
    43   21   55 1    
    44   21   68 1    
    45   22   23 1    
    46   22   56 1    
    47   22   57 1    
    48   23   58 1    
    49   23   59 1    
    50   24   25 1    
    51   24   60 1    
    52   24   61 1    
    53   24   68 1    
    54   25   29 ar   
    55   25   26 ar   
    56   26   27 ar   
    57   26   62 1    
    58   27   28 ar   
    59   28   29 ar   
    60   28   30 1    
    61   29   63 1    
    62   30   35 ar   
    63   30   31 ar   
    64   31   32 ar   
    65   31   64 1    
    66   32   33 ar   
    67   32   65 1    
    68   33   34 ar   
    69   33   36 1    
    70   34   35 ar   
    71   34   66 1    
    72   35   67 1    
    73   68   69 1    
    74   68   70 1    
@<TRIPOS>SUBSTRUCTURE
     1 UNK         1 GROUP             0       ****    0 ROOT    
