@<TRIPOS>MOLECULE
ZINC12537880_4223
65   69    1
SMALL
USER_CHARGES


@<TRIPOS>ATOM
      1 C1          0.6844   52.4608   28.0260 C.ar      1 UNK         0.0000 
      2 C2          1.2605   51.2507   27.6910 C.ar      1 UNK         0.0000 
      3 C3          0.6371   50.4204   26.7641 C.ar      1 UNK         0.0000 
      4 C4         -0.5685   50.7758   26.1482 C.ar      1 UNK         0.0000 
      5 C5         -1.1988   51.9833   26.5323 C.ar      1 UNK         0.0000 
      6 C6         -0.5280   52.8147   27.4530 C.ar      1 UNK         0.0000 
      7 C7         -2.5806   52.4091   26.0046 C.3       1 UNK         0.0000 
      8 F8         -2.5758   52.5277   24.6792 F         1 UNK         0.0000 
      9 F9         -3.5072   51.5281   26.3800 F         1 UNK         0.0000 
     10 F10        -2.9790   53.5841   26.4782 F         1 UNK         0.0000 
     11 S11        -1.1492   49.6347   24.8515 S.o2      1 UNK         0.0000 
     12 O12        -2.5819   49.8268   24.6041 O.2       1 UNK         0.0000 
     13 O13        -0.6535   48.2971   25.1926 O.2       1 UNK         0.0000 
     14 N14        -0.2745   50.1335   23.3910 N.pl3     1 UNK         0.0000 
     15 C15        -0.7643   51.3297   22.6706 C.3       1 UNK         0.0000 
     16 C16        -0.2775   51.2864   21.2063 C.3       1 UNK         0.0000 
     17 C17         1.2647   51.0753   21.1100 C.3       1 UNK         0.0000 
     18 C18         1.7843   49.9443   22.0505 C.3       1 UNK         0.0000 
     19 C19         1.2016   50.0669   23.4671 C.3       1 UNK         0.0000 
     20 C20         1.6556   50.6660   19.6699 C.2       1 UNK         0.0000 
     21 O21         1.0665   49.7259   19.1336 O.2       1 UNK         0.0000 
     22 N22         2.7438   51.1837   19.0802 N.am      1 UNK         0.0000 
     23 N23         3.0705   52.5266   19.2512 N.am      1 UNK         0.0000 
     24 C24         4.2542   52.7842   19.8510 C.2       1 UNK         0.0000 
     25 O25         4.6977   52.1018   20.7838 O.2       1 UNK         0.0000 
     26 C26         5.1132   53.9552   19.2804 C.3       1 UNK         0.0000 
     27 C27         5.7959   54.7512   20.4415 C.3       1 UNK         0.0000 
     28 C28         6.7925   55.7894   19.8614 C.3       1 UNK         0.0000 
     29 C29         7.8565   55.0922   18.9754 C.3       1 UNK         0.0000 
     30 C30         7.1636   54.3575   17.7984 C.3       1 UNK         0.0000 
     31 C31         6.1783   53.2962   18.3503 C.3       1 UNK         0.0000 
     32 C32         6.3582   55.3776   16.9491 C.3       1 UNK         0.0000 
     33 C33         5.2804   56.0531   17.8353 C.3       1 UNK         0.0000 
     34 C34         6.0052   56.7959   18.9907 C.3       1 UNK         0.0000 
     35 C35         4.3137   54.9615   18.3959 C.3       1 UNK         0.0000 
     36 H36         1.1718   53.1199   28.7294 H         1 UNK         0.0000 
     37 H37         2.1952   50.9497   28.1427 H         1 UNK         0.0000 
     38 H38         1.0960   49.4737   26.5168 H         1 UNK         0.0000 
     39 H39        -0.9091   53.7778   27.7348 H         1 UNK         0.0000 
     40 H40        -0.3288   52.2190   23.1286 H         1 UNK         0.0000 
     41 H41        -1.8528   51.3620   22.7011 H         1 UNK         0.0000 
     42 H42        -0.5737   52.2213   20.7283 H         1 UNK         0.0000 
     43 H43        -0.8204   50.4464   20.7664 H         1 UNK         0.0000 
     44 H44         1.7698   52.0026   21.3838 H         1 UNK         0.0000 
     45 H45         1.4579   48.9569   21.7128 H         1 UNK         0.0000 
     46 H46         2.8714   49.9764   22.1427 H         1 UNK         0.0000 
     47 H47         1.5771   50.9994   23.8900 H         1 UNK         0.0000 
     48 H48         1.5026   49.2176   24.0790 H         1 UNK         0.0000 
     49 H49         3.0747   50.8267   18.1920 H         1 UNK         0.0000 
     50 H50         2.7528   53.0814   18.4719 H         1 UNK         0.0000 
     51 H51         6.3111   54.0999   21.1438 H         1 UNK         0.0000 
     52 H52         5.0410   55.2598   21.0451 H         1 UNK         0.0000 
     53 H53         7.2867   56.3147   20.6806 H         1 UNK         0.0000 
     54 H54         8.4493   54.3989   19.5705 H         1 UNK         0.0000 
     55 H55         8.5625   55.8306   18.5925 H         1 UNK         0.0000 
     56 H56         7.9141   53.8728   17.1723 H         1 UNK         0.0000 
     57 H57         5.6911   52.7961   17.5079 H         1 UNK         0.0000 
     58 H58         6.7037   52.4962   18.8652 H         1 UNK         0.0000 
     59 H59         5.8915   54.8763   16.1018 H         1 UNK         0.0000 
     60 H60         7.0262   56.1249   16.5220 H         1 UNK         0.0000 
     61 H61         4.7131   56.7684   17.2391 H         1 UNK         0.0000 
     62 H62         6.6618   57.5717   18.5967 H         1 UNK         0.0000 
     63 H63         5.2636   57.2982   19.6052 H         1 UNK         0.0000 
     64 H64         3.5058   55.3889   18.9774 H         1 UNK         0.0000 
     65 H65         3.8326   54.4564   17.5560 H         1 UNK         0.0000 
@<TRIPOS>BOND
     1    1    6 ar   
     2    1    2 ar   
     3    1   36 1    
     4    2    3 ar   
     5    2   37 1    
     6    3    4 ar   
     7    3   38 1    
     8    4    5 ar   
     9    4   11 1    
    10    5    6 ar   
    11    5    7 1    
    12    6   39 1    
    13    7    8 1    
    14    7    9 1    
    15    7   10 1    
    16   11   12 2    
    17   11   13 2    
    18   11   14 1    
    19   14   19 1    
    20   14   15 1    
    21   15   16 1    
    22   15   40 1    
    23   15   41 1    
    24   16   17 1    
    25   16   42 1    
    26   16   43 1    
    27   17   18 1    
    28   17   20 1    
    29   17   44 1    
    30   18   19 1    
    31   18   45 1    
    32   18   46 1    
    33   19   47 1    
    34   19   48 1    
    35   20   21 2    
    36   20   22 am   BACKBONE|DICT|INTERRES
    37   22   23 1    
    38   22   49 1    
    39   23   24 am   BACKBONE|DICT|INTERRES
    40   23   50 1    
    41   24   25 2    
    42   24   26 1    
    43   26   31 1    
    44   26   35 1    
    45   26   27 1    
    46   27   28 1    
    47   27   51 1    
    48   27   52 1    
    49   28   34 1    
    50   28   29 1    
    51   28   53 1    
    52   29   30 1    
    53   29   54 1    
    54   29   55 1    
    55   30   31 1    
    56   30   32 1    
    57   30   56 1    
    58   31   57 1    
    59   31   58 1    
    60   32   33 1    
    61   32   59 1    
    62   32   60 1    
    63   33   34 1    
    64   33   35 1    
    65   33   61 1    
    66   34   62 1    
    67   34   63 1    
    68   35   64 1    
    69   35   65 1    
@<TRIPOS>SUBSTRUCTURE
     1 UNK         1 GROUP             0       ****    0 ROOT    
