ZINC08242675_2650
                    3D
 Schrodinger Suite 2024-2.
 40 42  0  0  1  0            999 V2000
    6.3046   53.3431   18.4591 C   0  0  0  0  0  0
    5.2008   54.3756   18.7253 C   0  0  1  0  0  0
    4.2643   53.8769   18.4808 H   0  0  0  0  0  0
    5.2169   54.8239   20.2041 C   0  0  0  0  0  0
    5.9045   55.7882   20.5595 O   0  0  0  0  0  0
    4.4476   54.0960   21.0473 N   0  0  0  0  0  0
    4.3731   54.4162   22.4149 N   0  0  0  0  0  0
    5.3239   53.9406   23.2547 C   0  0  0  0  0  0
    6.3045   53.2972   22.8817 O   0  0  0  0  0  0
    5.1560   54.2278   24.7283 C   0  0  0  0  0  0
    6.3032   54.3328   25.5499 C   0  0  0  0  0  0
    6.1968   54.4749   26.9405 C   0  0  0  0  0  0
    4.9193   54.4967   27.4851 C   0  0  0  0  0  0
    3.8032   54.4223   26.7031 C   0  0  0  0  0  0
    3.8777   54.2994   25.3196 C   0  0  0  0  0  0
    2.6973   54.4964   27.4878 O   0  0  0  0  0  0
    3.1588   54.4512   28.8115 C   0  0  0  0  0  0
    4.5518   54.6218   28.7875 O   0  0  0  0  0  0
    5.5122   55.4884   17.8785 O   0  0  0  0  0  0
    4.5265   56.2785   17.3181 C   0  0  0  0  0  0
    4.9514   57.4933   16.7756 C   0  0  0  0  0  0
    4.0472   58.3633   16.1684 C   0  0  0  0  0  0
    2.7008   58.0176   16.0824 C   0  0  0  0  0  0
    2.2609   56.8045   16.6092 C   0  0  0  0  0  0
    3.1648   55.9412   17.2313 C   0  0  0  0  0  0
    0.4128   56.3524   16.5442 Br  0  0  0  0  0  0
    6.1886   52.4625   19.0904 H   0  0  0  0  0  0
    6.2749   53.0012   17.4238 H   0  0  0  0  0  0
    7.2983   53.7568   18.6391 H   0  0  0  0  0  0
    3.8840   53.3007   20.7819 H   0  0  0  0  0  0
    3.4293   54.6239   22.7052 H   0  0  0  0  0  0
    7.2884   54.2764   25.1078 H   0  0  0  0  0  0
    7.0761   54.5453   27.5644 H   0  0  0  0  0  0
    2.9726   54.2143   24.7364 H   0  0  0  0  0  0
    2.9241   53.4727   29.2350 H   0  0  0  0  0  0
    2.6907   55.2444   29.3955 H   0  0  0  0  0  0
    5.9933   57.7705   16.8374 H   0  0  0  0  0  0
    4.3897   59.3092   15.7750 H   0  0  0  0  0  0
    1.9978   58.6995   15.6268 H   0  0  0  0  0  0
    2.7752   55.0209   17.6335 H   0  0  0  0  0  0
  1  2  1  0  0  0
  1 27  1  0  0  0
  1 28  1  0  0  0
  1 29  1  0  0  0
  2  3  1  0  0  0
  2  4  1  0  0  0
  2 19  1  0  0  0
  4  5  2  0  0  0
  4  6  1  0  0  0
  6  7  1  0  0  0
  6 30  1  0  0  0
  7  8  1  0  0  0
  7 31  1  0  0  0
  8  9  2  0  0  0
  8 10  1  0  0  0
 10 15  2  0  0  0
 10 11  1  0  0  0
 11 12  2  0  0  0
 11 32  1  0  0  0
 12 13  1  0  0  0
 12 33  1  0  0  0
 13 18  1  0  0  0
 13 14  2  0  0  0
 14 15  1  0  0  0
 14 16  1  0  0  0
 15 34  1  0  0  0
 16 17  1  0  0  0
 17 18  1  0  0  0
 17 35  1  0  0  0
 17 36  1  0  0  0
 19 20  1  0  0  0
 20 25  2  0  0  0
 20 21  1  0  0  0
 21 22  2  0  0  0
 21 37  1  0  0  0
 22 23  1  0  0  0
 22 38  1  0  0  0
 23 24  2  0  0  0
 23 39  1  0  0  0
 24 25  1  0  0  0
 24 26  1  0  0  0
 25 40  1  0  0  0
M  END
> <i_i_glide_confnum>
45

> <i_i_glide_lignum>
2651

> <i_i_glide_posenum>
361

> <i_i_glide_rotatable_bonds>
7

> <i_m_Source_File_Index>
5357

> <b_m_subgroup_collapsed>
0

> <r_i_docking_score>
-5.07859

> <r_i_glide_ecoul>
-3.09784

> <r_i_glide_eff_state_penalty>
0

> <r_i_glide_einternal>
4.04881

> <r_i_glide_emodel>
-50.9433

> <r_i_glide_energy>
-38.1862

> <r_i_glide_erotb>
0.593088

> <r_i_glide_esite>
0

> <r_i_glide_evdw>
-35.0884

> <r_i_glide_gscore>
-5.07859

> <r_i_glide_hbond>
0

> <r_i_glide_ligand_efficiency>
-0.203143

> <r_i_glide_ligand_efficiency_ln>
-1.20378

> <r_i_glide_ligand_efficiency_sa>
-0.593995

> <r_i_glide_lipo>
-1.90294

> <r_i_glide_metal>
0

> <r_i_glide_rewards>
-1.54964

> <s_i_glide_gridfile>
wee1_glide-grid

> <s_m_Source_File>
wee1_decoys_glide_SP.sdf

> <s_m_Source_Path>
/Users/zhangxujun/Desktop

> <s_m_entry_id>
5632

> <s_m_entry_name>
wee1_decoys_glide_SP.5357

> <s_m_subgroup_title>
wee1_decoys_glide_SP

> <s_m_subgroupid>
wee1_decoys_glide_SP


$$$$
