ZINC41006390_3630
                    3D
 Schrodinger Suite 2024-2.
 62 65  0  0  1  0            999 V2000
   -3.8626   53.6389   25.5039 C   0  0  0  0  0  0
   -4.7595   52.4509   25.1749 C   0  0  0  0  0  0
   -5.9612   52.3097   25.8772 C   0  0  0  0  0  0
   -6.8175   51.2439   25.6098 C   0  0  0  0  0  0
   -6.4783   50.3093   24.6338 C   0  0  0  0  0  0
   -5.2857   50.4402   23.9253 C   0  0  0  0  0  0
   -4.4102   51.5084   24.1860 C   0  0  0  0  0  0
   -3.1947   51.7101   23.4963 N   0  0  0  0  0  0
   -2.5658   50.9432   22.5790 C   0  0  0  0  0  0
   -2.9513   49.8370   22.1954 O   0  0  0  0  0  0
   -1.2502   51.5379   22.0020 C   0  0  1  0  0  0
   -1.1708   52.5500   22.3949 H   0  0  0  0  0  0
   -0.0166   50.6889   22.4795 C   0  0  1  0  0  0
   -0.2266   49.6832   22.0999 H   0  0  0  0  0  0
    1.3249   51.0848   21.7667 C   0  0  1  0  0  0
    2.0779   50.3463   22.0559 H   0  0  0  0  0  0
    1.1686   51.0073   20.2100 C   0  0  1  0  0  0
    0.0115   51.9123   19.7305 C   0  0  0  0  0  0
   -1.3277   51.6968   20.4569 C   0  0  0  0  0  0
   -2.3861   51.7537   19.8287 O   0  0  0  0  0  0
    2.4434   51.3356   19.3933 C   0  0  0  0  0  0
    0.9030   49.6642   19.8416 O   0  0  0  0  0  0
    1.9342   52.4314   22.2636 C   0  0  0  0  0  0
    1.2412   53.2930   22.8115 O   0  0  0  0  0  0
    3.2602   52.5700   22.0816 N   0  0  0  0  0  0
    4.1344   53.4827   22.6947 C   0  0  0  0  0  0
    3.9902   53.8225   24.0488 C   0  0  0  0  0  0
    5.0016   54.5133   24.7139 C   0  0  0  0  0  0
    6.1517   54.8965   24.0259 C   0  0  0  0  0  0
    6.2772   54.6160   22.6645 C   0  0  0  0  0  0
    5.2711   53.9136   21.9900 C   0  0  0  0  0  0
    5.4297   53.6406   20.4991 C   0  0  0  0  0  0
    0.0960   50.4601   23.9907 C   0  0  0  0  0  0
    0.3311   49.2595   24.6605 C   0  0  0  0  0  0
    0.3029   49.3486   26.0524 C   0  0  0  0  0  0
    0.0685   50.6341   26.4943 C   0  0  0  0  0  0
   -0.1233   51.7326   25.1761 S   0  0  0  0  0  0
   -2.8914   53.2915   25.8607 H   0  0  0  0  0  0
   -3.6950   54.2383   24.6086 H   0  0  0  0  0  0
   -4.2922   54.2888   26.2635 H   0  0  0  0  0  0
   -6.2392   53.0246   26.6358 H   0  0  0  0  0  0
   -7.7442   51.1427   26.1573 H   0  0  0  0  0  0
   -7.1420   49.4817   24.4249 H   0  0  0  0  0  0
   -5.0742   49.6940   23.1746 H   0  0  0  0  0  0
   -2.7138   52.5506   23.7711 H   0  0  0  0  0  0
   -0.1573   51.7723   18.6629 H   0  0  0  0  0  0
    0.2853   52.9573   19.8691 H   0  0  0  0  0  0
    2.6986   52.3958   19.4456 H   0  0  0  0  0  0
    3.3062   50.7620   19.7358 H   0  0  0  0  0  0
    2.3153   51.1085   18.3322 H   0  0  0  0  0  0
    0.8074   49.6284   18.8853 H   0  0  0  0  0  0
    3.6926   51.9496   21.4143 H   0  0  0  0  0  0
    3.1290   53.4911   24.6116 H   0  0  0  0  0  0
    4.8997   54.7430   25.7633 H   0  0  0  0  0  0
    6.9381   55.4319   24.5352 H   0  0  0  0  0  0
    7.1632   54.9389   22.1404 H   0  0  0  0  0  0
    6.3045   54.1416   20.0781 H   0  0  0  0  0  0
    5.5041   52.5694   20.3058 H   0  0  0  0  0  0
    4.5542   54.0048   19.9600 H   0  0  0  0  0  0
    0.4969   48.3257   24.1463 H   0  0  0  0  0  0
    0.4276   48.4971   26.7049 H   0  0  0  0  0  0
   -0.0197   50.9740   27.5155 H   0  0  0  0  0  0
  1  2  1  0  0  0
  1 38  1  0  0  0
  1 39  1  0  0  0
  1 40  1  0  0  0
  2  7  2  0  0  0
  2  3  1  0  0  0
  3  4  2  0  0  0
  3 41  1  0  0  0
  4  5  1  0  0  0
  4 42  1  0  0  0
  5  6  2  0  0  0
  5 43  1  0  0  0
  6  7  1  0  0  0
  6 44  1  0  0  0
  7  8  1  0  0  0
  8  9  1  0  0  0
  8 45  1  0  0  0
  9 10  2  0  0  0
  9 11  1  0  0  0
 11 12  1  0  0  0
 11 19  1  0  0  0
 11 13  1  0  0  0
 13 14  1  0  0  0
 13 15  1  0  0  0
 13 33  1  0  0  0
 15 16  1  0  0  0
 15 17  1  0  0  0
 15 23  1  0  0  0
 17 18  1  0  0  0
 17 21  1  0  0  0
 17 22  1  0  0  0
 18 19  1  0  0  0
 18 46  1  0  0  0
 18 47  1  0  0  0
 19 20  2  0  0  0
 21 48  1  0  0  0
 21 49  1  0  0  0
 21 50  1  0  0  0
 22 51  1  0  0  0
 23 24  2  0  0  0
 23 25  1  0  0  0
 25 26  1  0  0  0
 25 52  1  0  0  0
 26 31  2  0  0  0
 26 27  1  0  0  0
 27 28  2  0  0  0
 27 53  1  0  0  0
 28 29  1  0  0  0
 28 54  1  0  0  0
 29 30  2  0  0  0
 29 55  1  0  0  0
 30 31  1  0  0  0
 30 56  1  0  0  0
 31 32  1  0  0  0
 32 57  1  0  0  0
 32 58  1  0  0  0
 32 59  1  0  0  0
 33 37  1  0  0  0
 33 34  2  0  0  0
 34 35  1  0  0  0
 34 60  1  0  0  0
 35 36  2  0  0  0
 35 61  1  0  0  0
 36 37  1  0  0  0
 36 62  1  0  0  0
M  END
> <i_i_glide_confnum>
176

> <i_i_glide_lignum>
3631

> <i_i_glide_posenum>
244

> <i_i_glide_rotatable_bonds>
8

> <i_m_Source_File_Index>
5379

> <b_m_subgroup_collapsed>
0

> <r_i_docking_score>
-3.78336

> <r_i_glide_ecoul>
-2.46507

> <r_i_glide_eff_state_penalty>
0

> <r_i_glide_einternal>
8.51945

> <r_i_glide_emodel>
-44.2735

> <r_i_glide_energy>
-38.8206

> <r_i_glide_erotb>
0.624101

> <r_i_glide_esite>
-0.0224464

> <r_i_glide_evdw>
-36.3556

> <r_i_glide_gscore>
-3.78336

> <r_i_glide_hbond>
-0.158122

> <r_i_glide_ligand_efficiency>
-0.111275

> <r_i_glide_ligand_efficiency_ln>
-0.83585

> <r_i_glide_ligand_efficiency_sa>
-0.360489

> <r_i_glide_lipo>
-1.73504

> <r_i_glide_metal>
0

> <r_i_glide_rewards>
-0.304311

> <s_i_glide_gridfile>
wee1_glide-grid

> <s_m_Source_File>
wee1_decoys_glide_SP.sdf

> <s_m_Source_Path>
/Users/zhangxujun/Desktop

> <s_m_entry_id>
5654

> <s_m_entry_name>
wee1_decoys_glide_SP.5379

> <s_m_subgroup_title>
wee1_decoys_glide_SP

> <s_m_subgroupid>
wee1_decoys_glide_SP


$$$$
