ZINC35872002_6046
                    3D
 Schrodinger Suite 2024-2.
 67 71  0  0  1  0            999 V2000
    3.5986   54.2365   29.0929 C   0  0  0  0  0  0
    2.7392   55.2966   29.3831 C   0  0  0  0  0  0
    1.3616   55.1308   29.2844 C   0  0  0  0  0  0
    0.8416   53.9290   28.8116 C   0  0  0  0  0  0
    1.6971   52.8902   28.4365 C   0  0  0  0  0  0
    3.0784   53.0278   28.6292 C   0  0  0  0  0  0
    1.1343   51.6786   27.7004 C   0  0  0  0  0  0
    0.5455   51.9935   26.3847 N   0  0  0  0  0  0
    1.1043   52.7726   25.4317 C   0  0  0  0  0  0
    2.1838   53.3334   25.6106 O   0  0  0  0  0  0
    0.3496   53.0310   24.0898 C   0  0  2  0  0  0
    0.1931   54.1089   24.0981 H   0  0  0  0  0  0
   -1.0529   52.3854   24.0010 C   0  0  0  0  0  0
   -0.9117   50.8793   23.8688 C   0  0  0  0  0  0
   -1.8283   50.0198   24.4877 C   0  0  0  0  0  0
   -1.7022   48.6323   24.3917 C   0  0  0  0  0  0
   -0.6232   48.1040   23.6855 C   0  0  0  0  0  0
    0.3028   48.9470   23.0749 C   0  0  0  0  0  0
    0.1673   50.3371   23.1295 C   0  0  0  0  0  0
    1.1395   51.1696   22.5450 N   0  0  0  0  0  0
    1.1675   52.6271   22.8189 C   0  0  2  0  0  0
    0.6157   53.0586   21.9818 H   0  0  0  0  0  0
    2.5897   53.2464   22.7354 C   0  0  0  0  0  0
    3.3425   52.8618   21.4445 N   0  3  2  0  0  0
    3.2726   51.3382   21.2129 C   0  0  0  0  0  0
    1.8101   50.8528   21.2701 C   0  0  0  0  0  0
    4.8261   53.3518   21.3490 C   0  0  0  0  0  0
    4.9442   54.1804   20.0524 C   0  0  0  0  0  0
    6.3013   54.8962   19.8938 C   0  0  0  0  0  0
    6.7056   55.7013   21.1445 C   0  0  0  0  0  0
    6.6626   54.8682   22.4411 C   0  0  0  0  0  0
    5.3222   54.1257   22.6110 C   0  0  0  0  0  0
   -2.7139   47.6970   25.0558 C   0  0  0  0  0  0
   -3.3379   48.2808   26.0810 F   0  0  0  0  0  0
   -3.6297   47.3549   24.1482 F   0  0  0  0  0  0
   -2.1295   46.5791   25.4955 F   0  0  0  0  0  0
   -0.4925   53.7816   28.6724 F   0  0  0  0  0  0
    4.6682   54.3678   29.1807 H   0  0  0  0  0  0
    3.1290   56.2554   29.6815 H   0  0  0  0  0  0
    0.7052   55.9470   29.5410 H   0  0  0  0  0  0
    3.7539   52.2363   28.3382 H   0  0  0  0  0  0
    1.9034   50.9167   27.5728 H   0  0  0  0  0  0
    0.3674   51.2081   28.3183 H   0  0  0  0  0  0
   -0.2980   51.4926   26.1477 H   0  0  0  0  0  0
   -1.6902   52.6767   24.8390 H   0  0  0  0  0  0
   -1.5499   52.7287   23.0921 H   0  0  0  0  0  0
   -2.6488   50.4410   25.0529 H   0  0  0  0  0  0
   -0.4957   47.0351   23.6192 H   0  0  0  0  0  0
    1.1520   48.5008   22.5809 H   0  0  0  0  0  0
    2.5091   54.3345   22.7161 H   0  0  0  0  0  0
    3.2304   52.8969   23.5409 H   0  0  0  0  0  0
    3.9052   50.8611   21.9619 H   0  0  0  0  0  0
    3.6810   51.1701   20.2123 H   0  0  0  0  0  0
    1.7847   49.7881   21.0400 H   0  0  0  0  0  0
    1.2416   51.3567   20.4865 H   0  0  0  0  0  0
    5.5042   52.5034   21.2354 H   0  0  0  0  0  0
    4.7009   53.5702   19.1799 H   0  0  0  0  0  0
    4.1640   54.9385   20.0636 H   0  0  0  0  0  0
    7.0721   54.1570   19.6741 H   0  0  0  0  0  0
    6.2698   55.5541   19.0232 H   0  0  0  0  0  0
    7.7094   56.1055   21.0099 H   0  0  0  0  0  0
    6.0379   56.5578   21.2432 H   0  0  0  0  0  0
    7.4832   54.1524   22.4789 H   0  0  0  0  0  0
    6.8304   55.5238   23.2975 H   0  0  0  0  0  0
    4.5954   54.8965   22.8536 H   0  0  0  0  0  0
    5.3409   53.4811   23.4911 H   0  0  0  0  0  0
    2.8271   53.2929   20.6873 H   0  0  0  0  0  0
  1  6  2  0  0  0
  1  2  1  0  0  0
  1 38  1  0  0  0
  2  3  2  0  0  0
  2 39  1  0  0  0
  3  4  1  0  0  0
  3 40  1  0  0  0
  4  5  2  0  0  0
  4 37  1  0  0  0
  5  6  1  0  0  0
  5  7  1  0  0  0
  6 41  1  0  0  0
  7  8  1  0  0  0
  7 42  1  0  0  0
  7 43  1  0  0  0
  8  9  1  0  0  0
  8 44  1  0  0  0
  9 10  2  0  0  0
  9 11  1  0  0  0
 11 12  1  0  0  0
 11 21  1  0  0  0
 11 13  1  0  0  0
 13 14  1  0  0  0
 13 45  1  0  0  0
 13 46  1  0  0  0
 14 19  2  0  0  0
 14 15  1  0  0  0
 15 16  2  0  0  0
 15 47  1  0  0  0
 16 17  1  0  0  0
 16 33  1  0  0  0
 17 18  2  0  0  0
 17 48  1  0  0  0
 18 19  1  0  0  0
 18 49  1  0  0  0
 19 20  1  0  0  0
 20 26  1  0  0  0
 20 21  1  0  0  0
 21 22  1  0  0  0
 21 23  1  0  0  0
 23 24  1  0  0  0
 23 50  1  0  0  0
 23 51  1  0  0  0
 24 25  1  0  0  0
 24 27  1  0  0  0
 24 67  1  0  0  0
 25 26  1  0  0  0
 25 52  1  0  0  0
 25 53  1  0  0  0
 26 54  1  0  0  0
 26 55  1  0  0  0
 27 32  1  0  0  0
 27 28  1  0  0  0
 27 56  1  0  0  0
 28 29  1  0  0  0
 28 57  1  0  0  0
 28 58  1  0  0  0
 29 30  1  0  0  0
 29 59  1  0  0  0
 29 60  1  0  0  0
 30 31  1  0  0  0
 30 61  1  0  0  0
 30 62  1  0  0  0
 31 32  1  0  0  0
 31 63  1  0  0  0
 31 64  1  0  0  0
 32 65  1  0  0  0
 32 66  1  0  0  0
 33 34  1  0  0  0
 33 35  1  0  0  0
 33 36  1  0  0  0
M  CHG  1  24   1
M  END
> <i_i_glide_confnum>
41

> <i_i_glide_lignum>
6047

> <i_i_glide_posenum>
225

> <i_i_glide_rotatable_bonds>
6

> <i_m_Source_File_Index>
62

> <b_m_subgroup_collapsed>
0

> <r_i_docking_score>
-5.32893

> <r_i_glide_ecoul>
0.519148

> <r_i_glide_eff_state_penalty>
0

> <r_i_glide_einternal>
15.8246

> <r_i_glide_emodel>
-50.7718

> <r_i_glide_energy>
-43.2759

> <r_i_glide_erotb>
0.33828

> <r_i_glide_esite>
-0.207201

> <r_i_glide_evdw>
-43.795

> <r_i_glide_gscore>
-5.32893

> <r_i_glide_hbond>
0

> <r_i_glide_ligand_efficiency>
-0.152255

> <r_i_glide_ligand_efficiency_ln>
-1.16982

> <r_i_glide_ligand_efficiency_sa>
-0.498036

> <r_i_glide_lipo>
-2.97697

> <r_i_glide_metal>
0

> <r_i_glide_rewards>
-0.371155

> <s_i_glide_gridfile>
wee1_glide-grid

> <s_m_Source_File>
wee1_decoys_glide_SP.sdf

> <s_m_Source_Path>
/Users/zhangxujun/Desktop

> <s_m_entry_id>
337

> <s_m_entry_name>
wee1_decoys_glide_SP.62

> <s_m_subgroup_title>
wee1_decoys_glide_SP

> <s_m_subgroupid>
wee1_decoys_glide_SP


$$$$
