@<TRIPOS>MOLECULE
ZINC42427718_1846
38   40    1
SMALL
USER_CHARGES


@<TRIPOS>ATOM
      1 C1         -2.7403   51.7992   23.6372 C.3       1 UNK         0.0000 
      2 C2         -2.9709   50.3019   23.9385 C.3       1 UNK         0.0000 
      3 H3         -3.4137   49.8794   23.0340 H         1 UNK         0.0000 
      4 C4         -4.0218   50.1380   25.0772 C.3       1 UNK         0.0000 
      5 C5         -4.3278   48.6749   25.4535 C.3       1 UNK         0.0000 
      6 C6         -2.9852   47.9606   25.6584 C.3       1 UNK         0.0000 
      7 H7         -2.4486   48.4293   26.4813 H         1 UNK         0.0000 
      8 C8         -2.1333   48.0627   24.3771 C.3       1 UNK         0.0000 
      9 N9         -1.7553   49.4668   24.1395 N.pl3     1 UNK         0.0000 
     10 C10        -0.6075   49.7493   23.4010 C.ar      1 UNK         0.0000 
     11 C11         0.2976   50.6423   23.9853 C.ar      1 UNK         0.0000 
     12 C12         1.4556   51.0685   23.3413 C.ar      1 UNK         0.0000 
     13 C13         1.7063   50.5717   22.0610 C.ar      1 UNK         0.0000 
     14 C14         0.8057   49.6702   21.4302 C.ar      1 UNK         0.0000 
     15 C15        -0.3749   49.2602   22.0925 C.ar      1 UNK         0.0000 
     16 N16        -1.2859   48.4129   21.4356 N.pl3     1 UNK         0.0000 
     17 N17         1.1848   49.2832   20.1762 N.2       1 UNK         0.0000 
     18 C18         2.3064   49.8421   19.8244 C.2       1 UNK         0.0000 
     19 S19         3.0559   50.9067   20.9841 S.3       1 UNK         0.0000 
     20 C20        -3.1703   46.4879   26.0727 C.2       1 UNK         0.0000 
     21 O21        -3.6948   45.6964   25.2936 O.2       1 UNK         0.0000 
     22 N22        -2.7554   46.0966   27.2804 N.am      1 UNK         0.0000 
     23 H23        -3.6796   52.3040   23.4134 H         1 UNK         0.0000 
     24 H24        -2.2887   52.3064   24.4899 H         1 UNK         0.0000 
     25 H25        -2.0878   51.9468   22.7770 H         1 UNK         0.0000 
     26 H26        -4.9587   50.6126   24.7845 H         1 UNK         0.0000 
     27 H27        -3.6621   50.6530   25.9693 H         1 UNK         0.0000 
     28 H28        -4.8902   48.2432   24.6233 H         1 UNK         0.0000 
     29 H29        -4.9209   48.6977   26.3696 H         1 UNK         0.0000 
     30 H30        -1.2404   47.4397   24.4668 H         1 UNK         0.0000 
     31 H31        -2.6991   47.6975   23.5186 H         1 UNK         0.0000 
     32 H32         0.0902   51.0206   24.9770 H         1 UNK         0.0000 
     33 H33         2.1321   51.7652   23.8153 H         1 UNK         0.0000 
     34 H34        -1.1189   48.1621   20.4712 H         1 UNK         0.0000 
     35 H35        -2.1669   48.2045   21.8843 H         1 UNK         0.0000 
     36 H36         2.7781   49.6655   18.8668 H         1 UNK         0.0000 
     37 H37        -2.2715   46.7781   27.8684 H         1 UNK         0.0000 
     38 H38        -2.8948   45.1486   27.6176 H         1 UNK         0.0000 
@<TRIPOS>BOND
     1    1    2 1    
     2    1   23 1    
     3    1   24 1    
     4    1   25 1    
     5    2    3 1    
     6    2    9 1    
     7    2    4 1    
     8    4    5 1    
     9    4   26 1    
    10    4   27 1    
    11    5    6 1    
    12    5   28 1    
    13    5   29 1    
    14    6    7 1    
    15    6    8 1    
    16    6   20 1    
    17    8    9 1    
    18    8   30 1    
    19    8   31 1    
    20    9   10 1    
    21   10   15 ar   
    22   10   11 ar   
    23   11   12 ar   
    24   11   32 1    
    25   12   13 ar   
    26   12   33 1    
    27   13   19 1    
    28   13   14 ar   
    29   14   15 ar   
    30   14   17 1    
    31   15   16 1    
    32   16   34 1    
    33   16   35 1    
    34   17   18 2    
    35   18   19 1    
    36   18   36 1    
    37   20   21 2    
    38   20   22 am   BACKBONE|DICT|INTERRES
    39   22   37 1    
    40   22   38 1    
@<TRIPOS>SUBSTRUCTURE
     1 UNK         1 GROUP             0       ****    0 ROOT    
