@<TRIPOS>MOLECULE
ZINC08733841_4771
37   39    1
SMALL
USER_CHARGES


@<TRIPOS>ATOM
      1 C1          6.3050   54.8973   21.1119 C.3       1 UNK         0.0000 
      2 C2          5.6671   54.2123   22.3420 C.3       1 UNK         0.0000 
      3 H3          5.9725   53.1658   22.3503 H         1 UNK         0.0000 
      4 C4          4.1324   54.2736   22.2251 C.3       1 UNK         0.0000 
      5 C5          3.3471   53.7016   23.4185 C.3       1 UNK         0.0000 
      6 C6          4.0353   54.0004   24.7629 C.2       1 UNK         0.0000 
      7 C7          3.4692   53.8114   26.0620 C.2       1 UNK         0.0000 
      8 C8          4.3800   54.1807   27.0620 C.2       1 UNK         0.0000 
      9 S9          5.9045   54.7079   26.4505 S.3       1 UNK         0.0000 
     10 C10         5.3519   54.4928   24.8257 C.2       1 UNK         0.0000 
     11 C11         6.2350   54.8461   23.6375 C.3       1 UNK         0.0000 
     12 C12         2.1250   53.2969   26.3172 C.2       1 UNK         0.0000 
     13 O13         1.3600   53.0709   25.3798 O.2       1 UNK         0.0000 
     14 N14         1.8100   53.0898   27.6212 N.am      1 UNK         0.0000 
     15 C15         0.6370   52.5368   28.1491 C.2       1 UNK         0.0000 
     16 C16         0.3414   52.3495   29.5208 C.2       1 UNK         0.0000 
     17 C17        -0.8956   51.6966   29.6790 C.2       1 UNK         0.0000 
     18 C18        -1.5560   51.4146   28.5002 C.2       1 UNK         0.0000 
     19 S19        -0.6624   51.9348   27.1314 S.3       1 UNK         0.0000 
     20 C20         1.2015   52.7134   30.6375 C.2       1 UNK         0.0000 
     21 O21         2.3267   53.1841   30.4775 O.2       1 UNK         0.0000 
     22 N22         0.7145   52.4957   31.8672 N.am      1 UNK         0.0000 
     23 H23         5.9788   55.9341   21.0184 H         1 UNK         0.0000 
     24 H24         7.3941   54.9092   21.1722 H         1 UNK         0.0000 
     25 H25         6.0292   54.3831   20.1907 H         1 UNK         0.0000 
     26 H26         3.8154   55.2969   22.0877 H         1 UNK         0.0000 
     27 H27         3.8105   53.7897   21.3005 H         1 UNK         0.0000 
     28 H28         3.2051   52.6292   23.2833 H         1 UNK         0.0000 
     29 H29         2.3482   54.1364   23.3884 H         1 UNK         0.0000 
     30 H30         4.2463   54.1555   28.1329 H         1 UNK         0.0000 
     31 H31         6.3080   55.9303   23.5488 H         1 UNK         0.0000 
     32 H32         7.2513   54.4834   23.8018 H         1 UNK         0.0000 
     33 H33         2.4970   53.3477   28.3160 H         1 UNK         0.0000 
     34 H34        -1.2955   51.3810   30.6311 H         1 UNK         0.0000 
     35 H35        -2.4961   50.8955   28.3792 H         1 UNK         0.0000 
     36 H36        -0.2177   52.1179   32.0380 H         1 UNK         0.0000 
     37 H37         1.2993   52.6689   32.6700 H         1 UNK         0.0000 
@<TRIPOS>BOND
     1    1    2 1    
     2    1   23 1    
     3    1   24 1    
     4    1   25 1    
     5    2    3 1    
     6    2   11 1    
     7    2    4 1    
     8    4    5 1    
     9    4   26 1    
    10    4   27 1    
    11    5    6 1    
    12    5   28 1    
    13    5   29 1    
    14    6   10 2    
    15    6    7 1    
    16    7    8 2    
    17    7   12 1    
    18    8    9 1    
    19    8   30 1    
    20    9   10 1    
    21   10   11 1    
    22   11   31 1    
    23   11   32 1    
    24   12   13 2    
    25   12   14 am   BACKBONE|DICT|INTERRES
    26   14   15 am   BACKBONE|DICT|INTERRES
    27   14   33 1    
    28   15   19 1    
    29   15   16 2    
    30   16   17 1    
    31   16   20 1    
    32   17   18 2    
    33   17   34 1    
    34   18   19 1    
    35   18   35 1    
    36   20   21 2    
    37   20   22 am   BACKBONE|DICT|INTERRES
    38   22   36 1    
    39   22   37 1    
@<TRIPOS>SUBSTRUCTURE
     1 UNK         1 GROUP             0       ****    0 ROOT    
