ZINC00622887_3445
                    3D
 Schrodinger Suite 2024-2.
 58 63  0  0  1  0            999 V2000
    5.6209   54.6326   21.4001 C   0  0  0  0  0  0
    5.6266   55.2972   20.1777 C   0  0  0  0  0  0
    4.9346   54.7589   19.0958 C   0  0  0  0  0  0
    4.2458   53.5494   19.2310 C   0  0  0  0  0  0
    4.2833   52.8735   20.4524 C   0  0  0  0  0  0
    4.9541   53.4185   21.5430 C   0  0  0  0  0  0
    3.5067   52.9711   18.0649 C   0  0  0  0  0  0
    2.1819   52.4605   18.0101 C   0  0  0  0  0  0
    2.0796   52.0039   16.7133 C   0  0  0  0  0  0
    3.2485   52.2708   16.0766 N   0  0  0  0  0  0
    3.4655   52.0292   15.1213 H   0  0  0  0  0  0
    4.1089   52.8971   16.8862 N   0  0  0  0  0  0
    0.9987   51.4354   16.0906 O   0  0  0  0  0  0
   -0.1320   51.4500   16.8526 C   0  0  0  0  0  0
   -0.2298   51.8657   18.1427 C   0  0  0  0  0  0
    0.9891   52.3221   18.9700 C   0  0  1  0  0  0
    0.7368   53.2966   19.3691 H   0  0  0  0  0  0
    1.2744   51.4393   20.1822 C   0  0  0  0  0  0
    1.6116   50.0919   20.0175 C   0  0  0  0  0  0
    1.9265   49.3059   21.1246 C   0  0  0  0  0  0
    1.9162   49.8686   22.3998 C   0  0  0  0  0  0
    1.5942   51.2108   22.5895 C   0  0  0  0  0  0
    1.2477   51.9872   21.4729 C   0  0  0  0  0  0
    1.6760   51.6802   23.8849 O   0  0  0  0  0  0
    1.6066   53.0795   24.1393 C   0  0  0  0  0  0
    2.2427   53.3679   25.4979 C   0  0  0  0  0  0
    3.4270   54.1072   25.5502 C   0  0  0  0  0  0
    4.0251   54.4208   26.7641 C   0  0  0  0  0  0
    3.4493   54.0086   27.9610 C   0  0  0  0  0  0
    2.2534   53.2493   27.9595 C   0  0  0  0  0  0
    1.6344   52.9076   26.7119 C   0  0  0  0  0  0
    0.4466   52.1208   26.7489 C   0  0  0  0  0  0
   -0.1037   51.7093   27.9609 C   0  0  0  0  0  0
    0.4901   52.0689   29.1646 C   0  0  0  0  0  0
    1.6590   52.8225   29.1754 C   0  0  0  0  0  0
   -1.5078   51.9550   18.7728 C   0  0  0  0  0  0
   -2.5382   52.0939   19.2819 N   0  0  0  0  0  0
   -1.1615   51.0311   16.0536 N   0  0  0  0  0  0
    6.1518   55.0535   22.2418 H   0  0  0  0  0  0
    6.1526   56.2334   20.0692 H   0  0  0  0  0  0
    4.9301   55.2818   18.1516 H   0  0  0  0  0  0
    3.8138   51.9086   20.5523 H   0  0  0  0  0  0
    4.9715   52.8915   22.4853 H   0  0  0  0  0  0
    1.6566   49.6612   19.0270 H   0  0  0  0  0  0
    2.2078   48.2724   20.9892 H   0  0  0  0  0  0
    2.1892   49.2744   23.2576 H   0  0  0  0  0  0
    0.9912   53.0293   21.5895 H   0  0  0  0  0  0
    2.1293   53.6579   23.3740 H   0  0  0  0  0  0
    0.5685   53.4173   24.1367 H   0  0  0  0  0  0
    3.8924   54.4501   24.6368 H   0  0  0  0  0  0
    4.9419   54.9927   26.7781 H   0  0  0  0  0  0
    3.9227   54.2620   28.8993 H   0  0  0  0  0  0
   -0.0374   51.8258   25.8303 H   0  0  0  0  0  0
   -0.9976   51.0993   27.9673 H   0  0  0  0  0  0
    0.0466   51.7431   30.0965 H   0  0  0  0  0  0
    2.1205   53.0842   30.1163 H   0  0  0  0  0  0
   -2.0853   50.8869   16.4322 H   0  0  0  0  0  0
   -1.0637   51.0497   15.0503 H   0  0  0  0  0  0
  1  6  2  0  0  0
  1  2  1  0  0  0
  1 39  1  0  0  0
  2  3  2  0  0  0
  2 40  1  0  0  0
  3  4  1  0  0  0
  3 41  1  0  0  0
  4  5  2  0  0  0
  4  7  1  0  0  0
  5  6  1  0  0  0
  5 42  1  0  0  0
  6 43  1  0  0  0
  7 12  2  0  0  0
  7  8  1  0  0  0
  8 16  1  0  0  0
  8  9  2  0  0  0
  9 10  1  0  0  0
  9 13  1  0  0  0
 10 11  1  0  0  0
 10 12  1  0  0  0
 13 14  1  0  0  0
 14 15  2  0  0  0
 14 38  1  0  0  0
 15 16  1  0  0  0
 15 36  1  0  0  0
 16 17  1  0  0  0
 16 18  1  0  0  0
 18 23  2  0  0  0
 18 19  1  0  0  0
 19 20  2  0  0  0
 19 44  1  0  0  0
 20 21  1  0  0  0
 20 45  1  0  0  0
 21 22  2  0  0  0
 21 46  1  0  0  0
 22 23  1  0  0  0
 22 24  1  0  0  0
 23 47  1  0  0  0
 24 25  1  0  0  0
 25 26  1  0  0  0
 25 48  1  0  0  0
 25 49  1  0  0  0
 26 31  2  0  0  0
 26 27  1  0  0  0
 27 28  2  0  0  0
 27 50  1  0  0  0
 28 29  1  0  0  0
 28 51  1  0  0  0
 29 30  2  0  0  0
 29 52  1  0  0  0
 30 35  1  0  0  0
 30 31  1  0  0  0
 31 32  1  0  0  0
 32 33  2  0  0  0
 32 53  1  0  0  0
 33 34  1  0  0  0
 33 54  1  0  0  0
 34 35  2  0  0  0
 34 55  1  0  0  0
 35 56  1  0  0  0
 36 37  3  0  0  0
 38 57  1  0  0  0
 38 58  1  0  0  0
M  END
> <i_i_glide_confnum>
7

> <i_i_glide_lignum>
3446

> <i_i_glide_posenum>
138

> <i_i_glide_rotatable_bonds>
6

> <i_m_Source_File_Index>
2827

> <b_m_subgroup_collapsed>
0

> <r_i_docking_score>
-5.18126

> <r_i_glide_ecoul>
-3.66781

> <r_i_glide_eff_state_penalty>
0

> <r_i_glide_einternal>
3.20228

> <r_i_glide_emodel>
-56.2895

> <r_i_glide_energy>
-43.9738

> <r_i_glide_erotb>
0.456336

> <r_i_glide_esite>
-0.0865175

> <r_i_glide_evdw>
-40.306

> <r_i_glide_gscore>
-5.18126

> <r_i_glide_hbond>
-0.296206

> <r_i_glide_ligand_efficiency>
-0.143924

> <r_i_glide_ligand_efficiency_ln>
-1.13041

> <r_i_glide_ligand_efficiency_sa>
-0.475226

> <r_i_glide_lipo>
-2.49098

> <r_i_glide_metal>
0

> <r_i_glide_rewards>
-0.198419

> <s_i_glide_gridfile>
wee1_glide-grid

> <s_m_Source_File>
wee1_decoys_glide_SP.sdf

> <s_m_Source_Path>
/Users/zhangxujun/Desktop

> <s_m_entry_id>
3102

> <s_m_entry_name>
wee1_decoys_glide_SP.2827

> <s_m_subgroup_title>
wee1_decoys_glide_SP

> <s_m_subgroupid>
wee1_decoys_glide_SP


$$$$
