@<TRIPOS>MOLECULE
ZINC49122202_1855
43   45    1
SMALL
USER_CHARGES


@<TRIPOS>ATOM
      1 C1          0.9180   55.0837   30.0381 C.3       1 UNK         0.0000 
      2 C2         -0.0930   53.9717   29.6902 C.3       1 UNK         0.0000 
      3 C3          0.1844   53.2200   28.3475 C.3       1 UNK         0.0000 
      4 H4          0.6984   53.9364   27.7172 H         1 UNK         0.0000 
      5 C5         -1.0819   52.7971   27.5566 C.3       1 UNK         0.0000 
      6 C6         -0.8194   51.9860   26.2802 C.3       1 UNK         0.0000 
      7 C7         -0.0662   50.7031   26.6331 C.3       1 UNK         0.0000 
      8 C8          1.2458   51.0389   27.3430 C.3       1 UNK         0.0000 
      9 C9          1.0797   51.9674   28.5571 C.3       1 UNK         0.0000 
     10 H10         0.6213   51.3364   29.3245 H         1 UNK         0.0000 
     11 N11         2.3988   52.3850   29.0454 N.pl3     1 UNK         0.0000 
     12 C12         3.4758   53.0781   28.4801 C.ar      1 UNK         0.0000 
     13 N13         4.3704   53.2161   29.4290 N.2       1 UNK         0.0000 
     14 N14         3.9044   52.5961   30.5727 N.2       1 UNK         0.0000 
     15 N15         2.6566   52.0971   30.3303 N.2       1 UNK         0.0000 
     16 C16         3.7549   53.6135   27.0756 C.ar      1 UNK         0.0000 
     17 C17         2.8317   53.7225   26.0200 C.ar      1 UNK         0.0000 
     18 C18         3.2138   54.1388   24.7449 C.ar      1 UNK         0.0000 
     19 C19         4.5330   54.4968   24.4959 C.ar      1 UNK         0.0000 
     20 C20         5.4636   54.4399   25.5247 C.ar      1 UNK         0.0000 
     21 C21         5.0788   54.0067   26.7919 C.ar      1 UNK         0.0000 
     22 N22         6.7918   54.7717   25.2826 N.pl3     1 UNK         0.0000 
     23 N23         2.2774   54.1882   23.7143 N.pl3     1 UNK         0.0000 
     24 H24         0.5797   55.6553   30.9024 H         1 UNK         0.0000 
     25 H25         1.9011   54.6962   30.2894 H         1 UNK         0.0000 
     26 H26         1.0436   55.7881   29.2152 H         1 UNK         0.0000 
     27 H27        -1.0595   54.4532   29.6817 H         1 UNK         0.0000 
     28 H28        -0.1539   53.2615   30.5180 H         1 UNK         0.0000 
     29 H29        -1.6792   53.6625   27.2815 H         1 UNK         0.0000 
     30 H30        -1.6968   52.1728   28.2090 H         1 UNK         0.0000 
     31 H31        -1.7634   51.7334   25.7972 H         1 UNK         0.0000 
     32 H32        -0.2543   52.5759   25.5593 H         1 UNK         0.0000 
     33 H33        -0.6949   50.0968   27.2816 H         1 UNK         0.0000 
     34 H34         0.1253   50.1097   25.7376 H         1 UNK         0.0000 
     35 H35         1.7146   50.0982   27.6519 H         1 UNK         0.0000 
     36 H36         1.9042   51.5209   26.6496 H         1 UNK         0.0000 
     37 H37         1.7990   53.4747   26.1370 H         1 UNK         0.0000 
     38 H38         4.8330   54.8143   23.5088 H         1 UNK         0.0000 
     39 H39         5.8435   53.9513   27.5544 H         1 UNK         0.0000 
     40 H40         7.4591   54.3192   25.8902 H         1 UNK         0.0000 
     41 H41         7.0500   54.9054   24.3147 H         1 UNK         0.0000 
     42 H42         2.5968   54.3708   22.7730 H         1 UNK         0.0000 
     43 H43         1.3524   53.8160   23.8727 H         1 UNK         0.0000 
@<TRIPOS>BOND
     1    1    2 1    
     2    1   24 1    
     3    1   25 1    
     4    1   26 1    
     5    2    3 1    
     6    2   27 1    
     7    2   28 1    
     8    3    4 1    
     9    3    9 1    
    10    3    5 1    
    11    5    6 1    
    12    5   29 1    
    13    5   30 1    
    14    6    7 1    
    15    6   31 1    
    16    6   32 1    
    17    7    8 1    
    18    7   33 1    
    19    7   34 1    
    20    8    9 1    
    21    8   35 1    
    22    8   36 1    
    23    9   10 1    
    24    9   11 1    
    25   11   15 ar   
    26   11   12 ar   
    27   12   13 ar   
    28   12   16 1    
    29   13   14 ar   
    30   14   15 ar   
    31   16   21 ar   
    32   16   17 ar   
    33   17   18 ar   
    34   17   37 1    
    35   18   19 ar   
    36   18   23 1    
    37   19   20 ar   
    38   19   38 1    
    39   20   21 ar   
    40   20   22 1    
    41   21   39 1    
    42   22   40 1    
    43   22   41 1    
    44   23   42 1    
    45   23   43 1    
@<TRIPOS>SUBSTRUCTURE
     1 UNK         1 GROUP             0       ****    0 ROOT    
