@<TRIPOS>MOLECULE
ZINC35350232_3475
70   74    1
SMALL
USER_CHARGES


@<TRIPOS>ATOM
      1 C1          4.5773   54.7277   29.2807 C.3       1 UNK         0.0000 
      2 C2          4.1442   54.4462   27.8611 C.ar      1 UNK         0.0000 
      3 C3          5.0113   54.6607   26.7883 C.ar      1 UNK         0.0000 
      4 C4          4.6070   54.3440   25.4933 C.ar      1 UNK         0.0000 
      5 C5          3.3418   53.7962   25.2627 C.ar      1 UNK         0.0000 
      6 C6          2.4620   53.5816   26.3441 C.ar      1 UNK         0.0000 
      7 C7          2.8680   53.9350   27.6321 C.ar      1 UNK         0.0000 
      8 C8          1.1291   52.8670   26.1983 C.3       1 UNK         0.0000 
      9 N9          3.1062   53.2957   23.9807 N.am      1 UNK         0.0000 
     10 C10         2.1165   53.5789   23.1225 C.2       1 UNK         0.0000 
     11 O11         1.3141   54.4961   23.2826 O.2       1 UNK         0.0000 
     12 C12         2.0158   52.6096   22.0334 C.2       1 UNK         0.0000 
     13 C13         3.0832   52.2048   21.2898 C.2       1 UNK         0.0000 
     14 N14         2.8967   51.2518   20.3182 N.pl3     1 UNK         0.0000 
     15 C15         1.7359   50.6606   20.0250 C.2       1 UNK         0.0000 
     16 N16         0.6134   51.0602   20.6526 N.pl3     1 UNK         0.0000 
     17 C17         0.5968   52.0543   21.7604 C.3       1 UNK         0.0000 
     18 H18         0.0463   52.8958   21.3365 H         1 UNK         0.0000 
     19 C19        -0.1969   51.6036   23.0027 C.ar      1 UNK         0.0000 
     20 C20         0.1568   50.4558   23.7215 C.ar      1 UNK         0.0000 
     21 C21        -0.5602   50.0963   24.8676 C.ar      1 UNK         0.0000 
     22 C22        -1.6283   50.8825   25.3140 C.ar      1 UNK         0.0000 
     23 C23        -1.9991   52.0111   24.5640 C.ar      1 UNK         0.0000 
     24 C24        -1.2938   52.3605   23.4205 C.ar      1 UNK         0.0000 
     25 N25        -2.2447   50.4982   26.5289 N.am      1 UNK         0.0000 
     26 C26        -3.2514   51.1021   27.1996 C.2       1 UNK         0.0000 
     27 O27        -3.8774   52.0859   26.8060 O.2       1 UNK         0.0000 
     28 N28        -3.4764   50.4963   28.3817 N.am      1 UNK         0.0000 
     29 C29        -4.5229   50.7236   29.2986 C.ar      1 UNK         0.0000 
     30 C30        -5.7561   51.2981   28.9480 C.ar      1 UNK         0.0000 
     31 C31        -6.7413   51.4839   29.9142 C.ar      1 UNK         0.0000 
     32 C32        -6.5064   51.0801   31.2249 C.ar      1 UNK         0.0000 
     33 C33        -5.2960   50.4877   31.5776 C.ar      1 UNK         0.0000 
     34 C34        -4.3098   50.3051   30.6141 C.ar      1 UNK         0.0000 
     35 C35        -0.7273   50.7939   20.0931 C.3       1 UNK         0.0000 
     36 C36        -0.7920   49.3968   19.4459 C.3       1 UNK         0.0000 
     37 C37         0.2159   49.1775   18.3098 C.3       1 UNK         0.0000 
     38 S38         1.9037   49.3375   18.9217 S.3       1 UNK         0.0000 
     39 C39         4.5183   52.7253   21.3406 C.3       1 UNK         0.0000 
     40 H40         4.7030   53.7899   29.8205 H         1 UNK         0.0000 
     41 H41         3.7963   55.2966   29.7803 H         1 UNK         0.0000 
     42 H42         5.5063   55.2955   29.3282 H         1 UNK         0.0000 
     43 H43         6.0027   55.0532   26.9602 H         1 UNK         0.0000 
     44 H44         5.3000   54.4814   24.6755 H         1 UNK         0.0000 
     45 H45         2.2133   53.7535   28.4716 H         1 UNK         0.0000 
     46 H46         0.5236   53.2969   25.4061 H         1 UNK         0.0000 
     47 H47         1.3122   51.8237   25.9451 H         1 UNK         0.0000 
     48 H48         0.5301   52.9012   27.1106 H         1 UNK         0.0000 
     49 H49         3.8215   52.6809   23.6293 H         1 UNK         0.0000 
     50 H50         0.9997   49.8569   23.4104 H         1 UNK         0.0000 
     51 H51        -0.2585   49.2215   25.4292 H         1 UNK         0.0000 
     52 H52        -2.8115   52.6579   24.8463 H         1 UNK         0.0000 
     53 H53        -1.5932   53.2484   22.8836 H         1 UNK         0.0000 
     54 H54        -1.8573   49.6723   26.9768 H         1 UNK         0.0000 
     55 H55        -2.8065   49.7869   28.6634 H         1 UNK         0.0000 
     56 H56        -5.9702   51.5974   27.9338 H         1 UNK         0.0000 
     57 H57        -7.6872   51.9279   29.6405 H         1 UNK         0.0000 
     58 H58        -7.2692   51.2173   31.9773 H         1 UNK         0.0000 
     59 H59        -5.1155   50.1730   32.5962 H         1 UNK         0.0000 
     60 H60        -3.3715   49.8543   30.9072 H         1 UNK         0.0000 
     61 H61        -1.4833   50.8732   20.8729 H         1 UNK         0.0000 
     62 H62        -0.9307   51.5715   19.3576 H         1 UNK         0.0000 
     63 H63        -0.6424   48.6323   20.2120 H         1 UNK         0.0000 
     64 H64        -1.8009   49.2301   19.0665 H         1 UNK         0.0000 
     65 H65         0.1200   48.1896   17.8607 H         1 UNK         0.0000 
     66 H66         0.0864   49.9179   17.5189 H         1 UNK         0.0000 
     67 H67         5.1505   52.0409   21.9066 H         1 UNK         0.0000 
     68 H68         4.9431   52.8219   20.3384 H         1 UNK         0.0000 
     69 H69         4.5858   53.7136   21.7979 H         1 UNK         0.0000 
     70 H70         3.6871   50.9646   19.7527 H         1 UNK         0.0000 
@<TRIPOS>BOND
     1    1    2 1    
     2    1   40 1    
     3    1   41 1    
     4    1   42 1    
     5    2    7 ar   
     6    2    3 ar   
     7    3    4 ar   
     8    3   43 1    
     9    4    5 ar   
    10    4   44 1    
    11    5    6 ar   
    12    5    9 1    
    13    6    7 ar   
    14    6    8 1    
    15    7   45 1    
    16    8   46 1    
    17    8   47 1    
    18    8   48 1    
    19    9   10 am   BACKBONE|DICT|INTERRES
    20    9   49 1    
    21   10   11 2    
    22   10   12 1    
    23   12   17 1    
    24   12   13 2    
    25   13   14 1    
    26   13   39 1    
    27   14   15 2    
    28   14   70 1    
    29   15   38 1    
    30   15   16 1    
    31   16   17 1    
    32   16   35 1    
    33   17   18 1    
    34   17   19 1    
    35   19   24 ar   
    36   19   20 ar   
    37   20   21 ar   
    38   20   50 1    
    39   21   22 ar   
    40   21   51 1    
    41   22   23 ar   
    42   22   25 1    
    43   23   24 ar   
    44   23   52 1    
    45   24   53 1    
    46   25   26 am   BACKBONE|DICT|INTERRES
    47   25   54 1    
    48   26   27 2    
    49   26   28 am   BACKBONE|DICT|INTERRES
    50   28   29 1    
    51   28   55 1    
    52   29   34 ar   
    53   29   30 ar   
    54   30   31 ar   
    55   30   56 1    
    56   31   32 ar   
    57   31   57 1    
    58   32   33 ar   
    59   32   58 1    
    60   33   34 ar   
    61   33   59 1    
    62   34   60 1    
    63   35   36 1    
    64   35   61 1    
    65   35   62 1    
    66   36   37 1    
    67   36   63 1    
    68   36   64 1    
    69   37   38 1    
    70   37   65 1    
    71   37   66 1    
    72   39   67 1    
    73   39   68 1    
    74   39   69 1    
@<TRIPOS>SUBSTRUCTURE
     1 UNK         1 GROUP             0       ****    0 ROOT    
