@<TRIPOS>MOLECULE
ZINC16201616_3377
63   66    1
SMALL
USER_CHARGES


@<TRIPOS>ATOM
      1 C1          9.8475   54.0307   17.2982 C.3       1 UNK         0.0000 
      2 C2          8.9080   53.1004   16.5673 C.2       1 UNK         0.0000 
      3 C3          7.5914   53.3069   16.1402 C.2       1 UNK         0.0000 
      4 C4          7.2688   52.1622   15.4401 C.2       1 UNK         0.0000 
      5 O5          8.3110   51.2999   15.5144 O.3       1 UNK         0.0000 
      6 N6          9.3371   51.9009   16.2395 N.2       1 UNK         0.0000 
      7 C7          6.0724   51.7055   14.6397 C.3       1 UNK         0.0000 
      8 S8          6.5420   54.7583   16.3797 S.o2      1 UNK         0.0000 
      9 O9          5.2818   54.4939   15.6772 O.2       1 UNK         0.0000 
     10 O10         7.3631   55.9311   16.0593 O.2       1 UNK         0.0000 
     11 N11         6.2215   54.7285   18.1274 N.pl3     1 UNK         0.0000 
     12 C12         7.2263   55.3219   19.0388 C.3       1 UNK         0.0000 
     13 C13         6.5124   55.8489   20.2994 C.3       1 UNK         0.0000 
     14 C14         5.6091   54.7807   20.9656 C.3       1 UNK         0.0000 
     15 C15         4.7239   54.0177   19.9355 C.3       1 UNK         0.0000 
     16 H16         3.9202   54.6646   19.5743 H         1 UNK         0.0000 
     17 C17         5.5319   53.5458   18.6971 C.3       1 UNK         0.0000 
     18 C18         4.0648   52.8274   20.6676 C.2       1 UNK         0.0000 
     19 O19         4.7066   51.7947   20.8841 O.2       1 UNK         0.0000 
     20 N20         2.8123   53.0474   21.1215 N.am      1 UNK         0.0000 
     21 N21         2.1216   52.0197   21.7495 N.am      1 UNK         0.0000 
     22 C22         1.6761   52.1317   23.0253 C.2       1 UNK         0.0000 
     23 O23         0.7689   51.3854   23.3906 O.2       1 UNK         0.0000 
     24 C24         2.3360   52.9949   24.0062 C.2       1 UNK         0.0000 
     25 C25         3.5405   53.6968   23.9630 C.2       1 UNK         0.0000 
     26 C26         3.9307   54.3171   25.1556 C.2       1 UNK         0.0000 
     27 C27         3.0274   54.0544   26.1919 C.2       1 UNK         0.0000 
     28 S28         1.6860   53.1074   25.6133 S.3       1 UNK         0.0000 
     29 C29         3.1056   54.4542   27.6523 C.3       1 UNK         0.0000 
     30 C30         3.9787   53.5058   28.4949 C.3       1 UNK         0.0000 
     31 C31         5.3355   53.1348   27.8631 C.3       1 UNK         0.0000 
     32 C32         6.2640   54.3003   27.4794 C.3       1 UNK         0.0000 
     33 C33         6.3980   54.5009   25.9574 C.3       1 UNK         0.0000 
     34 C34         5.1918   55.1622   25.2701 C.3       1 UNK         0.0000 
     35 H35         9.4994   55.0621   17.3025 H         1 UNK         0.0000 
     36 H36         9.9823   53.7294   18.3354 H         1 UNK         0.0000 
     37 H37        10.8377   54.0452   16.8401 H         1 UNK         0.0000 
     38 H38         5.6958   52.4966   13.9930 H         1 UNK         0.0000 
     39 H39         6.3122   50.8565   13.9999 H         1 UNK         0.0000 
     40 H40         5.2510   51.3987   15.2860 H         1 UNK         0.0000 
     41 H41         7.7745   56.1169   18.5331 H         1 UNK         0.0000 
     42 H42         7.9187   54.5394   19.3497 H         1 UNK         0.0000 
     43 H43         5.9113   56.7187   20.0248 H         1 UNK         0.0000 
     44 H44         7.2511   56.2093   21.0184 H         1 UNK         0.0000 
     45 H45         4.9877   55.2958   21.6943 H         1 UNK         0.0000 
     46 H46         6.2981   54.1008   21.4670 H         1 UNK         0.0000 
     47 H47         6.3145   52.8531   19.0121 H         1 UNK         0.0000 
     48 H48         4.8940   53.1063   17.9274 H         1 UNK         0.0000 
     49 H49         2.2102   53.7741   20.7499 H         1 UNK         0.0000 
     50 H50         1.6375   51.4315   21.0878 H         1 UNK         0.0000 
     51 H51         4.1811   53.7543   23.1047 H         1 UNK         0.0000 
     52 H52         2.1098   54.5158   28.0925 H         1 UNK         0.0000 
     53 H53         3.5182   55.4512   27.7485 H         1 UNK         0.0000 
     54 H54         3.4218   52.5847   28.6769 H         1 UNK         0.0000 
     55 H55         4.1450   53.9485   29.4787 H         1 UNK         0.0000 
     56 H56         5.1554   52.4992   26.9953 H         1 UNK         0.0000 
     57 H57         5.8755   52.4789   28.5334 H         1 UNK         0.0000 
     58 H58         7.2576   54.0866   27.8757 H         1 UNK         0.0000 
     59 H59         5.9641   55.2276   27.9697 H         1 UNK         0.0000 
     60 H60         6.6373   53.5548   25.4685 H         1 UNK         0.0000 
     61 H61         7.2647   55.1378   25.7807 H         1 UNK         0.0000 
     62 H62         4.9603   56.0966   25.7704 H         1 UNK         0.0000 
     63 H63         5.5179   55.4657   24.2752 H         1 UNK         0.0000 
@<TRIPOS>BOND
     1    1    2 1    
     2    1   35 1    
     3    1   36 1    
     4    1   37 1    
     5    2    6 2    
     6    2    3 1    
     7    3    4 2    
     8    3    8 1    
     9    4    5 1    
    10    4    7 1    
    11    5    6 1    
    12    7   38 1    
    13    7   39 1    
    14    7   40 1    
    15    8    9 2    
    16    8   10 2    
    17    8   11 1    
    18   11   17 1    
    19   11   12 1    
    20   12   13 1    
    21   12   41 1    
    22   12   42 1    
    23   13   14 1    
    24   13   43 1    
    25   13   44 1    
    26   14   15 1    
    27   14   45 1    
    28   14   46 1    
    29   15   16 1    
    30   15   17 1    
    31   15   18 1    
    32   17   47 1    
    33   17   48 1    
    34   18   19 2    
    35   18   20 am   BACKBONE|DICT|INTERRES
    36   20   21 1    
    37   20   49 1    
    38   21   22 am   BACKBONE|DICT|INTERRES
    39   21   50 1    
    40   22   23 2    
    41   22   24 1    
    42   24   28 1    
    43   24   25 2    
    44   25   26 1    
    45   25   51 1    
    46   26   34 1    
    47   26   27 2    
    48   27   28 1    
    49   27   29 1    
    50   29   30 1    
    51   29   52 1    
    52   29   53 1    
    53   30   31 1    
    54   30   54 1    
    55   30   55 1    
    56   31   32 1    
    57   31   56 1    
    58   31   57 1    
    59   32   33 1    
    60   32   58 1    
    61   32   59 1    
    62   33   34 1    
    63   33   60 1    
    64   33   61 1    
    65   34   62 1    
    66   34   63 1    
@<TRIPOS>SUBSTRUCTURE
     1 UNK         1 GROUP             0       ****    0 ROOT    
