@<TRIPOS>MOLECULE
ZINC39675425_4901
77   79    1
SMALL
USER_CHARGES


@<TRIPOS>ATOM
      1 C1          6.6738   54.7670   26.4702 C.3       1 UNK         0.0000 
      2 C2          6.6062   55.2061   24.9986 C.3       1 UNK         0.0000 
      3 C3          6.4121   54.0301   24.0208 C.3       1 UNK         0.0000 
      4 C4          6.2141   54.4850   22.5500 C.3       1 UNK         0.0000 
      5 C5          5.1965   53.6618   21.6985 C.3       1 UNK         0.0000 
      6 H6          5.5699   52.6394   21.6550 H         1 UNK         0.0000 
      7 C7          5.1378   54.2190   20.2586 C.3       1 UNK         0.0000 
      8 C8          3.7777   53.5935   22.3241 C.2       1 UNK         0.0000 
      9 O9          3.4132   54.4966   23.0810 O.2       1 UNK         0.0000 
     10 N10         2.9838   52.5209   22.0829 N.am      1 UNK         0.0000 
     11 C11         1.7305   52.3334   22.8108 C.3       1 UNK         0.0000 
     12 C12         1.3751   50.8699   22.4892 C.3       1 UNK         0.0000 
     13 H13         1.9040   50.2322   23.2004 H         1 UNK         0.0000 
     14 C14         1.8985   50.6564   21.0423 C.3       1 UNK         0.0000 
     15 C15         3.2500   51.4174   21.1500 C.3       1 UNK         0.0000 
     16 C16         0.9752   51.2885   19.9482 C.3       1 UNK         0.0000 
     17 C17         1.6033   51.2253   18.5368 C.3       1 UNK         0.0000 
     18 N18         1.9043   49.7485   18.1926 N.4       1 UNK         0.0000 
     19 C19         2.7075   49.0008   19.2818 C.3       1 UNK         0.0000 
     20 C20         2.0197   49.1631   20.6451 C.3       1 UNK         0.0000 
     21 C21        -0.1239   50.5722   22.7271 C.2       1 UNK         0.0000 
     22 O22        -0.5945   49.5233   22.2884 O.2       1 UNK         0.0000 
     23 N23        -0.8563   51.4403   23.4526 N.am      1 UNK         0.0000 
     24 C24        -2.2830   51.3187   23.7647 C.3       1 UNK         0.0000 
     25 H25        -2.5473   52.2565   24.2576 H         1 UNK         0.0000 
     26 C26        -3.1465   51.2548   22.4923 C.3       1 UNK         0.0000 
     27 C27        -2.5806   50.1603   24.7525 C.3       1 UNK         0.0000 
     28 C28        -2.5124   50.5484   26.2407 C.3       1 UNK         0.0000 
     29 C29        -1.1944   51.1559   26.7081 C.ar      1 UNK         0.0000 
     30 C30        -1.1454   52.4966   27.0657 C.ar      1 UNK         0.0000 
     31 C31        -0.0116   53.0201   27.6870 C.ar      1 UNK         0.0000 
     32 C32         1.1170   52.2220   27.8974 C.ar      1 UNK         0.0000 
     33 C33         1.0737   50.8967   27.4843 C.ar      1 UNK         0.0000 
     34 C34        -0.0632   50.3645   26.8816 C.ar      1 UNK         0.0000 
     35 O35         2.2868   52.6508   28.4949 O.3       1 UNK         0.0000 
     36 C36         2.4144   54.0180   28.8687 C.3       1 UNK         0.0000 
     37 H37         6.7924   55.6249   27.1334 H         1 UNK         0.0000 
     38 H38         7.5040   54.0852   26.6528 H         1 UNK         0.0000 
     39 H39         5.7591   54.2522   26.7684 H         1 UNK         0.0000 
     40 H40         5.7770   55.9070   24.8895 H         1 UNK         0.0000 
     41 H41         7.5044   55.7619   24.7316 H         1 UNK         0.0000 
     42 H42         7.2679   53.3558   24.0776 H         1 UNK         0.0000 
     43 H43         5.5594   53.4435   24.3642 H         1 UNK         0.0000 
     44 H44         5.9046   55.5277   22.5282 H         1 UNK         0.0000 
     45 H45         7.1915   54.4968   22.0660 H         1 UNK         0.0000 
     46 H46         4.4469   53.6645   19.6236 H         1 UNK         0.0000 
     47 H47         4.8173   55.2617   20.2415 H         1 UNK         0.0000 
     48 H48         6.1151   54.1697   19.7771 H         1 UNK         0.0000 
     49 H49         1.8264   52.4917   23.8871 H         1 UNK         0.0000 
     50 H50         1.0039   53.0191   22.3696 H         1 UNK         0.0000 
     51 H51         3.6849   51.6897   20.1907 H         1 UNK         0.0000 
     52 H52         3.9678   50.7559   21.6341 H         1 UNK         0.0000 
     53 H53        -0.0162   50.8336   19.9450 H         1 UNK         0.0000 
     54 H54         0.8031   52.3424   20.1742 H         1 UNK         0.0000 
     55 H55         0.9261   51.5855   17.7620 H         1 UNK         0.0000 
     56 H56         2.5462   51.7651   18.4399 H         1 UNK         0.0000 
     57 H57         1.0436   49.2534   18.0091 H         1 UNK         0.0000 
     58 H58         2.7904   47.9624   18.9550 H         1 UNK         0.0000 
     59 H59         3.6970   49.4461   19.2817 H         1 UNK         0.0000 
     60 H60         2.6297   48.6449   21.3868 H         1 UNK         0.0000 
     61 H61         1.0577   48.6510   20.6549 H         1 UNK         0.0000 
     62 H62        -0.3768   52.2108   23.8937 H         1 UNK         0.0000 
     63 H63        -4.2069   51.2967   22.7422 H         1 UNK         0.0000 
     64 H64        -2.8960   52.0765   21.8192 H         1 UNK         0.0000 
     65 H65        -3.0091   50.3178   21.9534 H         1 UNK         0.0000 
     66 H66        -3.5823   49.7691   24.5657 H         1 UNK         0.0000 
     67 H67        -1.9185   49.3126   24.5703 H         1 UNK         0.0000 
     68 H68        -3.3316   51.2305   26.4752 H         1 UNK         0.0000 
     69 H69        -2.7081   49.6689   26.8556 H         1 UNK         0.0000 
     70 H70        -2.0030   53.1293   26.8817 H         1 UNK         0.0000 
     71 H71        -0.0251   54.0510   28.0073 H         1 UNK         0.0000 
     72 H72         1.9143   50.2535   27.6816 H         1 UNK         0.0000 
     73 H73        -0.0946   49.3133   26.6253 H         1 UNK         0.0000 
     74 H74         3.4073   54.1831   29.2890 H         1 UNK         0.0000 
     75 H75         2.3072   54.6807   28.0086 H         1 UNK         0.0000 
     76 H76         1.6839   54.2958   29.6306 H         1 UNK         0.0000 
     77 H77         2.4703   49.6976   17.3449 H         1 UNK         0.0000 
@<TRIPOS>BOND
     1    1    2 1    
     2    1   37 1    
     3    1   38 1    
     4    1   39 1    
     5    2    3 1    
     6    2   40 1    
     7    2   41 1    
     8    3    4 1    
     9    3   42 1    
    10    3   43 1    
    11    4    5 1    
    12    4   44 1    
    13    4   45 1    
    14    5    6 1    
    15    5    7 1    
    16    5    8 1    
    17    7   46 1    
    18    7   47 1    
    19    7   48 1    
    20    8    9 2    
    21    8   10 am   BACKBONE|DICT|INTERRES
    22   10   15 1    
    23   10   11 1    
    24   11   12 1    
    25   11   49 1    
    26   11   50 1    
    27   12   13 1    
    28   12   14 1    
    29   12   21 1    
    30   14   20 1    
    31   14   15 1    
    32   14   16 1    
    33   15   51 1    
    34   15   52 1    
    35   16   17 1    
    36   16   53 1    
    37   16   54 1    
    38   17   18 1    
    39   17   55 1    
    40   17   56 1    
    41   18   19 1    
    42   18   57 1    
    43   18   77 1    
    44   19   20 1    
    45   19   58 1    
    46   19   59 1    
    47   20   60 1    
    48   20   61 1    
    49   21   22 2    
    50   21   23 am   BACKBONE|DICT|INTERRES
    51   23   24 1    
    52   23   62 1    
    53   24   25 1    
    54   24   26 1    
    55   24   27 1    
    56   26   63 1    
    57   26   64 1    
    58   26   65 1    
    59   27   28 1    
    60   27   66 1    
    61   27   67 1    
    62   28   29 1    
    63   28   68 1    
    64   28   69 1    
    65   29   34 ar   
    66   29   30 ar   
    67   30   31 ar   
    68   30   70 1    
    69   31   32 ar   
    70   31   71 1    
    71   32   33 ar   
    72   32   35 1    
    73   33   34 ar   
    74   33   72 1    
    75   34   73 1    
    76   35   36 1    
    77   36   74 1    
    78   36   75 1    
    79   36   76 1    
@<TRIPOS>SUBSTRUCTURE
     1 UNK         1 GROUP             0       ****    0 ROOT    
