@<TRIPOS>MOLECULE
ZINC44593512_1687
35   36    1
SMALL
USER_CHARGES


@<TRIPOS>ATOM
      1 C1          0.8335   53.8541   23.6817 C.3       1 UNK         0.0000 
      2 C2          0.8012   53.0098   24.9418 C.ar      1 UNK         0.0000 
      3 C3          1.6151   53.3966   26.0027 C.ar      1 UNK         0.0000 
      4 C4          1.6537   52.6767   27.1886 C.ar      1 UNK         0.0000 
      5 C5          0.8172   51.5683   27.3416 C.ar      1 UNK         0.0000 
      6 C6         -0.0368   51.1898   26.2994 C.ar      1 UNK         0.0000 
      7 C7         -0.0454   51.8988   25.0821 C.ar      1 UNK         0.0000 
      8 C8         -0.9883   51.5022   23.9402 C.3       1 UNK         0.0000 
      9 N9         -0.8785   50.0967   26.4817 N.pl3     1 UNK         0.0000 
     10 S10         2.8359   53.1849   28.4355 S.o2      1 UNK         0.0000 
     11 O11         2.7017   54.6351   28.6177 O.2       1 UNK         0.0000 
     12 O12         2.7384   52.2529   29.5655 O.2       1 UNK         0.0000 
     13 N13         4.4080   52.8967   27.6817 N.pl3     1 UNK         0.0000 
     14 C14         5.0311   53.7276   26.7851 C.ar      1 UNK         0.0000 
     15 C15         4.7756   54.0967   25.4716 C.ar      1 UNK         0.0000 
     16 C16         5.8189   54.9422   25.0970 C.ar      1 UNK         0.0000 
     17 N17         6.7044   55.0719   26.0503 N.2       1 UNK         0.0000 
     18 N18         6.2517   54.2960   27.0464 N.pl3     1 UNK         0.0000 
     19 C19         7.0778   54.0967   28.2177 C.3       1 UNK         0.0000 
     20 H20         1.7277   54.4761   23.6203 H         1 UNK         0.0000 
     21 H21         0.8224   53.2325   22.7858 H         1 UNK         0.0000 
     22 H22        -0.0437   54.4967   23.6817 H         1 UNK         0.0000 
     23 H23         2.2165   54.2869   25.9174 H         1 UNK         0.0000 
     24 H24         0.8309   51.0008   28.2615 H         1 UNK         0.0000 
     25 H25        -1.9016   51.0321   24.3040 H         1 UNK         0.0000 
     26 H26        -0.4890   50.8165   23.2552 H         1 UNK         0.0000 
     27 H27        -1.3281   52.3710   23.3772 H         1 UNK         0.0000 
     28 H28        -0.8956   49.5466   27.3488 H         1 UNK         0.0000 
     29 H29        -1.4361   49.7774   25.7064 H         1 UNK         0.0000 
     30 H30         4.7044   51.9347   27.7609 H         1 UNK         0.0000 
     31 H31         3.9631   53.7793   24.8391 H         1 UNK         0.0000 
     32 H32         5.9432   55.4217   24.1367 H         1 UNK         0.0000 
     33 H33         7.2590   53.0309   28.3530 H         1 UNK         0.0000 
     34 H34         8.0306   54.6020   28.0817 H         1 UNK         0.0000 
     35 H35         6.5593   54.4962   29.0892 H         1 UNK         0.0000 
@<TRIPOS>BOND
     1    1    2 1    
     2    1   20 1    
     3    1   21 1    
     4    1   22 1    
     5    2    7 ar   
     6    2    3 ar   
     7    3    4 ar   
     8    3   23 1    
     9    4    5 ar   
    10    4   10 1    
    11    5    6 ar   
    12    5   24 1    
    13    6    7 ar   
    14    6    9 1    
    15    7    8 1    
    16    8   25 1    
    17    8   26 1    
    18    8   27 1    
    19    9   28 1    
    20    9   29 1    
    21   10   11 2    
    22   10   12 2    
    23   10   13 1    
    24   13   14 1    
    25   13   30 1    
    26   14   18 ar   
    27   14   15 ar   
    28   15   16 ar   
    29   15   31 1    
    30   16   17 ar   
    31   16   32 1    
    32   17   18 ar   
    33   18   19 1    
    34   19   33 1    
    35   19   34 1    
    36   19   35 1    
@<TRIPOS>SUBSTRUCTURE
     1 UNK         1 GROUP             0       ****    0 ROOT    
