@<TRIPOS>MOLECULE
ZINC09320603_973
57   62    1
SMALL
USER_CHARGES


@<TRIPOS>ATOM
      1 C1         -7.0585   49.9528   32.4099 C.3       1 UNK         0.0000 
      2 C2         -6.6242   49.6705   30.9650 C.3       1 UNK         0.0000 
      3 H3         -7.0956   48.7491   30.6155 H         1 UNK         0.0000 
      4 C4         -5.1060   49.5449   30.7549 C.3       1 UNK         0.0000 
      5 C5         -4.9193   50.2944   29.4779 C.ar      1 UNK         0.0000 
      6 C6         -3.7980   50.4966   28.6789 C.ar      1 UNK         0.0000 
      7 C7         -3.8410   51.3934   27.6000 C.ar      1 UNK         0.0000 
      8 C8         -5.0789   51.9912   27.2816 C.ar      1 UNK         0.0000 
      9 C9         -6.2088   51.7884   28.0816 C.ar      1 UNK         0.0000 
     10 C10        -6.0964   50.9474   29.1829 C.ar      1 UNK         0.0000 
     11 O11        -7.0929   50.7052   30.0935 O.3       1 UNK         0.0000 
     12 C12        -2.6362   51.6969   26.7481 C.2       1 UNK         0.0000 
     13 O13        -2.8188   52.0069   25.5677 O.2       1 UNK         0.0000 
     14 C14        -1.2527   51.8301   27.2819 C.2       1 UNK         0.0000 
     15 C15        -0.7307   51.8093   28.5219 C.2       1 UNK         0.0000 
     16 C16         0.7000   52.0423   28.5472 C.2       1 UNK         0.0000 
     17 O17         1.4556   52.0339   29.5302 O.2       1 UNK         0.0000 
     18 N18         1.0390   52.3394   27.2631 N.am      1 UNK         0.0000 
     19 C19        -0.0923   52.0901   26.3508 C.3       1 UNK         0.0000 
     20 H20        -0.2916   53.0141   25.8116 H         1 UNK         0.0000 
     21 C21         0.1182   51.0283   25.2497 C.ar      1 UNK         0.0000 
     22 C22         0.4758   51.4364   23.9588 C.ar      1 UNK         0.0000 
     23 C23         0.5723   50.5201   22.9173 C.ar      1 UNK         0.0000 
     24 C24         0.2365   49.1892   23.1367 C.ar      1 UNK         0.0000 
     25 C25        -0.1990   48.7610   24.3907 C.ar      1 UNK         0.0000 
     26 C26        -0.2116   49.6783   25.4566 C.ar      1 UNK         0.0000 
     27 O27        -0.6286   47.4525   24.4836 O.3       1 UNK         0.0000 
     28 C28        -1.6399   47.1555   25.4459 C.3       1 UNK         0.0000 
     29 C29         2.2592   52.9288   26.8854 C.2       1 UNK         0.0000 
     30 N30         3.3041   53.0463   27.6730 N.2       1 UNK         0.0000 
     31 C31         4.3305   53.6967   27.0736 C.ar      1 UNK         0.0000 
     32 C32         5.5787   53.9490   27.6618 C.ar      1 UNK         0.0000 
     33 C33         6.5403   54.6227   26.9059 C.ar      1 UNK         0.0000 
     34 C34         6.2745   55.0348   25.5987 C.ar      1 UNK         0.0000 
     35 C35         5.0453   54.7875   24.9976 C.ar      1 UNK         0.0000 
     36 C36         4.0709   54.1270   25.7492 C.ar      1 UNK         0.0000 
     37 S37         2.4311   53.6964   25.3150 S.3       1 UNK         0.0000 
     38 F38         7.2115   55.6968   24.8933 F         1 UNK         0.0000 
     39 O39        -1.2955   51.6967   29.6685 O.co2     1 UNK         0.0000 
     40 H40        -6.7221   49.1624   33.0818 H         1 UNK         0.0000 
     41 H41        -8.1441   50.0164   32.4852 H         1 UNK         0.0000 
     42 H42        -6.6427   50.8949   32.7701 H         1 UNK         0.0000 
     43 H43        -4.5551   50.0574   31.5464 H         1 UNK         0.0000 
     44 H44        -4.7778   48.5057   30.7095 H         1 UNK         0.0000 
     45 H45        -2.8956   49.9685   28.9280 H         1 UNK         0.0000 
     46 H46        -5.1625   52.6574   26.4343 H         1 UNK         0.0000 
     47 H47        -7.1380   52.2866   27.8503 H         1 UNK         0.0000 
     48 H48         0.6550   52.4757   23.7370 H         1 UNK         0.0000 
     49 H49         0.8642   50.8494   21.9309 H         1 UNK         0.0000 
     50 H50         0.2654   48.4969   22.3101 H         1 UNK         0.0000 
     51 H51        -0.5298   49.3589   26.4393 H         1 UNK         0.0000 
     52 H52        -1.9644   46.1232   25.3148 H         1 UNK         0.0000 
     53 H53        -1.2955   47.2546   26.4735 H         1 UNK         0.0000 
     54 H54        -2.5142   47.7957   25.3137 H         1 UNK         0.0000 
     55 H55         5.7910   53.6292   28.6710 H         1 UNK         0.0000 
     56 H56         7.5034   54.8322   27.3479 H         1 UNK         0.0000 
     57 H57         4.8534   55.1027   23.9846 H         1 UNK         0.0000 
@<TRIPOS>BOND
     1    1    2 1    
     2    1   40 1    
     3    1   41 1    
     4    1   42 1    
     5    2    3 1    
     6    2   11 1    
     7    2    4 1    
     8    4    5 1    
     9    4   43 1    
    10    4   44 1    
    11    5   10 ar   
    12    5    6 ar   
    13    6    7 ar   
    14    6   45 1    
    15    7    8 ar   
    16    7   12 1    
    17    8    9 ar   
    18    8   46 1    
    19    9   10 ar   
    20    9   47 1    
    21   10   11 1    
    22   12   13 2    
    23   12   14 1    
    24   14   19 1    
    25   14   15 2    
    26   15   16 1    
    27   15   39 1    
    28   16   17 2    
    29   16   18 am   BACKBONE|DICT|INTERRES
    30   18   19 1    
    31   18   29 am   BACKBONE|DICT|INTERRES
    32   19   20 1    
    33   19   21 1    
    34   21   26 ar   
    35   21   22 ar   
    36   22   23 ar   
    37   22   48 1    
    38   23   24 ar   
    39   23   49 1    
    40   24   25 ar   
    41   24   50 1    
    42   25   26 ar   
    43   25   27 1    
    44   26   51 1    
    45   27   28 1    
    46   28   52 1    
    47   28   53 1    
    48   28   54 1    
    49   29   37 1    
    50   29   30 2    
    51   30   31 1    
    52   31   36 ar   
    53   31   32 ar   
    54   32   33 ar   
    55   32   55 1    
    56   33   34 ar   
    57   33   56 1    
    58   34   35 ar   
    59   34   38 1    
    60   35   36 ar   
    61   35   57 1    
    62   36   37 1    
@<TRIPOS>SUBSTRUCTURE
     1 UNK         1 GROUP             0       ****    0 ROOT    
