@<TRIPOS>MOLECULE
ZINC33899976_3395
66   70    1
SMALL
USER_CHARGES


@<TRIPOS>ATOM
      1 C1          6.6973   54.4186   22.9475 C.3       1 UNK         0.0000 
      2 O2          5.7488   53.7965   22.0860 O.3       1 UNK         0.0000 
      3 C3          5.4371   54.3792   20.8696 C.ar      1 UNK         0.0000 
      4 C4          6.0739   55.5353   20.3847 C.ar      1 UNK         0.0000 
      5 C5          5.7179   56.0776   19.1520 C.ar      1 UNK         0.0000 
      6 C6          4.7151   55.4820   18.3959 C.ar      1 UNK         0.0000 
      7 C7          4.0775   54.3348   18.8608 C.ar      1 UNK         0.0000 
      8 C8          4.4387   53.7640   20.0909 C.ar      1 UNK         0.0000 
      9 C9          3.7697   52.4787   20.6010 C.3       1 UNK         0.0000 
     10 H10         4.5385   51.8190   21.0120 H         1 UNK         0.0000 
     11 C11         2.5658   52.6151   21.5320 C.3       1 UNK         0.0000 
     12 H12         1.8771   53.3184   21.0736 H         1 UNK         0.0000 
     13 C13         2.0791   51.2383   21.5405 C.3       1 UNK         0.0000 
     14 H14         2.8306   50.5039   21.8536 H         1 UNK         0.0000 
     15 C15         1.1057   51.2521   22.7028 C.2       1 UNK         0.0000 
     16 O16         0.1846   50.4470   22.8376 O.2       1 UNK         0.0000 
     17 N17         1.5615   52.2243   23.5765 N.am      1 UNK         0.0000 
     18 C18         2.5518   52.9927   22.9941 C.2       1 UNK         0.0000 
     19 O19         3.2208   53.9027   23.4799 O.2       1 UNK         0.0000 
     20 C20         1.0915   52.3896   24.9277 C.ar      1 UNK         0.0000 
     21 C21        -0.2146   52.0184   25.3026 C.ar      1 UNK         0.0000 
     22 C22        -0.6399   52.0969   26.6267 C.ar      1 UNK         0.0000 
     23 C23         0.2170   52.5752   27.6133 C.ar      1 UNK         0.0000 
     24 C24         1.5118   52.9948   27.2843 C.ar      1 UNK         0.0000 
     25 C25         1.9278   52.8967   25.9465 C.ar      1 UNK         0.0000 
     26 N26         2.4300   53.5128   28.3317 N.pl3     1 UNK         0.0000 
     27 O27         2.0271   53.5775   29.4917 O.co2     1 UNK         0.0000 
     28 O28         3.5603   53.8630   28.0021 O.co2     1 UNK         0.0000 
     29 C29         1.7827   50.9772   20.0361 C.3       1 UNK         0.0000 
     30 N30         3.1044   51.6200   19.4707 N.4       1 UNK         0.0000 
     31 C31         1.6342   49.4491   19.7342 C.3       1 UNK         0.0000 
     32 C32         1.6044   48.9896   18.2358 C.3       1 UNK         0.0000 
     33 C33         2.1082   47.5388   18.0536 C.3       1 UNK         0.0000 
     34 C34         1.1361   46.5336   18.7130 C.3       1 UNK         0.0000 
     35 C35        -0.2891   46.6569   18.1284 C.3       1 UNK         0.0000 
     36 C36        -0.8046   48.1126   18.1107 C.3       1 UNK         0.0000 
     37 C37         0.2367   49.0749   17.4993 C.3       1 UNK         0.0000 
     38 C38         0.5815   51.7683   19.3838 C.2       1 UNK         0.0000 
     39 O39        -0.5506   51.6373   19.9025 O.co2     1 UNK         0.0000 
     40 O40         0.7963   52.4973   18.3844 O.co2     1 UNK         0.0000 
     41 H41         6.8121   53.8144   23.8483 H         1 UNK         0.0000 
     42 H42         7.6799   54.4957   22.4796 H         1 UNK         0.0000 
     43 H43         6.3658   55.4119   23.2551 H         1 UNK         0.0000 
     44 H44         6.8478   56.0283   20.9519 H         1 UNK         0.0000 
     45 H45         6.2119   56.9666   18.7861 H         1 UNK         0.0000 
     46 H46         4.4286   55.9081   17.4450 H         1 UNK         0.0000 
     47 H47         3.2965   53.9082   18.2522 H         1 UNK         0.0000 
     48 H48        -0.9268   51.6510   24.5787 H         1 UNK         0.0000 
     49 H49        -1.6391   51.7799   26.8927 H         1 UNK         0.0000 
     50 H50        -0.1358   52.6222   28.6335 H         1 UNK         0.0000 
     51 H51         2.9452   53.1769   25.7198 H         1 UNK         0.0000 
     52 H52         3.7495   50.9424   19.0692 H         1 UNK         0.0000 
     53 H53         0.7636   49.0659   20.2652 H         1 UNK         0.0000 
     54 H54         2.4749   48.9439   20.2104 H         1 UNK         0.0000 
     55 H55         2.3030   49.6176   17.6821 H         1 UNK         0.0000 
     56 H56         3.1048   47.4322   18.4815 H         1 UNK         0.0000 
     57 H57         2.2125   47.3054   16.9923 H         1 UNK         0.0000 
     58 H58         1.1067   46.6987   19.7891 H         1 UNK         0.0000 
     59 H59         1.5043   45.5195   18.5738 H         1 UNK         0.0000 
     60 H60        -0.9802   46.0237   18.6859 H         1 UNK         0.0000 
     61 H61        -0.2829   46.2724   17.1070 H         1 UNK         0.0000 
     62 H62        -1.0582   48.4316   19.1227 H         1 UNK         0.0000 
     63 H63        -1.7337   48.1676   17.5426 H         1 UNK         0.0000 
     64 H64         0.3728   48.8307   16.4437 H         1 UNK         0.0000 
     65 H65        -0.1768   50.0790   17.5142 H         1 UNK         0.0000 
     66 H66         2.8150   52.2105   18.6999 H         1 UNK         0.0000 
@<TRIPOS>BOND
     1    1    2 1    
     2    1   41 1    
     3    1   42 1    
     4    1   43 1    
     5    2    3 1    
     6    3    8 ar   
     7    3    4 ar   
     8    4    5 ar   
     9    4   44 1    
    10    5    6 ar   
    11    5   45 1    
    12    6    7 ar   
    13    6   46 1    
    14    7    8 ar   
    15    7   47 1    
    16    8    9 1    
    17    9   10 1    
    18    9   30 1    
    19    9   11 1    
    20   11   12 1    
    21   11   18 1    
    22   11   13 1    
    23   13   14 1    
    24   13   15 1    
    25   13   29 1    
    26   15   16 2    
    27   15   17 am   BACKBONE|DICT|INTERRES
    28   17   18 am   BACKBONE|DICT|INTERRES
    29   17   20 1    
    30   18   19 2    
    31   20   25 ar   
    32   20   21 ar   
    33   21   22 ar   
    34   21   48 1    
    35   22   23 ar   
    36   22   49 1    
    37   23   24 ar   
    38   23   50 1    
    39   24   25 ar   
    40   24   26 1    
    41   25   51 1    
    42   26   27 2    
    43   26   28 1    
    44   29   30 1    
    45   29   31 1    
    46   29   38 1    
    47   30   52 1    
    48   30   66 1    
    49   31   32 1    
    50   31   53 1    
    51   31   54 1    
    52   32   37 1    
    53   32   33 1    
    54   32   55 1    
    55   33   34 1    
    56   33   56 1    
    57   33   57 1    
    58   34   35 1    
    59   34   58 1    
    60   34   59 1    
    61   35   36 1    
    62   35   60 1    
    63   35   61 1    
    64   36   37 1    
    65   36   62 1    
    66   36   63 1    
    67   37   64 1    
    68   37   65 1    
    69   38   39 2    
    70   38   40 1    
@<TRIPOS>SUBSTRUCTURE
     1 UNK         1 GROUP             0       ****    0 ROOT    
