@<TRIPOS>MOLECULE
ZINC39836469_4145
69   72    1
SMALL
USER_CHARGES


@<TRIPOS>ATOM
      1 C1          6.5072   52.5437   13.2811 C.3       1 UNK         0.0000 
      2 C2          6.2551   52.9864   14.7103 C.ar      1 UNK         0.0000 
      3 C3          7.3303   53.2728   15.5510 C.ar      1 UNK         0.0000 
      4 C4          7.1006   53.6913   16.8597 C.ar      1 UNK         0.0000 
      5 C5          5.7890   53.8304   17.3382 C.ar      1 UNK         0.0000 
      6 C6          4.7168   53.5446   16.4849 C.ar      1 UNK         0.0000 
      7 C7          4.9475   53.1231   15.1775 C.ar      1 UNK         0.0000 
      8 C8          5.4919   54.2303   18.7275 C.2       1 UNK         0.0000 
      9 C9          6.3889   54.6201   19.6648 C.2       1 UNK         0.0000 
     10 C10         6.0576   54.9202   21.0384 C.2       1 UNK         0.0000 
     11 O11         6.7062   55.7445   21.6803 O.2       1 UNK         0.0000 
     12 N12         5.0460   54.1760   21.5293 N.am      1 UNK         0.0000 
     13 C13         4.5709   54.0927   22.8302 C.2       1 UNK         0.0000 
     14 C14         3.3134   53.5929   23.2133 C.2       1 UNK         0.0000 
     15 C15         3.0875   53.7635   24.6051 C.2       1 UNK         0.0000 
     16 C16         4.2502   54.1341   25.2902 C.2       1 UNK         0.0000 
     17 S17         5.5561   54.4967   24.2134 S.3       1 UNK         0.0000 
     18 C18         4.4249   54.1341   26.8018 C.3       1 UNK         0.0000 
     19 C19         3.0442   54.0870   27.5282 C.3       1 UNK         0.0000 
     20 H20         2.5880   55.0751   27.4453 H         1 UNK         0.0000 
     21 C21         2.1049   53.0874   26.8176 C.3       1 UNK         0.0000 
     22 C22         1.7973   53.4307   25.3569 C.3       1 UNK         0.0000 
     23 C23         3.1640   53.7720   29.0713 C.3       1 UNK         0.0000 
     24 C24         3.5294   52.2921   29.3719 C.3       1 UNK         0.0000 
     25 C25         1.8316   54.1034   29.7945 C.3       1 UNK         0.0000 
     26 C26         4.2640   54.6441   29.7068 C.3       1 UNK         0.0000 
     27 C27         2.3000   53.0858   22.3069 C.2       1 UNK         0.0000 
     28 O28         1.1046   53.2969   22.5024 O.2       1 UNK         0.0000 
     29 N29         2.7520   52.3548   21.2704 N.am      1 UNK         0.0000 
     30 C30         1.8907   51.7663   20.2469 C.3       1 UNK         0.0000 
     31 H31         1.3096   52.5326   19.7239 H         1 UNK         0.0000 
     32 C32         2.7591   51.0526   19.1889 C.3       1 UNK         0.0000 
     33 C33         1.8519   50.2181   18.2758 C.3       1 UNK         0.0000 
     34 S34         0.5355   49.5338   19.4161 S.o2      1 UNK         0.0000 
     35 O35         0.8554   48.1589   19.8259 O.2       1 UNK         0.0000 
     36 O36        -0.7832   49.8611   18.8626 O.2       1 UNK         0.0000 
     37 C37         0.9423   50.6953   20.8228 C.3       1 UNK         0.0000 
     38 H38         5.6757   52.8174   12.6300 H         1 UNK         0.0000 
     39 H39         7.3936   53.0342   12.8775 H         1 UNK         0.0000 
     40 H40         6.6551   51.4639   13.2322 H         1 UNK         0.0000 
     41 H41         8.3444   53.1660   15.1965 H         1 UNK         0.0000 
     42 H42         7.9509   53.8899   17.4928 H         1 UNK         0.0000 
     43 H43         3.6973   53.6339   16.8308 H         1 UNK         0.0000 
     44 H44         4.1080   52.9000   14.5350 H         1 UNK         0.0000 
     45 H45         4.4439   54.1686   18.9954 H         1 UNK         0.0000 
     46 H46         7.4348   54.7323   19.4304 H         1 UNK         0.0000 
     47 H47         4.4758   53.7132   20.8375 H         1 UNK         0.0000 
     48 H48         5.0253   53.2630   27.0675 H         1 UNK         0.0000 
     49 H49         4.9878   55.0183   27.1031 H         1 UNK         0.0000 
     50 H50         2.5341   52.0966   26.8820 H         1 UNK         0.0000 
     51 H51         1.1502   53.0101   27.3357 H         1 UNK         0.0000 
     52 H52         1.1058   54.2657   25.2794 H         1 UNK         0.0000 
     53 H53         1.2783   52.5802   24.9140 H         1 UNK         0.0000 
     54 H54         4.4539   51.9930   28.8819 H         1 UNK         0.0000 
     55 H55         3.6763   52.1272   30.4404 H         1 UNK         0.0000 
     56 H56         2.7487   51.6022   29.0580 H         1 UNK         0.0000 
     57 H57         1.5351   55.1406   29.6295 H         1 UNK         0.0000 
     58 H58         1.0092   53.4722   29.4605 H         1 UNK         0.0000 
     59 H59         1.9039   53.9499   30.8741 H         1 UNK         0.0000 
     60 H60         4.0703   55.6966   29.5243 H         1 UNK         0.0000 
     61 H61         4.3084   54.4954   30.7830 H         1 UNK         0.0000 
     62 H62         5.2615   54.4227   29.3251 H         1 UNK         0.0000 
     63 H63         3.7221   52.0812   21.2514 H         1 UNK         0.0000 
     64 H64         3.4890   50.4023   19.6770 H         1 UNK         0.0000 
     65 H65         3.3557   51.7631   18.6145 H         1 UNK         0.0000 
     66 H66         2.3042   49.4223   17.6829 H         1 UNK         0.0000 
     67 H67         1.3558   50.8930   17.5805 H         1 UNK         0.0000 
     68 H68         0.0751   51.0017   21.4084 H         1 UNK         0.0000 
     69 H69         1.5492   50.0698   21.4804 H         1 UNK         0.0000 
@<TRIPOS>BOND
     1    1    2 1    
     2    1   38 1    
     3    1   39 1    
     4    1   40 1    
     5    2    7 ar   
     6    2    3 ar   
     7    3    4 ar   
     8    3   41 1    
     9    4    5 ar   
    10    4   42 1    
    11    5    6 ar   
    12    5    8 1    
    13    6    7 ar   
    14    6   43 1    
    15    7   44 1    
    16    8    9 2    
    17    8   45 1    
    18    9   10 1    
    19    9   46 1    
    20   10   11 2    
    21   10   12 am   BACKBONE|DICT|INTERRES
    22   12   13 am   BACKBONE|DICT|INTERRES
    23   12   47 1    
    24   13   17 1    
    25   13   14 2    
    26   14   15 1    
    27   14   27 1    
    28   15   22 1    
    29   15   16 2    
    30   16   17 1    
    31   16   18 1    
    32   18   19 1    
    33   18   48 1    
    34   18   49 1    
    35   19   20 1    
    36   19   21 1    
    37   19   23 1    
    38   21   22 1    
    39   21   50 1    
    40   21   51 1    
    41   22   52 1    
    42   22   53 1    
    43   23   24 1    
    44   23   25 1    
    45   23   26 1    
    46   24   54 1    
    47   24   55 1    
    48   24   56 1    
    49   25   57 1    
    50   25   58 1    
    51   25   59 1    
    52   26   60 1    
    53   26   61 1    
    54   26   62 1    
    55   27   28 2    
    56   27   29 am   BACKBONE|DICT|INTERRES
    57   29   30 1    
    58   29   63 1    
    59   30   31 1    
    60   30   37 1    
    61   30   32 1    
    62   32   33 1    
    63   32   64 1    
    64   32   65 1    
    65   33   34 1    
    66   33   66 1    
    67   33   67 1    
    68   34   35 2    
    69   34   36 2    
    70   34   37 1    
    71   37   68 1    
    72   37   69 1    
@<TRIPOS>SUBSTRUCTURE
     1 UNK         1 GROUP             0       ****    0 ROOT    
