@<TRIPOS>MOLECULE
ZINC06144754_1114
64   68    1
SMALL
USER_CHARGES


@<TRIPOS>ATOM
      1 C1          0.7540   52.9287   27.4410 C.3       1 UNK         0.0000 
      2 C2          1.9207   53.2638   26.5153 C.2       1 UNK         0.0000 
      3 C3          3.1154   53.7510   27.0726 C.2       1 UNK         0.0000 
      4 S4          4.2458   54.1964   25.8609 S.3       1 UNK         0.0000 
      5 C5          3.1805   53.6846   24.5884 C.2       1 UNK         0.0000 
      6 C6          1.9447   53.2048   25.0713 C.2       1 UNK         0.0000 
      7 C7          0.8093   52.7608   24.0992 C.3       1 UNK         0.0000 
      8 H8          0.4523   53.7045   23.6825 H         1 UNK         0.0000 
      9 C9          1.1967   51.8592   22.9065 C.ar      1 UNK         0.0000 
     10 C10         1.9044   50.6677   23.1006 C.ar      1 UNK         0.0000 
     11 C11         2.1844   49.8234   22.0307 C.ar      1 UNK         0.0000 
     12 C12         1.7700   50.1722   20.7501 C.ar      1 UNK         0.0000 
     13 C13         1.0935   51.3691   20.5324 C.ar      1 UNK         0.0000 
     14 C14         0.8141   52.2113   21.6064 C.ar      1 UNK         0.0000 
     15 F15         2.0320   49.3478   19.7123 F         1 UNK         0.0000 
     16 C16        -1.7745   52.5929   24.1184 C.3       1 UNK         0.0000 
     17 C17        -2.9607   52.2452   25.0440 C.3       1 UNK         0.0000 
     18 N18        -2.9674   50.8696   25.5811 N.pl3     1 UNK         0.0000 
     19 C19        -1.6549   50.4458   26.1071 C.3       1 UNK         0.0000 
     20 C20        -0.4555   50.7563   25.1927 C.3       1 UNK         0.0000 
     21 C21        -4.1482   50.3513   26.1144 C.ar      1 UNK         0.0000 
     22 C22        -4.1865   49.7700   27.3923 C.ar      1 UNK         0.0000 
     23 C23        -5.3760   49.2680   27.9120 C.ar      1 UNK         0.0000 
     24 C24        -6.5435   49.3429   27.1586 C.ar      1 UNK         0.0000 
     25 C25        -6.5280   49.9120   25.8884 C.ar      1 UNK         0.0000 
     26 C26        -5.3357   50.4119   25.3708 C.ar      1 UNK         0.0000 
     27 N27         3.5665   53.7373   23.2441 N.am      1 UNK         0.0000 
     28 C28         4.7648   54.0964   22.7239 C.2       1 UNK         0.0000 
     29 O29         5.7450   54.4965   23.3524 O.2       1 UNK         0.0000 
     30 C30         4.8281   53.9727   21.2974 C.2       1 UNK         0.0000 
     31 C31         4.3305   53.0049   20.4315 C.2       1 UNK         0.0000 
     32 C32         4.8291   53.2971   19.1623 C.2       1 UNK         0.0000 
     33 C33         5.6326   54.4147   19.3082 C.2       1 UNK         0.0000 
     34 O34         5.6605   54.8024   20.6098 O.3       1 UNK         0.0000 
     35 C35         3.5096   53.9524   28.5235 C.3       1 UNK         0.0000 
     36 H36        -0.2089   53.2955   27.1002 H         1 UNK         0.0000 
     37 H37         0.6592   51.8567   27.6085 H         1 UNK         0.0000 
     38 H38         0.8462   53.3948   28.4208 H         1 UNK         0.0000 
     39 H39         2.2295   50.3701   24.0816 H         1 UNK         0.0000 
     40 H40         2.7145   48.8967   22.1943 H         1 UNK         0.0000 
     41 H41         0.7955   51.6423   19.5306 H         1 UNK         0.0000 
     42 H42         0.3044   53.1400   21.4120 H         1 UNK         0.0000 
     43 H43        -1.7651   53.6694   23.9413 H         1 UNK         0.0000 
     44 H44        -1.7869   52.0513   23.1705 H         1 UNK         0.0000 
     45 H45        -2.8730   52.8804   25.9277 H         1 UNK         0.0000 
     46 H46        -3.9002   52.5006   24.5538 H         1 UNK         0.0000 
     47 H47        -1.6594   49.3829   26.3588 H         1 UNK         0.0000 
     48 H48        -1.5198   51.0077   27.0326 H         1 UNK         0.0000 
     49 H49        -0.4918   50.1834   24.2647 H         1 UNK         0.0000 
     50 H50         0.4774   50.5561   25.7205 H         1 UNK         0.0000 
     51 H51        -3.2961   49.6959   28.0013 H         1 UNK         0.0000 
     52 H52        -5.3871   48.8222   28.8961 H         1 UNK         0.0000 
     53 H53        -7.4668   48.9525   27.5612 H         1 UNK         0.0000 
     54 H54        -7.4360   49.9619   25.3055 H         1 UNK         0.0000 
     55 H55        -5.3405   50.8365   24.3780 H         1 UNK         0.0000 
     56 H56         2.8743   53.4255   22.5789 H         1 UNK         0.0000 
     57 H57         3.7070   52.1643   20.6896 H         1 UNK         0.0000 
     58 H58         4.6528   52.7324   18.2560 H         1 UNK         0.0000 
     59 H59         6.2403   54.9889   18.6241 H         1 UNK         0.0000 
     60 H60         2.9177   53.3556   29.2155 H         1 UNK         0.0000 
     61 H61         4.5486   53.6712   28.6984 H         1 UNK         0.0000 
     62 H62         3.4080   54.9956   28.8229 H         1 UNK         0.0000 
     63 N63        -0.4595   52.2613   24.8488 N.4       1 UNK         0.0000 
     64 H64        -0.4604   52.7659   25.7232 H         1 UNK         0.0000 
@<TRIPOS>BOND
     1    1    2 1    
     2    1   36 1    
     3    1   37 1    
     4    1   38 1    
     5    2    6 1    
     6    2    3 2    
     7    3    4 1    
     8    3   35 1    
     9    4    5 1    
    10    5    6 2    
    11    5   27 am   BACKBONE|DICT|INTERRES
    12    6    7 1    
    13    7    8 1    
    14    7    9 1    
    15    7   63 1    
    16    9   14 ar   
    17    9   10 ar   
    18   10   11 ar   
    19   10   39 1    
    20   11   12 ar   
    21   11   40 1    
    22   12   13 ar   
    23   12   15 1    
    24   13   14 ar   
    25   13   41 1    
    26   14   42 1    
    27   16   17 1    
    28   16   43 1    
    29   16   44 1    
    30   16   63 1    
    31   17   18 1    
    32   17   45 1    
    33   17   46 1    
    34   18   19 1    
    35   18   21 1    
    36   19   20 1    
    37   19   47 1    
    38   19   48 1    
    39   20   49 1    
    40   20   50 1    
    41   20   63 1    
    42   21   26 ar   
    43   21   22 ar   
    44   22   23 ar   
    45   22   51 1    
    46   23   24 ar   
    47   23   52 1    
    48   24   25 ar   
    49   24   53 1    
    50   25   26 ar   
    51   25   54 1    
    52   26   55 1    
    53   27   28 am   BACKBONE|DICT|INTERRES
    54   27   56 1    
    55   28   29 2    
    56   28   30 1    
    57   30   34 1    
    58   30   31 2    
    59   31   32 1    
    60   31   57 1    
    61   32   33 2    
    62   32   58 1    
    63   33   34 1    
    64   33   59 1    
    65   35   60 1    
    66   35   61 1    
    67   35   62 1    
    68   63   64 1    
@<TRIPOS>SUBSTRUCTURE
     1 UNK         1 GROUP             0       ****    0 ROOT    
