@<TRIPOS>MOLECULE
ZINC44162062_4299
51   54    1
SMALL
USER_CHARGES


@<TRIPOS>ATOM
      1 C1          2.6564   50.5005   19.8811 C.3       1 UNK         0.0000 
      2 C2          1.5430   49.4582   19.8864 C.ar      1 UNK         0.0000 
      3 C3          1.5045   48.5277   18.8423 C.ar      1 UNK         0.0000 
      4 C4          0.4905   47.5744   18.7818 C.ar      1 UNK         0.0000 
      5 C5         -0.5033   47.5543   19.7570 C.ar      1 UNK         0.0000 
      6 C6         -0.4710   48.4751   20.8036 C.ar      1 UNK         0.0000 
      7 C7          0.5622   49.4176   20.8970 C.ar      1 UNK         0.0000 
      8 N8          0.6175   50.3438   21.9547 N.pl3     1 UNK         0.0000 
      9 C9          0.3491   50.1726   23.2952 C.2       1 UNK         0.0000 
     10 N10         0.4826   51.1516   24.1531 N.2       1 UNK         0.0000 
     11 C11         0.3115   50.7780   25.4096 C.2       1 UNK         0.0000 
     12 C12        -0.0301   49.4314   25.5630 C.2       1 UNK         0.0000 
     13 S13        -0.0956   48.6528   24.0179 S.3       1 UNK         0.0000 
     14 C14         0.4857   51.6994   26.5471 C.ar      1 UNK         0.0000 
     15 C15        -0.0980   51.5017   27.7796 C.ar      1 UNK         0.0000 
     16 C16         0.2442   52.5473   28.6406 C.ar      1 UNK         0.0000 
     17 C17         0.9855   53.4544   27.8891 C.ar      1 UNK         0.0000 
     18 N18         1.2269   52.8764   26.6427 N.pl3     1 UNK         0.0000 
     19 C19         2.1204   53.4409   25.6165 C.3       1 UNK         0.0000 
     20 C20         3.5788   53.6966   26.0206 C.ar      1 UNK         0.0000 
     21 C21         4.0837   53.3517   27.2862 C.ar      1 UNK         0.0000 
     22 C22         5.3987   53.6401   27.6274 C.ar      1 UNK         0.0000 
     23 C23         6.2349   54.2338   26.6935 C.ar      1 UNK         0.0000 
     24 C24         5.7719   54.5338   25.4148 C.ar      1 UNK         0.0000 
     25 C25         4.4486   54.2557   25.0776 C.ar      1 UNK         0.0000 
     26 F26         4.0161   54.4981   23.8198 F         1 UNK         0.0000 
     27 F27         7.5044   54.4986   27.0345 F         1 UNK         0.0000 
     28 C28         1.5179   54.8265   28.2977 C.3       1 UNK         0.0000 
     29 C29        -0.0956   52.6588   30.0335 C.2       1 UNK         0.0000 
     30 O30         0.3045   53.5687   30.7562 O.2       1 UNK         0.0000 
     31 N31        -0.8956   51.6967   30.4817 N.am      1 UNK         0.0000 
     32 H32         3.1044   50.5950   18.8910 H         1 UNK         0.0000 
     33 H33         2.2709   51.4885   20.1332 H         1 UNK         0.0000 
     34 H34         3.4313   50.2419   20.6029 H         1 UNK         0.0000 
     35 H35         2.2635   48.5463   18.0704 H         1 UNK         0.0000 
     36 H36         0.4691   46.8638   17.9686 H         1 UNK         0.0000 
     37 H37        -1.3021   46.8299   19.6998 H         1 UNK         0.0000 
     38 H38        -1.2638   48.4560   21.5351 H         1 UNK         0.0000 
     39 H39         1.1433   51.1640   21.6930 H         1 UNK         0.0000 
     40 H40        -0.2282   48.8738   26.4704 H         1 UNK         0.0000 
     41 H41        -0.7087   50.6443   28.0312 H         1 UNK         0.0000 
     42 H42         1.6649   54.3598   25.2494 H         1 UNK         0.0000 
     43 H43         2.1738   52.7715   24.7649 H         1 UNK         0.0000 
     44 H44         3.4740   52.8567   28.0256 H         1 UNK         0.0000 
     45 H45         5.7775   53.3895   28.6073 H         1 UNK         0.0000 
     46 H46         6.4371   54.9676   24.6835 H         1 UNK         0.0000 
     47 H47         2.0773   54.7717   29.2314 H         1 UNK         0.0000 
     48 H48         2.1852   55.2968   27.5835 H         1 UNK         0.0000 
     49 H49         0.7045   55.5296   28.4668 H         1 UNK         0.0000 
     50 H50        -1.2065   50.9395   29.8916 H         1 UNK         0.0000 
     51 H51        -1.1793   51.6967   31.4682 H         1 UNK         0.0000 
@<TRIPOS>BOND
     1    1    2 1    
     2    1   32 1    
     3    1   33 1    
     4    1   34 1    
     5    2    7 ar   
     6    2    3 ar   
     7    3    4 ar   
     8    3   35 1    
     9    4    5 ar   
    10    4   36 1    
    11    5    6 ar   
    12    5   37 1    
    13    6    7 ar   
    14    6   38 1    
    15    7    8 1    
    16    8    9 1    
    17    8   39 1    
    18    9   13 1    
    19    9   10 2    
    20   10   11 1    
    21   11   12 2    
    22   11   14 1    
    23   12   13 1    
    24   12   40 1    
    25   14   18 ar   
    26   14   15 ar   
    27   15   16 ar   
    28   15   41 1    
    29   16   17 ar   
    30   16   29 1    
    31   17   18 ar   
    32   17   28 1    
    33   18   19 1    
    34   19   20 1    
    35   19   42 1    
    36   19   43 1    
    37   20   25 ar   
    38   20   21 ar   
    39   21   22 ar   
    40   21   44 1    
    41   22   23 ar   
    42   22   45 1    
    43   23   24 ar   
    44   23   27 1    
    45   24   25 ar   
    46   24   46 1    
    47   25   26 1    
    48   28   47 1    
    49   28   48 1    
    50   28   49 1    
    51   29   30 2    
    52   29   31 am   BACKBONE|DICT|INTERRES
    53   31   50 1    
    54   31   51 1    
@<TRIPOS>SUBSTRUCTURE
     1 UNK         1 GROUP             0       ****    0 ROOT    
