@<TRIPOS>MOLECULE
ZINC13245588_5787
53   56    1
SMALL
USER_CHARGES


@<TRIPOS>ATOM
      1 C1          5.1925   53.2187   18.2433 C.3       1 UNK         0.0000 
      2 C2          4.5393   53.2158   19.6086 C.ar      1 UNK         0.0000 
      3 C3          4.5369   54.3767   20.3771 C.ar      1 UNK         0.0000 
      4 C4          3.8948   54.3827   21.6103 C.ar      1 UNK         0.0000 
      5 C5          3.2805   53.2254   22.0978 C.ar      1 UNK         0.0000 
      6 C6          3.2944   52.0582   21.3284 C.ar      1 UNK         0.0000 
      7 C7          3.9110   52.0633   20.0823 C.ar      1 UNK         0.0000 
      8 N8          2.6299   53.2359   23.3583 N.pl3     1 UNK         0.0000 
      9 C9          3.0830   53.6962   24.5936 C.ar      1 UNK         0.0000 
     10 N10         2.1668   53.5334   25.5145 N.2       1 UNK         0.0000 
     11 N11         1.0734   52.9403   24.9157 N.2       1 UNK         0.0000 
     12 C12         1.3526   52.7729   23.6475 C.ar      1 UNK         0.0000 
     13 S13         0.2010   52.0965   22.4815 S.3       1 UNK         0.0000 
     14 C14        -1.3612   52.6867   23.2249 C.3       1 UNK         0.0000 
     15 C15        -2.0251   51.7402   24.2285 C.2       1 UNK         0.0000 
     16 O16        -1.7296   50.5458   24.2559 O.2       1 UNK         0.0000 
     17 N17        -2.9563   52.3363   24.9990 N.am      1 UNK         0.0000 
     18 C18        -3.7703   51.8390   26.0336 C.ar      1 UNK         0.0000 
     19 C19        -3.5112   50.6031   26.6503 C.ar      1 UNK         0.0000 
     20 C20        -4.3220   50.1302   27.6749 C.ar      1 UNK         0.0000 
     21 C21        -5.4207   50.8719   28.0884 C.ar      1 UNK         0.0000 
     22 C22        -5.6953   52.0970   27.4888 C.ar      1 UNK         0.0000 
     23 C23        -4.8700   52.6277   26.4773 C.ar      1 UNK         0.0000 
     24 C24        -5.1798   54.0126   25.9435 C.2       1 UNK         0.0000 
     25 O25        -4.4958   54.4780   25.0009 O.co2     1 UNK         0.0000 
     26 Cl26       -6.4269   50.2903   29.3631 Cl        1 UNK         0.0000 
     27 N27         4.3240   54.2403   24.8612 N.pl3     1 UNK         0.0000 
     28 C28         5.5561   53.9416   24.1268 C.3       1 UNK         0.0000 
     29 C29         6.7244   54.2111   25.0624 C.3       1 UNK         0.0000 
     30 C30         6.1351   55.1585   26.0813 C.3       1 UNK         0.0000 
     31 C31         4.7336   54.5875   26.2209 C.3       1 UNK         0.0000 
     32 H32         5.1534   54.2078   17.7826 H         1 UNK         0.0000 
     33 H33         6.2336   52.9004   18.3124 H         1 UNK         0.0000 
     34 H34         4.6723   52.5344   17.5681 H         1 UNK         0.0000 
     35 H35         5.0081   55.2782   20.0099 H         1 UNK         0.0000 
     36 H36         3.8529   55.2962   22.1814 H         1 UNK         0.0000 
     37 H37         2.8295   51.1505   21.6853 H         1 UNK         0.0000 
     38 H38         3.9018   51.1672   19.4803 H         1 UNK         0.0000 
     39 H39        -2.0749   52.8264   22.4132 H         1 UNK         0.0000 
     40 H40        -1.2096   53.6687   23.6816 H         1 UNK         0.0000 
     41 H41        -3.2078   53.2948   24.7655 H         1 UNK         0.0000 
     42 H42        -2.6608   49.9956   26.3772 H         1 UNK         0.0000 
     43 H43        -4.0834   49.1888   28.1511 H         1 UNK         0.0000 
     44 H44        -6.5491   52.6563   27.8447 H         1 UNK         0.0000 
     45 H45         5.5809   52.8968   23.8237 H         1 UNK         0.0000 
     46 H46         5.6869   54.5866   23.2611 H         1 UNK         0.0000 
     47 H47         7.1042   53.2965   25.5198 H         1 UNK         0.0000 
     48 H48         7.5142   54.6974   24.5055 H         1 UNK         0.0000 
     49 H49         6.1011   56.1758   25.6863 H         1 UNK         0.0000 
     50 H50         6.6844   55.1802   27.0256 H         1 UNK         0.0000 
     51 H51         4.0314   55.2970   26.6516 H         1 UNK         0.0000 
     52 H52         4.7196   53.6919   26.8472 H         1 UNK         0.0000 
     53 O53        -6.0965   54.6641   26.4912 O.co2     1 UNK         0.0000 
@<TRIPOS>BOND
     1    1    2 1    
     2    1   32 1    
     3    1   33 1    
     4    1   34 1    
     5    2    7 ar   
     6    2    3 ar   
     7    3    4 ar   
     8    3   35 1    
     9    4    5 ar   
    10    4   36 1    
    11    5    6 ar   
    12    5    8 1    
    13    6    7 ar   
    14    6   37 1    
    15    7   38 1    
    16    8   12 ar   
    17    8    9 ar   
    18    9   10 ar   
    19    9   27 1    
    20   10   11 ar   
    21   11   12 ar   
    22   12   13 1    
    23   13   14 1    
    24   14   15 1    
    25   14   39 1    
    26   14   40 1    
    27   15   16 2    
    28   15   17 am   BACKBONE|DICT|INTERRES
    29   17   18 1    
    30   17   41 1    
    31   18   23 ar   
    32   18   19 ar   
    33   19   20 ar   
    34   19   42 1    
    35   20   21 ar   
    36   20   43 1    
    37   21   22 ar   
    38   21   26 1    
    39   22   23 ar   
    40   22   44 1    
    41   23   24 1    
    42   24   25 2    
    43   24   53 1    
    44   27   31 1    
    45   27   28 1    
    46   28   29 1    
    47   28   45 1    
    48   28   46 1    
    49   29   30 1    
    50   29   47 1    
    51   29   48 1    
    52   30   31 1    
    53   30   49 1    
    54   30   50 1    
    55   31   51 1    
    56   31   52 1    
@<TRIPOS>SUBSTRUCTURE
     1 UNK         1 GROUP             0       ****    0 ROOT    
