@<TRIPOS>MOLECULE
ZINC20612748_531
60   62    1
SMALL
USER_CHARGES


@<TRIPOS>ATOM
      1 C1          9.7826   50.7478   15.9902 C.3       1 UNK         0.0000 
      2 C2          9.7369   52.1816   16.4810 C.ar      1 UNK         0.0000 
      3 C3         10.8979   52.8823   16.8040 C.ar      1 UNK         0.0000 
      4 C4         10.7283   54.1771   17.2842 C.ar      1 UNK         0.0000 
      5 N5          9.5024   54.7384   17.4342 N.ar      1 UNK         0.0000 
      6 C6          8.4063   54.0090   17.0697 C.ar      1 UNK         0.0000 
      7 N7          8.5025   52.7332   16.6027 N.ar      1 UNK         0.0000 
      8 N8          7.1302   54.5052   17.1443 N.2       1 UNK         0.0000 
      9 S9          6.7332   55.9147   17.7117 S.o2      1 UNK         0.0000 
     10 O10         5.3995   56.3432   17.2785 O.2       1 UNK         0.0000 
     11 O11         7.7866   56.9371   17.7132 O.2       1 UNK         0.0000 
     12 C12         6.4993   55.4714   19.4348 C.ar      1 UNK         0.0000 
     13 C13         5.3987   54.6905   19.7908 C.ar      1 UNK         0.0000 
     14 C14         5.1885   54.3550   21.1236 C.ar      1 UNK         0.0000 
     15 C15         6.0722   54.8032   22.1087 C.ar      1 UNK         0.0000 
     16 C16         7.1836   55.5781   21.7474 C.ar      1 UNK         0.0000 
     17 C17         7.4006   55.9018   20.4103 C.ar      1 UNK         0.0000 
     18 N18         5.7670   54.4015   23.4188 N.am      1 UNK         0.0000 
     19 C19         6.2314   54.8494   24.6050 C.2       1 UNK         0.0000 
     20 O20         7.1044   55.6968   24.7467 O.2       1 UNK         0.0000 
     21 C21         5.6582   54.1458   25.8460 C.3       1 UNK         0.0000 
     22 C22         6.2251   54.6482   27.1958 C.3       1 UNK         0.0000 
     23 C23         5.6340   53.8331   28.3760 C.3       1 UNK         0.0000 
     24 N24         4.1521   53.8540   28.2598 N.am      1 UNK         0.0000 
     25 C25         3.6596   53.2896   26.9972 C.3       1 UNK         0.0000 
     26 C26         4.1139   54.1871   25.8419 C.3       1 UNK         0.0000 
     27 C27         3.3781   53.9669   29.3745 C.2       1 UNK         0.0000 
     28 O28         3.9044   53.8552   30.4808 O.2       1 UNK         0.0000 
     29 C29         1.8713   54.4227   29.3821 C.3       1 UNK         0.0000 
     30 C30         1.1442   54.4804   28.0292 C.3       1 UNK         0.0000 
     31 C31         1.8447   55.8882   29.9056 C.3       1 UNK         0.0000 
     32 C32         1.0389   53.5219   30.3370 C.3       1 UNK         0.0000 
     33 H33        10.7804   50.4758   15.6448 H         1 UNK         0.0000 
     34 H34         9.5051   50.0699   16.7982 H         1 UNK         0.0000 
     35 H35         9.0888   50.5957   15.1626 H         1 UNK         0.0000 
     36 H36        11.8770   52.4370   16.7116 H         1 UNK         0.0000 
     37 H37        11.5741   54.7794   17.5806 H         1 UNK         0.0000 
     38 H38         4.7092   54.3477   19.0311 H         1 UNK         0.0000 
     39 H39         4.3283   53.7511   21.3775 H         1 UNK         0.0000 
     40 H40         7.8994   55.9187   22.4779 H         1 UNK         0.0000 
     41 H41         8.2700   56.4804   20.1304 H         1 UNK         0.0000 
     42 H42         5.0308   53.7143   23.4730 H         1 UNK         0.0000 
     43 H43         5.9525   53.1136   25.6790 H         1 UNK         0.0000 
     44 H44         5.9673   55.6922   27.3762 H         1 UNK         0.0000 
     45 H45         7.3052   54.5058   27.2516 H         1 UNK         0.0000 
     46 H46         5.9830   54.3251   29.2839 H         1 UNK         0.0000 
     47 H47         5.9862   52.8017   28.3423 H         1 UNK         0.0000 
     48 H48         4.2060   52.3644   26.9015 H         1 UNK         0.0000 
     49 H49         2.6312   52.9474   26.9621 H         1 UNK         0.0000 
     50 H50         3.6860   53.7344   24.9462 H         1 UNK         0.0000 
     51 H51         3.7112   55.1893   26.0043 H         1 UNK         0.0000 
     52 H52         0.3005   55.1519   28.0816 H         1 UNK         0.0000 
     53 H53         0.7600   53.5120   27.7046 H         1 UNK         0.0000 
     54 H54         1.7660   54.8968   27.2522 H         1 UNK         0.0000 
     55 H55         2.3040   55.9982   30.8814 H         1 UNK         0.0000 
     56 H56         2.3642   56.5747   29.2304 H         1 UNK         0.0000 
     57 H57         0.8255   56.2646   30.0179 H         1 UNK         0.0000 
     58 H58         1.4801   53.4305   31.3283 H         1 UNK         0.0000 
     59 H59         0.0289   53.9120   30.4775 H         1 UNK         0.0000 
     60 H60         0.9370   52.5081   29.9430 H         1 UNK         0.0000 
@<TRIPOS>BOND
     1    1    2 1    
     2    1   33 1    
     3    1   34 1    
     4    1   35 1    
     5    2    7 ar   
     6    2    3 ar   
     7    3    4 ar   
     8    3   36 1    
     9    4    5 ar   
    10    4   37 1    
    11    5    6 ar   
    12    6    7 ar   
    13    6    8 1    
    14    8    9 1    
    15    9   10 2    
    16    9   11 2    
    17    9   12 1    
    18   12   17 ar   
    19   12   13 ar   
    20   13   14 ar   
    21   13   38 1    
    22   14   15 ar   
    23   14   39 1    
    24   15   16 ar   
    25   15   18 1    
    26   16   17 ar   
    27   16   40 1    
    28   17   41 1    
    29   18   19 am   BACKBONE|DICT|INTERRES
    30   18   42 1    
    31   19   20 2    
    32   19   21 1    
    33   21   26 1    
    34   21   22 1    
    35   21   43 1    
    36   22   23 1    
    37   22   44 1    
    38   22   45 1    
    39   23   24 1    
    40   23   46 1    
    41   23   47 1    
    42   24   25 1    
    43   24   27 am   BACKBONE|DICT|INTERRES
    44   25   26 1    
    45   25   48 1    
    46   25   49 1    
    47   26   50 1    
    48   26   51 1    
    49   27   28 2    
    50   27   29 1    
    51   29   30 1    
    52   29   31 1    
    53   29   32 1    
    54   30   52 1    
    55   30   53 1    
    56   30   54 1    
    57   31   55 1    
    58   31   56 1    
    59   31   57 1    
    60   32   58 1    
    61   32   59 1    
    62   32   60 1    
@<TRIPOS>SUBSTRUCTURE
     1 UNK         1 GROUP             0       ****    0 ROOT    
