@<TRIPOS>MOLECULE
ZINC40604129_1642
40   42    1
SMALL
USER_CHARGES


@<TRIPOS>ATOM
      1 C1          6.7040   53.7687   27.5357 C.3       1 UNK         0.0000 
      2 C2          5.7469   54.8405   26.9713 C.3       1 UNK         0.0000 
      3 H3          5.8208   55.6962   27.6437 H         1 UNK         0.0000 
      4 C4          6.0829   55.2176   25.5217 C.3       1 UNK         0.0000 
      5 C5          5.2603   54.2571   24.6846 C.3       1 UNK         0.0000 
      6 C6          3.9583   54.0977   25.4687 C.3       1 UNK         0.0000 
      7 N7          4.3605   54.3363   26.8706 N.am      1 UNK         0.0000 
      8 C8          3.5817   54.0874   27.9598 C.2       1 UNK         0.0000 
      9 O9          3.9377   54.3765   29.1057 O.2       1 UNK         0.0000 
     10 N10         2.4007   53.4847   27.6936 N.am      1 UNK         0.0000 
     11 C11         1.3740   52.9588   28.6089 C.3       1 UNK         0.0000 
     12 C12         0.8379   53.9411   29.6795 C.3       1 UNK         0.0000 
     13 C13         0.7904   52.7503   30.6522 C.3       1 UNK         0.0000 
     14 C14         1.8821   52.0979   29.7861 C.3       1 UNK         0.0000 
     15 C15         0.3163   52.2819   27.7325 C.ar      1 UNK         0.0000 
     16 N16         0.4172   50.9953   27.2740 N.pl3     1 UNK         0.0000 
     17 H17         1.1468   50.3290   27.4832 H         1 UNK         0.0000 
     18 C18        -0.6740   50.7886   26.4795 C.ar      1 UNK         0.0000 
     19 C19        -1.4026   51.9780   26.4961 C.ar      1 UNK         0.0000 
     20 N20        -0.7807   52.8542   27.2818 N.2       1 UNK         0.0000 
     21 C21        -2.6521   52.2626   25.7664 C.2       1 UNK         0.0000 
     22 O22        -3.2956   53.2918   26.0818 O.co2     1 UNK         0.0000 
     23 O23        -2.9753   51.4605   24.8613 O.co2     1 UNK         0.0000 
     24 H24         7.7118   54.1729   27.6228 H         1 UNK         0.0000 
     25 H25         6.4071   53.4325   28.5294 H         1 UNK         0.0000 
     26 H26         6.7698   52.8986   26.8829 H         1 UNK         0.0000 
     27 H27         7.1495   55.1961   25.2964 H         1 UNK         0.0000 
     28 H28         5.7399   56.2321   25.3141 H         1 UNK         0.0000 
     29 H29         5.7740   53.2969   24.6194 H         1 UNK         0.0000 
     30 H30         5.0943   54.5991   23.6625 H         1 UNK         0.0000 
     31 H31         3.5556   53.0959   25.3115 H         1 UNK         0.0000 
     32 H32         3.2458   54.8617   25.1511 H         1 UNK         0.0000 
     33 H33         2.1898   53.3261   26.7205 H         1 UNK         0.0000 
     34 H34         1.5457   54.7082   29.9952 H         1 UNK         0.0000 
     35 H35        -0.1179   54.4163   29.4661 H         1 UNK         0.0000 
     36 H36         1.0678   52.9646   31.6849 H         1 UNK         0.0000 
     37 H37        -0.1600   52.2094   30.6446 H         1 UNK         0.0000 
     38 H38         1.7951   51.0232   29.6473 H         1 UNK         0.0000 
     39 H39         2.8872   52.3317   30.1392 H         1 UNK         0.0000 
     40 H40        -0.8482   49.8368   25.9951 H         1 UNK         0.0000 
@<TRIPOS>BOND
     1    1    2 1    
     2    1   24 1    
     3    1   25 1    
     4    1   26 1    
     5    2    3 1    
     6    2    7 1    
     7    2    4 1    
     8    4    5 1    
     9    4   27 1    
    10    4   28 1    
    11    5    6 1    
    12    5   29 1    
    13    5   30 1    
    14    6    7 1    
    15    6   31 1    
    16    6   32 1    
    17    7    8 am   BACKBONE|DICT|INTERRES
    18    8    9 2    
    19    8   10 am   BACKBONE|DICT|INTERRES
    20   10   11 1    
    21   10   33 1    
    22   11   14 1    
    23   11   12 1    
    24   11   15 1    
    25   12   13 1    
    26   12   34 1    
    27   12   35 1    
    28   13   14 1    
    29   13   36 1    
    30   13   37 1    
    31   14   38 1    
    32   14   39 1    
    33   15   20 ar   
    34   15   16 ar   
    35   16   17 1    
    36   16   18 ar   
    37   18   19 ar   
    38   18   40 1    
    39   19   20 ar   
    40   19   21 1    
    41   21   22 2    
    42   21   23 1    
@<TRIPOS>SUBSTRUCTURE
     1 UNK         1 GROUP             0       ****    0 ROOT    
