@<TRIPOS>MOLECULE
ZINC35664241_2919
72   74    1
SMALL
USER_CHARGES


@<TRIPOS>ATOM
      1 C1          2.7072   50.0535   20.5623 C.3       1 UNK         0.0000 
      2 C2          1.3727   50.7662   20.8523 C.3       1 UNK         0.0000 
      3 N3          1.0663   50.8741   22.3097 N.am      1 UNK         0.0000 
      4 C4          1.4114   51.9576   23.1326 C.2       1 UNK         0.0000 
      5 C5          1.1928   51.9135   24.4850 C.2       1 UNK         0.0000 
      6 C6          0.3039   50.7848   25.0612 C.3       1 UNK         0.0000 
      7 H7          0.6859   50.4260   26.0213 H         1 UNK         0.0000 
      8 N8          0.3329   49.6476   24.1307 N.am      1 UNK         0.0000 
      9 C9          0.4160   49.7552   22.7865 C.2       1 UNK         0.0000 
     10 O10        -0.1504   48.8906   22.1188 O.2       1 UNK         0.0000 
     11 C11        -1.1225   51.2641   25.3839 C.ar      1 UNK         0.0000 
     12 C12        -1.8857   51.9358   24.4175 C.ar      1 UNK         0.0000 
     13 C13        -3.1671   52.3981   24.7174 C.ar      1 UNK         0.0000 
     14 C14        -3.7039   52.1830   25.9846 C.ar      1 UNK         0.0000 
     15 C15        -2.9653   51.4989   26.9486 C.ar      1 UNK         0.0000 
     16 C16        -1.6800   51.0449   26.6521 C.ar      1 UNK         0.0000 
     17 F17        -3.4948   51.2805   28.1726 F         1 UNK         0.0000 
     18 C18         1.6035   52.9643   25.4690 C.2       1 UNK         0.0000 
     19 O19         2.1148   54.0419   25.1662 O.2       1 UNK         0.0000 
     20 O20         1.4349   52.5811   26.7656 O.3       1 UNK         0.0000 
     21 C21         1.9568   53.3144   27.8708 C.3       1 UNK         0.0000 
     22 C22         1.0225   54.4367   28.3431 C.3       1 UNK         0.0000 
     23 C23         1.9658   53.1826   22.3662 C.3       1 UNK         0.0000 
     24 N24         3.4699   53.1168   21.9785 N.4       1 UNK         0.0000 
     25 C25         4.3571   53.5686   23.1626 C.3       1 UNK         0.0000 
     26 C26         5.8684   53.4492   22.9152 C.3       1 UNK         0.0000 
     27 C27         6.4915   54.5994   22.0918 C.3       1 UNK         0.0000 
     28 N28         6.0608   54.7469   20.6835 N.am      1 UNK         0.0000 
     29 C29         5.1707   53.7050   20.1276 C.3       1 UNK         0.0000 
     30 C30         3.7397   53.8516   20.6455 C.3       1 UNK         0.0000 
     31 C31         6.3344   55.9216   20.0442 C.2       1 UNK         0.0000 
     32 O32         6.8215   56.8961   20.6216 O.2       1 UNK         0.0000 
     33 N33         6.2746   55.8735   18.6961 N.am      1 UNK         0.0000 
     34 C34         6.6680   56.9209   17.7439 C.3       1 UNK         0.0000 
     35 C35         5.8222   58.2052   17.8543 C.3       1 UNK         0.0000 
     36 C36         8.1838   57.2057   17.7458 C.3       1 UNK         0.0000 
     37 H37         2.9199   50.0525   19.4912 H         1 UNK         0.0000 
     38 H38         3.5511   50.5285   21.0594 H         1 UNK         0.0000 
     39 H39         2.6758   49.0090   20.8768 H         1 UNK         0.0000 
     40 H40         0.5986   50.2006   20.3278 H         1 UNK         0.0000 
     41 H41         1.3552   51.7151   20.3296 H         1 UNK         0.0000 
     42 H42        -0.1290   48.8079   24.4464 H         1 UNK         0.0000 
     43 H43        -1.4868   52.1039   23.4293 H         1 UNK         0.0000 
     44 H44        -3.7422   52.9247   23.9692 H         1 UNK         0.0000 
     45 H45        -4.6970   52.5382   26.2196 H         1 UNK         0.0000 
     46 H46        -1.1319   50.5065   27.4140 H         1 UNK         0.0000 
     47 H47         2.0758   52.5969   28.6855 H         1 UNK         0.0000 
     48 H48         2.9554   53.7001   27.6531 H         1 UNK         0.0000 
     49 H49         1.3078   54.7849   29.3335 H         1 UNK         0.0000 
     50 H50         1.0699   55.2961   27.6812 H         1 UNK         0.0000 
     51 H51        -0.0119   54.0995   28.3959 H         1 UNK         0.0000 
     52 H52         1.8128   54.1440   22.8517 H         1 UNK         0.0000 
     53 H53         1.3949   53.3017   21.4502 H         1 UNK         0.0000 
     54 H54         4.0602   52.9022   23.9701 H         1 UNK         0.0000 
     55 H55         4.0551   54.5848   23.4209 H         1 UNK         0.0000 
     56 H56         6.1036   52.4779   22.4856 H         1 UNK         0.0000 
     57 H57         6.3545   53.4454   23.8916 H         1 UNK         0.0000 
     58 H58         7.5788   54.4995   22.1104 H         1 UNK         0.0000 
     59 H59         6.2683   55.5279   22.6197 H         1 UNK         0.0000 
     60 H60         5.1411   53.7482   19.0392 H         1 UNK         0.0000 
     61 H61         5.5460   52.7004   20.3176 H         1 UNK         0.0000 
     62 H62         3.4976   54.8963   20.8187 H         1 UNK         0.0000 
     63 H63         3.0377   53.4289   19.9250 H         1 UNK         0.0000 
     64 H64         6.0294   54.9910   18.2766 H         1 UNK         0.0000 
     65 H65         6.4425   56.5009   16.7615 H         1 UNK         0.0000 
     66 H66         6.1477   58.9479   17.1242 H         1 UNK         0.0000 
     67 H67         5.9137   58.6769   18.8323 H         1 UNK         0.0000 
     68 H68         4.7680   58.0086   17.6539 H         1 UNK         0.0000 
     69 H69         8.4319   57.9999   17.0393 H         1 UNK         0.0000 
     70 H70         8.5346   57.5444   18.7214 H         1 UNK         0.0000 
     71 H71         8.7595   56.3277   17.4460 H         1 UNK         0.0000 
     72 H72         3.6693   52.1441   21.7859 H         1 UNK         0.0000 
@<TRIPOS>BOND
     1    1    2 1    
     2    1   37 1    
     3    1   38 1    
     4    1   39 1    
     5    2    3 1    
     6    2   40 1    
     7    2   41 1    
     8    3    9 am   BACKBONE|DICT|INTERRES
     9    3    4 1    
    10    4    5 2    
    11    4   23 1    
    12    5    6 1    
    13    5   18 1    
    14    6    7 1    
    15    6    8 1    
    16    6   11 1    
    17    8    9 am   BACKBONE|DICT|INTERRES
    18    8   42 1    
    19    9   10 2    
    20   11   16 ar   
    21   11   12 ar   
    22   12   13 ar   
    23   12   43 1    
    24   13   14 ar   
    25   13   44 1    
    26   14   15 ar   
    27   14   45 1    
    28   15   16 ar   
    29   15   17 1    
    30   16   46 1    
    31   18   19 2    
    32   18   20 1    
    33   20   21 1    
    34   21   22 1    
    35   21   47 1    
    36   21   48 1    
    37   22   49 1    
    38   22   50 1    
    39   22   51 1    
    40   23   24 1    
    41   23   52 1    
    42   23   53 1    
    43   24   30 1    
    44   24   25 1    
    45   24   72 1    
    46   25   26 1    
    47   25   54 1    
    48   25   55 1    
    49   26   27 1    
    50   26   56 1    
    51   26   57 1    
    52   27   28 1    
    53   27   58 1    
    54   27   59 1    
    55   28   29 1    
    56   28   31 am   BACKBONE|DICT|INTERRES
    57   29   30 1    
    58   29   60 1    
    59   29   61 1    
    60   30   62 1    
    61   30   63 1    
    62   31   32 2    
    63   31   33 am   BACKBONE|DICT|INTERRES
    64   33   34 1    
    65   33   64 1    
    66   34   35 1    
    67   34   36 1    
    68   34   65 1    
    69   35   66 1    
    70   35   67 1    
    71   35   68 1    
    72   36   69 1    
    73   36   70 1    
    74   36   71 1    
@<TRIPOS>SUBSTRUCTURE
     1 UNK         1 GROUP             0       ****    0 ROOT    
