ZINC00695909_4112
                    3D
 Schrodinger Suite 2024-2.
 63 67  0  0  1  0            999 V2000
    2.5170   51.3196   28.8816 C   0  0  0  0  0  0
    3.3867   52.4966   28.4539 C   0  0  0  0  0  0
    4.7046   52.5129   28.9222 C   0  0  0  0  0  0
    5.6066   53.4833   28.4950 C   0  0  0  0  0  0
    5.1780   54.4967   27.6578 C   0  0  0  0  0  0
    3.8610   54.5065   27.2170 C   0  0  0  0  0  0
    2.9543   53.4892   27.5469 C   0  0  0  0  0  0
    1.5404   53.5292   26.9123 C   0  0  2  0  0  0
    1.3832   54.6005   26.8814 H   0  0  0  0  0  0
    0.3918   53.0468   27.8035 C   0  0  0  0  0  0
   -0.4803   52.0976   27.4026 C   0  0  0  0  0  0
   -0.4732   51.5929   26.0915 N   0  0  0  0  0  0
    0.4111   52.0916   25.1166 C   0  0  0  0  0  0
    1.4026   52.9730   25.4540 C   0  0  0  0  0  0
    2.3081   53.5049   24.3923 C   0  0  0  0  0  0
    2.8817   54.5825   24.4822 O   0  0  0  0  0  0
    2.3323   52.8136   23.0251 C   0  0  0  0  0  0
    1.6881   51.4187   23.0364 C   0  0  1  0  0  0
    2.3019   50.7398   23.6345 H   0  0  0  0  0  0
    0.2877   51.5574   23.6655 C   0  0  0  0  0  0
    1.6231   50.8328   21.6229 C   0  0  0  0  0  0
    1.0343   51.5497   20.5722 C   0  0  0  0  0  0
    1.0313   51.0261   19.2823 C   0  0  0  0  0  0
    1.6099   49.7827   19.0412 C   0  0  0  0  0  0
    2.1800   49.0541   20.0811 C   0  0  0  0  0  0
    2.1892   49.5787   21.3706 C   0  0  0  0  0  0
   -1.4813   50.6815   25.6877 C   0  0  0  0  0  0
   -2.7573   51.1772   25.3962 C   0  0  0  0  0  0
   -3.7930   50.3279   24.9830 C   0  0  0  0  0  0
   -3.5260   48.9556   24.8760 C   0  0  0  0  0  0
   -2.2574   48.4517   25.1597 C   0  0  0  0  0  0
   -1.2267   49.3045   25.5607 C   0  0  0  0  0  0
    0.1569   48.7199   25.8174 C   0  0  0  0  0  0
   -5.1362   50.8718   24.6673 N   0  3  0  0  0  0
   -5.3175   52.0819   24.7762 O   0  0  0  0  0  0
   -6.0127   50.0934   24.3021 O   0  5  0  0  0  0
   -1.3926   51.5390   28.2747 N   0  0  0  0  0  0
    0.3203   53.6063   29.1197 C   0  0  0  0  0  0
    0.3033   54.0688   30.1802 N   0  0  0  0  0  0
    1.8071   51.6046   29.6558 H   0  0  0  0  0  0
    1.9744   50.9001   28.0348 H   0  0  0  0  0  0
    3.1089   50.5065   29.2817 H   0  0  0  0  0  0
    5.0530   51.7419   29.5926 H   0  0  0  0  0  0
    6.6276   53.4715   28.8480 H   0  0  0  0  0  0
    5.8592   55.2809   27.3616 H   0  0  0  0  0  0
    3.5552   55.3251   26.5901 H   0  0  0  0  0  0
    3.3679   52.7714   22.6878 H   0  0  0  0  0  0
    1.7877   53.4640   22.3411 H   0  0  0  0  0  0
   -0.0891   50.5396   23.6012 H   0  0  0  0  0  0
   -0.3783   52.2093   23.0987 H   0  0  0  0  0  0
    0.5963   52.5220   20.7431 H   0  0  0  0  0  0
    0.5978   51.5878   18.4682 H   0  0  0  0  0  0
    1.6340   49.3851   18.0365 H   0  0  0  0  0  0
    2.6401   48.0977   19.8814 H   0  0  0  0  0  0
    2.6535   49.0125   22.1660 H   0  0  0  0  0  0
   -2.9346   52.2390   25.4952 H   0  0  0  0  0  0
   -4.3023   48.2688   24.5696 H   0  0  0  0  0  0
   -2.0754   47.3906   25.0734 H   0  0  0  0  0  0
    0.2944   47.7857   25.2726 H   0  0  0  0  0  0
    0.9546   49.3795   25.4799 H   0  0  0  0  0  0
    0.3045   48.5334   26.8815 H   0  0  0  0  0  0
   -1.4222   51.8515   29.2343 H   0  0  0  0  0  0
   -1.6954   50.5825   28.1248 H   0  0  0  0  0  0
  1  2  1  0  0  0
  1 40  1  0  0  0
  1 41  1  0  0  0
  1 42  1  0  0  0
  2  7  2  0  0  0
  2  3  1  0  0  0
  3  4  2  0  0  0
  3 43  1  0  0  0
  4  5  1  0  0  0
  4 44  1  0  0  0
  5  6  2  0  0  0
  5 45  1  0  0  0
  6  7  1  0  0  0
  6 46  1  0  0  0
  7  8  1  0  0  0
  8  9  1  0  0  0
  8 14  1  0  0  0
  8 10  1  0  0  0
 10 11  2  0  0  0
 10 38  1  0  0  0
 11 12  1  0  0  0
 11 37  1  0  0  0
 12 13  1  0  0  0
 12 27  1  0  0  0
 13 20  1  0  0  0
 13 14  2  0  0  0
 14 15  1  0  0  0
 15 16  2  0  0  0
 15 17  1  0  0  0
 17 18  1  0  0  0
 17 47  1  0  0  0
 17 48  1  0  0  0
 18 19  1  0  0  0
 18 20  1  0  0  0
 18 21  1  0  0  0
 20 49  1  0  0  0
 20 50  1  0  0  0
 21 26  2  0  0  0
 21 22  1  0  0  0
 22 23  2  0  0  0
 22 51  1  0  0  0
 23 24  1  0  0  0
 23 52  1  0  0  0
 24 25  2  0  0  0
 24 53  1  0  0  0
 25 26  1  0  0  0
 25 54  1  0  0  0
 26 55  1  0  0  0
 27 32  2  0  0  0
 27 28  1  0  0  0
 28 29  2  0  0  0
 28 56  1  0  0  0
 29 30  1  0  0  0
 29 34  1  0  0  0
 30 31  2  0  0  0
 30 57  1  0  0  0
 31 32  1  0  0  0
 31 58  1  0  0  0
 32 33  1  0  0  0
 33 59  1  0  0  0
 33 60  1  0  0  0
 33 61  1  0  0  0
 34 35  2  0  0  0
 34 36  1  0  0  0
 37 62  1  0  0  0
 37 63  1  0  0  0
 38 39  3  0  0  0
M  CHG  2  34   1  36  -1
M  END
> <i_i_glide_confnum>
12

> <i_i_glide_lignum>
4113

> <i_i_glide_posenum>
116

> <i_i_glide_rotatable_bonds>
5

> <i_m_Source_File_Index>
3389

> <b_m_subgroup_collapsed>
0

> <r_i_docking_score>
-5.19087

> <r_i_glide_ecoul>
-2.56387

> <r_i_glide_eff_state_penalty>
0

> <r_i_glide_einternal>
9.69757

> <r_i_glide_emodel>
-48.8359

> <r_i_glide_energy>
-41.1614

> <r_i_glide_erotb>
0.253713

> <r_i_glide_esite>
-0.110829

> <r_i_glide_evdw>
-38.5975

> <r_i_glide_gscore>
-5.19087

> <r_i_glide_hbond>
-0.0799412

> <r_i_glide_ligand_efficiency>
-0.140294

> <r_i_glide_ligand_efficiency_ln>
-1.12578

> <r_i_glide_ligand_efficiency_sa>
-0.46749

> <r_i_glide_lipo>
-2.28726

> <r_i_glide_metal>
0

> <r_i_glide_rewards>
-0.652101

> <s_i_glide_gridfile>
wee1_glide-grid

> <s_m_Source_File>
wee1_decoys_glide_SP.sdf

> <s_m_Source_Path>
/Users/zhangxujun/Desktop

> <s_m_entry_id>
3664

> <s_m_entry_name>
wee1_decoys_glide_SP.3389

> <s_m_subgroup_title>
wee1_decoys_glide_SP

> <s_m_subgroupid>
wee1_decoys_glide_SP


$$$$
