@<TRIPOS>MOLECULE
ZINC14467181_3564
40   43    1
SMALL
USER_CHARGES


@<TRIPOS>ATOM
      1 C1          3.6506   54.0968   26.6458 C.ar      1 UNK         0.0000 
      2 C2          4.4560   54.3733   25.5332 C.ar      1 UNK         0.0000 
      3 C3          3.9444   54.0959   24.2597 C.ar      1 UNK         0.0000 
      4 C4          2.6964   53.4952   24.0988 C.ar      1 UNK         0.0000 
      5 C5          1.9053   53.1937   25.2205 C.ar      1 UNK         0.0000 
      6 C6          2.3790   53.5252   26.5110 C.ar      1 UNK         0.0000 
      7 C7          1.4498   53.2956   27.6909 C.3       1 UNK         0.0000 
      8 H8          0.7646   54.1456   27.6821 H         1 UNK         0.0000 
      9 C9          1.9585   53.1279   29.1056 C.2       1 UNK         0.0000 
     10 C10         1.1086   52.3239   29.7758 C.2       1 UNK         0.0000 
     11 C11         0.0599   51.7359   28.8385 C.3       1 UNK         0.0000 
     12 C12         0.7063   51.9885   27.4787 C.3       1 UNK         0.0000 
     13 H13         1.4206   51.1760   27.3062 H         1 UNK         0.0000 
     14 C14        -0.1693   52.0964   26.2091 C.3       1 UNK         0.0000 
     15 H15        -0.8691   52.9109   26.3697 H         1 UNK         0.0000 
     16 N16         0.6612   52.5139   25.0589 N.pl3     1 UNK         0.0000 
     17 C17        -1.0731   50.8763   25.9739 C.ar      1 UNK         0.0000 
     18 C18        -2.4223   50.9693   26.3423 C.ar      1 UNK         0.0000 
     19 C19        -3.2962   49.9043   26.1353 C.ar      1 UNK         0.0000 
     20 C20        -2.8299   48.7227   25.5650 C.ar      1 UNK         0.0000 
     21 C21        -1.4897   48.6015   25.2015 C.ar      1 UNK         0.0000 
     22 C22        -0.6077   49.6704   25.4139 C.ar      1 UNK         0.0000 
     23 O23         0.7044   49.5248   25.0540 O.3       1 UNK         0.0000 
     24 Cl24       -0.9486   47.1225   24.4824 Cl        1 UNK         0.0000 
     25 Cl25       -4.9547   50.0521   26.5886 Cl        1 UNK         0.0000 
     26 O26         2.2924   53.1942   22.8203 O.3       1 UNK         0.0000 
     27 N27         5.8250   54.9259   25.7007 N.pl3     1 UNK         0.0000 
     28 O28         6.3028   54.9883   26.8301 O.co2     1 UNK         0.0000 
     29 O29         6.4370   55.2974   24.7033 O.co2     1 UNK         0.0000 
     30 H30         4.0194   54.3349   27.6337 H         1 UNK         0.0000 
     31 H31         4.5366   54.3029   23.3791 H         1 UNK         0.0000 
     32 H32         2.7786   53.6949   29.5190 H         1 UNK         0.0000 
     33 H33         1.1360   52.0972   30.8325 H         1 UNK         0.0000 
     34 H34        -0.9107   52.2202   28.9435 H         1 UNK         0.0000 
     35 H35        -0.0948   50.6699   28.9953 H         1 UNK         0.0000 
     36 H36         0.2437   52.3443   24.1572 H         1 UNK         0.0000 
     37 H37        -2.8063   51.8735   26.7924 H         1 UNK         0.0000 
     38 H38        -3.5079   47.8954   25.4157 H         1 UNK         0.0000 
     39 H39         0.9598   48.6018   24.9546 H         1 UNK         0.0000 
     40 H40         1.5895   52.5429   22.7806 H         1 UNK         0.0000 
@<TRIPOS>BOND
     1    1    6 ar   
     2    1    2 ar   
     3    1   30 1    
     4    2    3 ar   
     5    2   27 1    
     6    3    4 ar   
     7    3   31 1    
     8    4    5 ar   
     9    4   26 1    
    10    5   16 1    
    11    5    6 ar   
    12    6    7 1    
    13    7    8 1    
    14    7   12 1    
    15    7    9 1    
    16    9   10 2    
    17    9   32 1    
    18   10   11 1    
    19   10   33 1    
    20   11   12 1    
    21   11   34 1    
    22   11   35 1    
    23   12   13 1    
    24   12   14 1    
    25   14   15 1    
    26   14   16 1    
    27   14   17 1    
    28   16   36 1    
    29   17   22 ar   
    30   17   18 ar   
    31   18   19 ar   
    32   18   37 1    
    33   19   20 ar   
    34   19   25 1    
    35   20   21 ar   
    36   20   38 1    
    37   21   22 ar   
    38   21   24 1    
    39   22   23 1    
    40   23   39 1    
    41   26   40 1    
    42   27   28 2    
    43   27   29 1    
@<TRIPOS>SUBSTRUCTURE
     1 UNK         1 GROUP             0       ****    0 ROOT    
