@<TRIPOS>MOLECULE
ZINC04045298_5573
57   61    1
SMALL
USER_CHARGES


@<TRIPOS>ATOM
      1 C1          3.6590   54.8212   29.3233 C.3       1 UNK         0.0000 
      2 O2          3.4191   54.4736   27.9669 O.3       1 UNK         0.0000 
      3 C3          2.3117   53.7042   27.6381 C.ar      1 UNK         0.0000 
      4 C4          1.3297   53.3288   28.5683 C.ar      1 UNK         0.0000 
      5 C5          0.2594   52.5350   28.1760 C.ar      1 UNK         0.0000 
      6 C6          0.1446   52.1251   26.8519 C.ar      1 UNK         0.0000 
      7 C7          1.0836   52.5026   25.8811 C.ar      1 UNK         0.0000 
      8 C8          2.1847   53.2746   26.3048 C.ar      1 UNK         0.0000 
      9 N9          3.1692   53.6966   25.3946 N.pl3     1 UNK         0.0000 
     10 C10         2.8946   53.7921   23.9634 C.3       1 UNK         0.0000 
     11 H11         2.2792   54.6876   23.8661 H         1 UNK         0.0000 
     12 C12         2.0507   52.5694   23.4707 C.3       1 UNK         0.0000 
     13 H13         2.7045   51.7200   23.2922 H         1 UNK         0.0000 
     14 C14         0.9529   52.0226   24.4294 C.3       1 UNK         0.0000 
     15 H15         1.0868   50.9384   24.4823 H         1 UNK         0.0000 
     16 C16        -0.3744   52.2934   23.6936 C.3       1 UNK         0.0000 
     17 H17        -0.6912   53.3157   23.9094 H         1 UNK         0.0000 
     18 C18        -0.0457   52.1725   22.1921 C.3       1 UNK         0.0000 
     19 H19        -0.8219   52.6968   21.6392 H         1 UNK         0.0000 
     20 C20         1.3144   52.8721   22.1475 C.3       1 UNK         0.0000 
     21 S21         0.0897   50.4674   21.5422 S.3       1 UNK         0.0000 
     22 C22         0.5041   50.5063   19.8027 C.ar      1 UNK         0.0000 
     23 C23         0.6164   51.7386   19.1424 C.ar      1 UNK         0.0000 
     24 C24         1.0704   51.8091   17.8276 C.ar      1 UNK         0.0000 
     25 C25         1.4103   50.6439   17.1491 C.ar      1 UNK         0.0000 
     26 C26         1.2543   49.4092   17.7735 C.ar      1 UNK         0.0000 
     27 C27         0.7863   49.3169   19.0927 C.ar      1 UNK         0.0000 
     28 N28         0.5922   47.9692   19.6728 N.pl3     1 UNK         0.0000 
     29 O29        -0.4151   47.7454   20.3366 O.co2     1 UNK         0.0000 
     30 O30         1.4190   47.1048   19.3967 O.co2     1 UNK         0.0000 
     31 Cl31       -1.6686   51.1447   24.1610 Cl        1 UNK         0.0000 
     32 C32         4.1475   54.0968   23.1010 C.ar      1 UNK         0.0000 
     33 C33         4.0103   54.4515   21.7549 C.ar      1 UNK         0.0000 
     34 C34         5.1025   54.8189   20.9810 C.ar      1 UNK         0.0000 
     35 C35         6.3720   54.8967   21.5443 C.ar      1 UNK         0.0000 
     36 C36         6.5341   54.5179   22.8850 C.ar      1 UNK         0.0000 
     37 C37         5.4414   54.1031   23.6459 C.ar      1 UNK         0.0000 
     38 N38         7.5083   55.3723   20.7193 N.pl3     1 UNK         0.0000 
     39 O39         8.5451   55.6963   21.2816 O.co2     1 UNK         0.0000 
     40 O40         7.3638   55.4466   19.5032 O.co2     1 UNK         0.0000 
     41 H41         4.6369   55.2961   29.4025 H         1 UNK         0.0000 
     42 H42         3.6777   53.9449   29.9727 H         1 UNK         0.0000 
     43 H43         2.9090   55.5288   29.6812 H         1 UNK         0.0000 
     44 H44         1.3831   53.6345   29.6023 H         1 UNK         0.0000 
     45 H45        -0.4822   52.2291   28.9011 H         1 UNK         0.0000 
     46 H46        -0.6902   51.4915   26.5932 H         1 UNK         0.0000 
     47 H47         3.8694   54.3441   25.7278 H         1 UNK         0.0000 
     48 H48         1.1066   53.9389   22.0815 H         1 UNK         0.0000 
     49 H49         1.9254   52.5625   21.3015 H         1 UNK         0.0000 
     50 H50         0.3816   52.6662   19.6385 H         1 UNK         0.0000 
     51 H51         1.1840   52.7678   17.3436 H         1 UNK         0.0000 
     52 H52         1.7953   50.6896   16.1405 H         1 UNK         0.0000 
     53 H53         1.5181   48.5170   17.2217 H         1 UNK         0.0000 
     54 H54         3.0510   54.4934   21.2825 H         1 UNK         0.0000 
     55 H55         4.9404   55.0953   19.9469 H         1 UNK         0.0000 
     56 H56         7.5045   54.5497   23.3502 H         1 UNK         0.0000 
     57 H57         5.6136   53.8240   24.6748 H         1 UNK         0.0000 
@<TRIPOS>BOND
     1    1    2 1    
     2    1   41 1    
     3    1   42 1    
     4    1   43 1    
     5    2    3 1    
     6    3    8 ar   
     7    3    4 ar   
     8    4    5 ar   
     9    4   44 1    
    10    5    6 ar   
    11    5   45 1    
    12    6    7 ar   
    13    6   46 1    
    14    7   14 1    
    15    7    8 ar   
    16    8    9 1    
    17    9   10 1    
    18    9   47 1    
    19   10   11 1    
    20   10   12 1    
    21   10   32 1    
    22   12   13 1    
    23   12   20 1    
    24   12   14 1    
    25   14   15 1    
    26   14   16 1    
    27   16   17 1    
    28   16   18 1    
    29   16   31 1    
    30   18   19 1    
    31   18   20 1    
    32   18   21 1    
    33   20   48 1    
    34   20   49 1    
    35   21   22 1    
    36   22   27 ar   
    37   22   23 ar   
    38   23   24 ar   
    39   23   50 1    
    40   24   25 ar   
    41   24   51 1    
    42   25   26 ar   
    43   25   52 1    
    44   26   27 ar   
    45   26   53 1    
    46   27   28 1    
    47   28   29 2    
    48   28   30 1    
    49   32   37 ar   
    50   32   33 ar   
    51   33   34 ar   
    52   33   54 1    
    53   34   35 ar   
    54   34   55 1    
    55   35   36 ar   
    56   35   38 1    
    57   36   37 ar   
    58   36   56 1    
    59   37   57 1    
    60   38   39 2    
    61   38   40 1    
@<TRIPOS>SUBSTRUCTURE
     1 UNK         1 GROUP             0       ****    0 ROOT    
