@<TRIPOS>MOLECULE
ZINC35863309_5342
70   74    1
SMALL
USER_CHARGES


@<TRIPOS>ATOM
      1 C1         -6.5381   53.5044   26.4063 C.3       1 UNK         0.0000 
      2 C2         -5.4807   52.3997   26.6213 C.3       1 UNK         0.0000 
      3 C3         -4.1791   52.5744   25.8086 C.2       1 UNK         0.0000 
      4 O4         -4.0950   53.5180   25.0178 O.2       1 UNK         0.0000 
      5 N5         -3.2249   51.6065   25.8883 N.am      1 UNK         0.0000 
      6 C6         -3.1529   50.6565   27.0119 C.3       1 UNK         0.0000 
      7 C7         -2.2127   51.2634   28.0768 C.3       1 UNK         0.0000 
      8 C8         -0.9140   51.8235   27.4827 C.ar      1 UNK         0.0000 
      9 C9          0.1725   52.1354   28.3040 C.ar      1 UNK         0.0000 
     10 C10         1.3560   52.6500   27.7750 C.ar      1 UNK         0.0000 
     11 C11         1.4859   52.8291   26.3923 C.ar      1 UNK         0.0000 
     12 C12         0.4118   52.4970   25.5754 C.ar      1 UNK         0.0000 
     13 C13        -0.8053   52.0441   26.0918 C.ar      1 UNK         0.0000 
     14 C14        -1.9593   51.7066   25.1317 C.3       1 UNK         0.0000 
     15 H15        -2.0298   52.5544   24.4475 H         1 UNK         0.0000 
     16 C16        -1.6771   50.5163   24.2136 C.ar      1 UNK         0.0000 
     17 C17        -0.8118   49.4787   24.5885 C.ar      1 UNK         0.0000 
     18 C18        -0.5467   48.4299   23.7111 C.ar      1 UNK         0.0000 
     19 C19        -1.1457   48.4064   22.4500 C.ar      1 UNK         0.0000 
     20 C20        -2.0143   49.4294   22.0718 C.ar      1 UNK         0.0000 
     21 C21        -2.2817   50.4777   22.9506 C.ar      1 UNK         0.0000 
     22 F22        -2.5943   49.4104   20.8500 F         1 UNK         0.0000 
     23 O23         2.6090   53.2997   25.7465 O.3       1 UNK         0.0000 
     24 C24         3.6352   53.9458   26.4921 C.3       1 UNK         0.0000 
     25 C25         4.8434   54.1294   25.6027 C.2       1 UNK         0.0000 
     26 C26         6.2039   54.0975   25.8396 C.2       1 UNK         0.0000 
     27 C27         6.8271   54.2992   24.6111 C.2       1 UNK         0.0000 
     28 C28         5.8313   54.3959   23.6449 C.2       1 UNK         0.0000 
     29 O29         4.6246   54.3716   24.2786 O.3       1 UNK         0.0000 
     30 C30         5.9237   54.7070   22.2293 C.2       1 UNK         0.0000 
     31 O31         6.9331   55.2966   21.8331 O.2       1 UNK         0.0000 
     32 N32         4.8729   54.4225   21.4001 N.am      1 UNK         0.0000 
     33 C33         4.9204   54.8650   19.9868 C.3       1 UNK         0.0000 
     34 C34         5.2933   53.6567   19.0960 C.3       1 UNK         0.0000 
     35 N35         4.3054   52.4967   19.3269 N.4       1 UNK         0.0000 
     36 C36         4.1791   52.1305   20.8207 C.3       1 UNK         0.0000 
     37 H37         5.1050   51.6572   21.1518 H         1 UNK         0.0000 
     38 C38         3.8488   53.3887   21.6637 C.3       1 UNK         0.0000 
     39 C39         3.0655   51.0726   20.8943 C.3       1 UNK         0.0000 
     40 H40        -7.4238   53.3031   27.0114 H         1 UNK         0.0000 
     41 H41        -6.1652   54.4843   26.7092 H         1 UNK         0.0000 
     42 H42        -6.8738   53.5543   25.3680 H         1 UNK         0.0000 
     43 H43        -5.9243   51.4357   26.3599 H         1 UNK         0.0000 
     44 H44        -5.2301   52.3690   27.6815 H         1 UNK         0.0000 
     45 H45        -4.1227   50.3314   27.3891 H         1 UNK         0.0000 
     46 H46        -2.7461   49.7050   26.6618 H         1 UNK         0.0000 
     47 H47        -2.7469   52.0375   28.6217 H         1 UNK         0.0000 
     48 H48        -1.9924   50.5023   28.8256 H         1 UNK         0.0000 
     49 H49         0.0937   51.9777   29.3692 H         1 UNK         0.0000 
     50 H50         2.1610   52.8811   28.4537 H         1 UNK         0.0000 
     51 H51         0.5148   52.6326   24.5078 H         1 UNK         0.0000 
     52 H52        -0.3407   49.4759   25.5632 H         1 UNK         0.0000 
     53 H53         0.1256   47.6411   24.0200 H         1 UNK         0.0000 
     54 H54        -0.9373   47.5973   21.7667 H         1 UNK         0.0000 
     55 H55        -2.9564   51.2647   22.6462 H         1 UNK         0.0000 
     56 H56         3.2879   54.9124   26.8591 H         1 UNK         0.0000 
     57 H57         3.9433   53.3326   27.3399 H         1 UNK         0.0000 
     58 H58         6.6881   53.9389   26.7919 H         1 UNK         0.0000 
     59 H59         7.8942   54.3454   24.4510 H         1 UNK         0.0000 
     60 H60         3.9362   55.2261   19.6827 H         1 UNK         0.0000 
     61 H61         5.5950   55.7125   19.8358 H         1 UNK         0.0000 
     62 H62         5.2219   53.8931   18.0331 H         1 UNK         0.0000 
     63 H63         6.3002   53.2809   19.2840 H         1 UNK         0.0000 
     64 H64         4.6340   51.6633   18.8212 H         1 UNK         0.0000 
     65 H65         3.5594   53.1940   22.6934 H         1 UNK         0.0000 
     66 H66         2.9343   53.8155   21.2516 H         1 UNK         0.0000 
     67 H67         2.9178   50.7239   21.9180 H         1 UNK         0.0000 
     68 H68         2.1055   51.4614   20.5438 H         1 UNK         0.0000 
     69 H69         3.3030   50.1936   20.2910 H         1 UNK         0.0000 
     70 H70         3.3957   52.7212   18.9496 H         1 UNK         0.0000 
@<TRIPOS>BOND
     1    1    2 1    
     2    1   40 1    
     3    1   41 1    
     4    1   42 1    
     5    2    3 1    
     6    2   43 1    
     7    2   44 1    
     8    3    4 2    
     9    3    5 am   BACKBONE|DICT|INTERRES
    10    5   14 1    
    11    5    6 1    
    12    6    7 1    
    13    6   45 1    
    14    6   46 1    
    15    7    8 1    
    16    7   47 1    
    17    7   48 1    
    18    8   13 ar   
    19    8    9 ar   
    20    9   10 ar   
    21    9   49 1    
    22   10   11 ar   
    23   10   50 1    
    24   11   12 ar   
    25   11   23 1    
    26   12   13 ar   
    27   12   51 1    
    28   13   14 1    
    29   14   15 1    
    30   14   16 1    
    31   16   21 ar   
    32   16   17 ar   
    33   17   18 ar   
    34   17   52 1    
    35   18   19 ar   
    36   18   53 1    
    37   19   20 ar   
    38   19   54 1    
    39   20   21 ar   
    40   20   22 1    
    41   21   55 1    
    42   23   24 1    
    43   24   25 1    
    44   24   56 1    
    45   24   57 1    
    46   25   29 1    
    47   25   26 2    
    48   26   27 1    
    49   26   58 1    
    50   27   28 2    
    51   27   59 1    
    52   28   29 1    
    53   28   30 1    
    54   30   31 2    
    55   30   32 am   BACKBONE|DICT|INTERRES
    56   32   38 1    
    57   32   33 1    
    58   33   34 1    
    59   33   60 1    
    60   33   61 1    
    61   34   35 1    
    62   34   62 1    
    63   34   63 1    
    64   35   36 1    
    65   35   64 1    
    66   35   70 1    
    67   36   37 1    
    68   36   38 1    
    69   36   39 1    
    70   38   65 1    
    71   38   66 1    
    72   39   67 1    
    73   39   68 1    
    74   39   69 1    
@<TRIPOS>SUBSTRUCTURE
     1 UNK         1 GROUP             0       ****    0 ROOT    
