@<TRIPOS>MOLECULE
ZINC34897619_3173
59   62    1
SMALL
USER_CHARGES


@<TRIPOS>ATOM
      1 C1          6.0508   54.7769   25.8801 C.ar      1 UNK         0.0000 
      2 C2          6.7093   54.2156   26.9684 C.ar      1 UNK         0.0000 
      3 C3          5.9841   53.7316   28.0496 C.ar      1 UNK         0.0000 
      4 C4          4.5888   53.8132   28.0507 C.ar      1 UNK         0.0000 
      5 C5          3.9299   54.3788   26.9475 C.ar      1 UNK         0.0000 
      6 C6          4.6619   54.8590   25.8647 C.ar      1 UNK         0.0000 
      7 C7          3.7984   53.2256   29.1965 C.2       1 UNK         0.0000 
      8 O8          4.0907   52.0977   29.6052 O.2       1 UNK         0.0000 
      9 N9          2.7364   53.9355   29.6813 N.am      1 UNK         0.0000 
     10 C10         1.7026   53.2371   30.4821 C.3       1 UNK         0.0000 
     11 C11         0.5762   52.6478   29.6124 C.2       1 UNK         0.0000 
     12 O12        -0.4987   52.4357   30.1563 O.2       1 UNK         0.0000 
     13 N13         0.8876   52.2311   28.3666 N.am      1 UNK         0.0000 
     14 C14         0.0792   51.5927   27.4422 C.2       1 UNK         0.0000 
     15 N15         0.5935   51.1483   26.3275 N.2       1 UNK         0.0000 
     16 C16        -0.2910   50.5226   25.5696 C.2       1 UNK         0.0000 
     17 C17        -1.5892   50.4976   26.0771 C.2       1 UNK         0.0000 
     18 S18        -1.6312   51.3025   27.6172 S.3       1 UNK         0.0000 
     19 C19         0.2203   49.9042   24.2774 C.3       1 UNK         0.0000 
     20 C20         0.7007   50.9203   23.2304 C.2       1 UNK         0.0000 
     21 O21         0.0644   51.9564   23.0340 O.2       1 UNK         0.0000 
     22 N22         1.8164   50.6045   22.5501 N.am      1 UNK         0.0000 
     23 C23         2.3596   51.3793   21.4322 C.3       1 UNK         0.0000 
     24 C24         1.6434   51.0924   20.1170 C.ar      1 UNK         0.0000 
     25 C25         2.1597   50.1493   19.2235 C.ar      1 UNK         0.0000 
     26 C26         1.5039   49.8936   18.0208 C.ar      1 UNK         0.0000 
     27 C27         0.3432   50.5901   17.6910 C.ar      1 UNK         0.0000 
     28 C28        -0.1732   51.5581   18.5600 C.ar      1 UNK         0.0000 
     29 C29         0.4911   51.8085   19.7692 C.ar      1 UNK         0.0000 
     30 C30        -1.4451   52.3255   18.2021 C.3       1 UNK         0.0000 
     31 F31        -2.2108   52.4957   19.2814 F         1 UNK         0.0000 
     32 F32        -1.1184   53.5244   17.7191 F         1 UNK         0.0000 
     33 F33        -2.1738   51.6890   17.2830 F         1 UNK         0.0000 
     34 C34         2.7852   55.4143   29.6608 C.3       1 UNK         0.0000 
     35 C35         1.6715   56.1968   28.9985 C.3       1 UNK         0.0000 
     36 C36         1.8407   56.2722   30.4881 C.3       1 UNK         0.0000 
     37 H37         6.6204   55.1421   25.0388 H         1 UNK         0.0000 
     38 H38         7.7833   54.1400   26.9783 H         1 UNK         0.0000 
     39 H39         6.5164   53.2963   28.8813 H         1 UNK         0.0000 
     40 H40         2.8507   54.4359   26.9100 H         1 UNK         0.0000 
     41 H41         4.1556   55.2880   25.0123 H         1 UNK         0.0000 
     42 H42         1.2723   53.8146   31.2967 H         1 UNK         0.0000 
     43 H43         2.1581   52.4014   31.0152 H         1 UNK         0.0000 
     44 H44         1.8409   52.3688   28.0738 H         1 UNK         0.0000 
     45 H45        -2.4763   50.0436   25.6626 H         1 UNK         0.0000 
     46 H46        -0.5608   49.3117   23.8038 H         1 UNK         0.0000 
     47 H47         1.0230   49.2006   24.5038 H         1 UNK         0.0000 
     48 H48         2.2621   49.7213   22.7489 H         1 UNK         0.0000 
     49 H49         3.4214   51.1559   21.3273 H         1 UNK         0.0000 
     50 H50         2.3049   52.4500   21.6425 H         1 UNK         0.0000 
     51 H51         3.0734   49.6155   19.4443 H         1 UNK         0.0000 
     52 H52         1.9066   49.1643   17.3336 H         1 UNK         0.0000 
     53 H53        -0.1434   50.3806   16.7492 H         1 UNK         0.0000 
     54 H54         0.1087   52.5555   20.4510 H         1 UNK         0.0000 
     55 H55         3.7986   55.8018   29.5519 H         1 UNK         0.0000 
     56 H56         1.9041   57.1127   28.4625 H         1 UNK         0.0000 
     57 H57         0.8266   55.6554   28.5700 H         1 UNK         0.0000 
     58 H58         1.0720   55.8373   31.1210 H         1 UNK         0.0000 
     59 H59         2.2251   57.2000   30.9173 H         1 UNK         0.0000 
@<TRIPOS>BOND
     1    1    6 ar   
     2    1    2 ar   
     3    1   37 1    
     4    2    3 ar   
     5    2   38 1    
     6    3    4 ar   
     7    3   39 1    
     8    4    5 ar   
     9    4    7 1    
    10    5    6 ar   
    11    5   40 1    
    12    6   41 1    
    13    7    8 2    
    14    7    9 am   BACKBONE|DICT|INTERRES
    15    9   10 1    
    16    9   34 1    
    17   10   11 1    
    18   10   42 1    
    19   10   43 1    
    20   11   12 2    
    21   11   13 am   BACKBONE|DICT|INTERRES
    22   13   14 am   BACKBONE|DICT|INTERRES
    23   13   44 1    
    24   14   18 1    
    25   14   15 2    
    26   15   16 1    
    27   16   17 2    
    28   16   19 1    
    29   17   18 1    
    30   17   45 1    
    31   19   20 1    
    32   19   46 1    
    33   19   47 1    
    34   20   21 2    
    35   20   22 am   BACKBONE|DICT|INTERRES
    36   22   23 1    
    37   22   48 1    
    38   23   24 1    
    39   23   49 1    
    40   23   50 1    
    41   24   29 ar   
    42   24   25 ar   
    43   25   26 ar   
    44   25   51 1    
    45   26   27 ar   
    46   26   52 1    
    47   27   28 ar   
    48   27   53 1    
    49   28   29 ar   
    50   28   30 1    
    51   29   54 1    
    52   30   31 1    
    53   30   32 1    
    54   30   33 1    
    55   34   36 1    
    56   34   35 1    
    57   34   55 1    
    58   35   36 1    
    59   35   56 1    
    60   35   57 1    
    61   36   58 1    
    62   36   59 1    
@<TRIPOS>SUBSTRUCTURE
     1 UNK         1 GROUP             0       ****    0 ROOT    
