ZINC67134287_1511
                    3D
 Schrodinger Suite 2024-2.
 45 48  0  0  1  0            999 V2000
    4.4188   54.0197   16.6212 C   0  0  0  0  0  0
    4.6489   54.0448   18.1210 C   0  0  0  0  0  0
    5.2723   55.1394   18.7200 C   0  0  0  0  0  0
    5.5045   55.1494   20.0943 C   0  0  0  0  0  0
    5.1105   54.0630   20.8940 C   0  0  0  0  0  0
    4.4977   52.9576   20.2822 C   0  0  0  0  0  0
    4.2663   52.9574   18.9074 C   0  0  0  0  0  0
    4.1247   51.8482   21.0008 O   0  0  0  0  0  0
    5.3131   54.0284   22.2879 N   0  0  0  0  0  0
    6.1940   54.7255   23.0375 C   0  0  0  0  0  0
    7.0967   55.4306   22.5799 O   0  0  0  0  0  0
    5.9796   54.6108   24.4678 C   0  0  0  0  0  0
    4.7825   54.2992   25.1487 C   0  0  0  0  0  0
    5.1493   54.2990   26.4868 N   0  0  0  0  0  0
    6.4254   54.6690   26.6245 N   0  0  0  0  0  0
    6.9147   54.8942   25.3574 N   0  0  0  0  0  0
    4.4062   53.9239   27.6303 C   0  0  0  0  0  0
    4.9193   52.9339   28.4807 C   0  0  0  0  0  0
    4.1730   52.4732   29.5655 C   0  0  0  0  0  0
    2.9072   52.9995   29.8032 C   0  0  0  0  0  0
    2.4091   54.0342   28.9949 C   0  0  0  0  0  0
    3.1576   54.4966   27.9106 C   0  0  0  0  0  0
    1.1487   54.5683   29.1817 O   0  0  0  0  0  0
    0.5713   54.2797   30.4614 C   0  0  0  0  0  0
    0.8084   52.8010   30.8604 C   0  0  0  0  0  0
    2.2115   52.5079   30.8865 O   0  0  0  0  0  0
    3.3835   53.9513   24.6518 C   0  0  0  0  0  0
    5.2034   54.5677   16.0973 H   0  0  0  0  0  0
    3.4529   54.4609   16.3735 H   0  0  0  0  0  0
    4.4454   52.9968   16.2419 H   0  0  0  0  0  0
    5.5788   55.9862   18.1234 H   0  0  0  0  0  0
    5.9711   56.0227   20.5213 H   0  0  0  0  0  0
    3.8099   52.0975   18.4368 H   0  0  0  0  0  0
    3.8053   51.1609   20.4091 H   0  0  0  0  0  0
    4.6995   53.3950   22.7786 H   0  0  0  0  0  0
    5.8881   52.4960   28.2835 H   0  0  0  0  0  0
    4.5687   51.6988   30.2055 H   0  0  0  0  0  0
    2.7537   55.2791   27.2859 H   0  0  0  0  0  0
   -0.4953   54.4967   30.4277 H   0  0  0  0  0  0
    1.0157   54.9347   31.2119 H   0  0  0  0  0  0
    0.3164   52.1485   30.1368 H   0  0  0  0  0  0
    0.3726   52.5895   31.8379 H   0  0  0  0  0  0
    3.1169   54.5219   23.7619 H   0  0  0  0  0  0
    3.2996   52.8980   24.3916 H   0  0  0  0  0  0
    2.5901   54.1516   25.3662 H   0  0  0  0  0  0
  1  2  1  0  0  0
  1 28  1  0  0  0
  1 29  1  0  0  0
  1 30  1  0  0  0
  2  7  2  0  0  0
  2  3  1  0  0  0
  3  4  2  0  0  0
  3 31  1  0  0  0
  4  5  1  0  0  0
  4 32  1  0  0  0
  5  6  2  0  0  0
  5  9  1  0  0  0
  6  7  1  0  0  0
  6  8  1  0  0  0
  7 33  1  0  0  0
  8 34  1  0  0  0
  9 10  1  0  0  0
  9 35  1  0  0  0
 10 11  2  0  0  0
 10 12  1  0  0  0
 12 16  1  0  0  0
 12 13  2  0  0  0
 13 14  1  0  0  0
 13 27  1  0  0  0
 14 15  1  0  0  0
 14 17  1  0  0  0
 15 16  2  0  0  0
 17 22  2  0  0  0
 17 18  1  0  0  0
 18 19  2  0  0  0
 18 36  1  0  0  0
 19 20  1  0  0  0
 19 37  1  0  0  0
 20 26  1  0  0  0
 20 21  2  0  0  0
 21 22  1  0  0  0
 21 23  1  0  0  0
 22 38  1  0  0  0
 23 24  1  0  0  0
 24 25  1  0  0  0
 24 39  1  0  0  0
 24 40  1  0  0  0
 25 26  1  0  0  0
 25 41  1  0  0  0
 25 42  1  0  0  0
 27 43  1  0  0  0
 27 44  1  0  0  0
 27 45  1  0  0  0
M  END
> <i_i_glide_confnum>
38

> <i_i_glide_lignum>
1512

> <i_i_glide_posenum>
244

> <i_i_glide_rotatable_bonds>
5

> <i_m_Source_File_Index>
860

> <b_m_subgroup_collapsed>
0

> <r_i_docking_score>
-6.36959

> <r_i_glide_ecoul>
-2.48329

> <r_i_glide_eff_state_penalty>
0

> <r_i_glide_einternal>
5.95055

> <r_i_glide_emodel>
-63.1356

> <r_i_glide_energy>
-47.5455

> <r_i_glide_erotb>
0.573554

> <r_i_glide_esite>
0

> <r_i_glide_evdw>
-45.0622

> <r_i_glide_gscore>
-6.36959

> <r_i_glide_hbond>
-0.0743155

> <r_i_glide_ligand_efficiency>
-0.235911

> <r_i_glide_ligand_efficiency_ln>
-1.48273

> <r_i_glide_ligand_efficiency_sa>
-0.707732

> <r_i_glide_lipo>
-2.54067

> <r_i_glide_metal>
0

> <r_i_glide_rewards>
-1.70255

> <s_i_glide_gridfile>
wee1_glide-grid

> <s_m_Source_File>
wee1_decoys_glide_SP.sdf

> <s_m_Source_Path>
/Users/zhangxujun/Desktop

> <s_m_entry_id>
1135

> <s_m_entry_name>
wee1_decoys_glide_SP.860

> <s_m_subgroup_title>
wee1_decoys_glide_SP

> <s_m_subgroupid>
wee1_decoys_glide_SP


$$$$
