@<TRIPOS>MOLECULE
ZINC23334555_116
49   51    1
SMALL
USER_CHARGES


@<TRIPOS>ATOM
      1 C1          5.9956   54.0138   22.9745 C.3       1 UNK         0.0000 
      2 C2          5.2340   54.3486   21.6824 C.3       1 UNK         0.0000 
      3 O3          4.0379   53.5837   21.5481 O.3       1 UNK         0.0000 
      4 C4          4.0711   52.3061   21.1145 C.2       1 UNK         0.0000 
      5 O5          5.1045   51.6944   20.8802 O.2       1 UNK         0.0000 
      6 C6          2.7406   51.7362   20.9036 C.2       1 UNK         0.0000 
      7 C7          1.4943   52.0584   21.4681 C.2       1 UNK         0.0000 
      8 C8          0.4442   51.3345   20.8431 C.2       1 UNK         0.0000 
      9 C9          0.9116   50.4134   19.9037 C.2       1 UNK         0.0000 
     10 S10         2.6248   50.4555   19.7360 S.3       1 UNK         0.0000 
     11 N11         0.2006   49.5366   19.1288 N.pl3     1 UNK         0.0000 
     12 C12        -0.9712   51.5325   21.1404 C.1       1 UNK         0.0000 
     13 N13        -2.0916   51.6958   21.3772 N.1       1 UNK         0.0000 
     14 C14         1.2981   53.0800   22.5783 C.3       1 UNK         0.0000 
     15 N15         1.4991   52.4302   23.9679 N.4       1 UNK         0.0000 
     16 C16         1.9651   53.5221   24.9508 C.3       1 UNK         0.0000 
     17 C17         2.0966   52.9166   26.3510 C.3       1 UNK         0.0000 
     18 N18         0.8047   52.3945   26.8222 N.3       1 UNK         0.0000 
     19 C19         0.3559   51.2913   25.9574 C.3       1 UNK         0.0000 
     20 C20         0.2000   51.7503   24.4880 C.3       1 UNK         0.0000 
     21 C21         0.8760   51.9505   28.2235 C.3       1 UNK         0.0000 
     22 C22         0.7807   53.0813   29.2420 C.2       1 UNK         0.0000 
     23 C23         0.2549   53.0318   30.5352 C.2       1 UNK         0.0000 
     24 C24         0.3045   54.2439   31.2310 C.2       1 UNK         0.0000 
     25 C25         0.8722   55.2578   30.4813 C.2       1 UNK         0.0000 
     26 S26         1.3408   54.7094   28.9320 S.3       1 UNK         0.0000 
     27 Cl27        1.1506   56.8966   30.8817 Cl        1 UNK         0.0000 
     28 H28         6.8771   54.6468   23.0811 H         1 UNK         0.0000 
     29 H29         6.3351   52.9780   22.9679 H         1 UNK         0.0000 
     30 H30         5.3689   54.1612   23.8539 H         1 UNK         0.0000 
     31 H31         4.9555   55.4000   21.6815 H         1 UNK         0.0000 
     32 H32         5.8774   54.2094   20.8111 H         1 UNK         0.0000 
     33 H33        -0.8077   49.4944   19.1557 H         1 UNK         0.0000 
     34 H34         0.6593   48.9564   18.4393 H         1 UNK         0.0000 
     35 H35         1.9362   53.9578   22.4989 H         1 UNK         0.0000 
     36 H36         0.3045   53.4742   22.6418 H         1 UNK         0.0000 
     37 H37         2.9428   53.8551   24.5967 H         1 UNK         0.0000 
     38 H38         1.2515   54.3480   24.9113 H         1 UNK         0.0000 
     39 H39         2.7984   52.0968   26.3512 H         1 UNK         0.0000 
     40 H40         2.5367   53.6695   26.9934 H         1 UNK         0.0000 
     41 H41        -0.5949   50.8832   26.3084 H         1 UNK         0.0000 
     42 H42         1.1029   50.4990   26.0061 H         1 UNK         0.0000 
     43 H43        -0.6206   52.4639   24.3907 H         1 UNK         0.0000 
     44 H44         0.0300   50.8874   23.8426 H         1 UNK         0.0000 
     45 H45         0.0638   51.2512   28.4356 H         1 UNK         0.0000 
     46 H46         1.7900   51.3735   28.3752 H         1 UNK         0.0000 
     47 H47        -0.1636   52.1332   30.9699 H         1 UNK         0.0000 
     48 H48        -0.0609   54.3676   32.2402 H         1 UNK         0.0000 
     49 H49         2.2360   51.7377   23.9317 H         1 UNK         0.0000 
@<TRIPOS>BOND
     1    1    2 1    
     2    1   28 1    
     3    1   29 1    
     4    1   30 1    
     5    2    3 1    
     6    2   31 1    
     7    2   32 1    
     8    3    4 1    
     9    4    5 2    
    10    4    6 1    
    11    6   10 1    
    12    6    7 2    
    13    7    8 1    
    14    7   14 1    
    15    8    9 2    
    16    8   12 1    
    17    9   10 1    
    18    9   11 1    
    19   11   33 1    
    20   11   34 1    
    21   12   13 3    
    22   14   15 1    
    23   14   35 1    
    24   14   36 1    
    25   15   20 1    
    26   15   16 1    
    27   15   49 1    
    28   16   17 1    
    29   16   37 1    
    30   16   38 1    
    31   17   18 1    
    32   17   39 1    
    33   17   40 1    
    34   18   19 1    
    35   18   21 1    
    36   19   20 1    
    37   19   41 1    
    38   19   42 1    
    39   20   43 1    
    40   20   44 1    
    41   21   22 1    
    42   21   45 1    
    43   21   46 1    
    44   22   26 1    
    45   22   23 2    
    46   23   24 1    
    47   23   47 1    
    48   24   25 2    
    49   24   48 1    
    50   25   26 1    
    51   25   27 1    
@<TRIPOS>SUBSTRUCTURE
     1 UNK         1 GROUP             0       ****    0 ROOT    
