ZINC19776244_4678
                    3D
 Schrodinger Suite 2024-2.
 36 39  0  0  1  0            999 V2000
    0.6530   53.1643   28.4606 C   0  0  0  0  0  0
    1.6091   53.9270   29.1375 C   0  0  0  0  0  0
    2.8453   54.1525   28.5392 C   0  0  0  0  0  0
    3.1186   53.6645   27.2641 C   0  0  0  0  0  0
    2.1662   52.8968   26.6028 C   0  0  0  0  0  0
    0.9149   52.6261   27.1845 C   0  0  0  0  0  0
   -0.1284   51.7564   26.5177 C   0  0  0  0  0  0
   -1.2026   51.5311   27.0774 O   0  0  0  0  0  0
    0.1260   51.1196   25.2134 C   0  0  0  0  0  0
    0.6077   51.7557   24.0458 C   0  0  0  0  0  0
    0.8172   50.9056   22.9792 C   0  0  0  0  0  0
    0.3195   49.2969   23.2858 S   0  0  0  0  0  0
   -0.1201   49.7635   24.8980 C   0  0  0  0  0  0
   -0.6359   48.7745   25.6817 N   0  0  0  0  0  0
    1.4300   51.5789   21.7880 C   0  0  0  0  0  0
    1.8693   52.9022   22.4180 C   0  0  0  0  0  0
    0.9266   53.1666   23.6031 C   0  0  0  0  0  0
    4.3642   53.9411   26.6961 N   0  0  0  0  0  0
    5.4545   54.3697   27.3602 C   0  0  0  0  0  0
    6.5295   54.6290   26.8217 O   0  0  0  0  0  0
    5.1675   54.4967   28.8827 C   0  0  0  0  0  0
    3.8068   54.8969   29.1902 O   0  0  0  0  0  0
   -0.2930   52.9788   28.9515 H   0  0  0  0  0  0
    1.3944   54.3269   30.1171 H   0  0  0  0  0  0
    2.4408   52.4967   25.6430 H   0  0  0  0  0  0
   -0.9092   48.9178   26.6564 H   0  0  0  0  0  0
   -0.5870   47.8040   25.4118 H   0  0  0  0  0  0
    0.7103   51.7304   20.9824 H   0  0  0  0  0  0
    2.2858   51.0417   21.3774 H   0  0  0  0  0  0
    1.8671   53.6976   21.6819 H   0  0  0  0  0  0
    2.8953   52.8130   22.7820 H   0  0  0  0  0  0
    1.3711   53.8360   24.3353 H   0  0  0  0  0  0
    0.0138   53.6622   23.2819 H   0  0  0  0  0  0
    4.5199   53.7630   25.7156 H   0  0  0  0  0  0
    5.8855   55.1745   29.3394 H   0  0  0  0  0  0
    5.3333   53.4952   29.2816 H   0  0  0  0  0  0
  1  6  2  0  0  0
  1  2  1  0  0  0
  1 23  1  0  0  0
  2  3  2  0  0  0
  2 24  1  0  0  0
  3 22  1  0  0  0
  3  4  1  0  0  0
  4  5  2  0  0  0
  4 18  1  0  0  0
  5  6  1  0  0  0
  5 25  1  0  0  0
  6  7  1  0  0  0
  7  8  2  0  0  0
  7  9  1  0  0  0
  9 13  2  0  0  0
  9 10  1  0  0  0
 10 17  1  0  0  0
 10 11  2  0  0  0
 11 12  1  0  0  0
 11 15  1  0  0  0
 12 13  1  0  0  0
 13 14  1  0  0  0
 14 26  1  0  0  0
 14 27  1  0  0  0
 15 16  1  0  0  0
 15 28  1  0  0  0
 15 29  1  0  0  0
 16 17  1  0  0  0
 16 30  1  0  0  0
 16 31  1  0  0  0
 17 32  1  0  0  0
 17 33  1  0  0  0
 18 19  1  0  0  0
 18 34  1  0  0  0
 19 20  2  0  0  0
 19 21  1  0  0  0
 21 22  1  0  0  0
 21 35  1  0  0  0
 21 36  1  0  0  0
M  END
> <i_i_glide_confnum>
4

> <i_i_glide_lignum>
4679

> <i_i_glide_posenum>
255

> <i_i_glide_rotatable_bonds>
2

> <i_m_Source_File_Index>
5247

> <b_m_subgroup_collapsed>
0

> <r_i_docking_score>
-5.69143

> <r_i_glide_ecoul>
-5.02385

> <r_i_glide_eff_state_penalty>
0

> <r_i_glide_einternal>
5.0646

> <r_i_glide_emodel>
-51.4277

> <r_i_glide_energy>
-39.6407

> <r_i_glide_erotb>
0.376176

> <r_i_glide_esite>
-0.111547

> <r_i_glide_evdw>
-34.6168

> <r_i_glide_gscore>
-5.69143

> <r_i_glide_hbond>
-0.16

> <r_i_glide_ligand_efficiency>
-0.258702

> <r_i_glide_ligand_efficiency_ln>
-1.39119

> <r_i_glide_ligand_efficiency_sa>
-0.724892

> <r_i_glide_lipo>
-1.59592

> <r_i_glide_metal>
0

> <r_i_glide_rewards>
-1.71573

> <s_i_glide_gridfile>
wee1_glide-grid

> <s_m_Source_File>
wee1_decoys_glide_SP.sdf

> <s_m_Source_Path>
/Users/zhangxujun/Desktop

> <s_m_entry_id>
5522

> <s_m_entry_name>
wee1_decoys_glide_SP.5247

> <s_m_subgroup_title>
wee1_decoys_glide_SP

> <s_m_subgroupid>
wee1_decoys_glide_SP


$$$$
