@<TRIPOS>MOLECULE
ZINC49035037_2071
65   69    1
SMALL
USER_CHARGES


@<TRIPOS>ATOM
      1 C1          1.8736   53.0881   12.8944 C.3       1 UNK         0.0000 
      2 C2          2.3952   54.4900   13.2216 C.3       1 UNK         0.0000 
      3 O3          3.0380   54.4624   14.4880 O.3       1 UNK         0.0000 
      4 C4          3.5800   55.5862   15.0186 C.2       1 UNK         0.0000 
      5 O5          3.5472   56.6860   14.4591 O.2       1 UNK         0.0000 
      6 C6          4.2183   55.3683   16.3315 C.2       1 UNK         0.0000 
      7 C7          4.8286   56.3930   16.9627 C.2       1 UNK         0.0000 
      8 N8          5.4750   56.2700   18.1842 N.pl3     1 UNK         0.0000 
      9 C9          5.1972   55.1435   19.0044 C.ar      1 UNK         0.0000 
     10 C10         5.5129   55.1393   20.3703 C.ar      1 UNK         0.0000 
     11 C11         5.2856   54.0191   21.1818 C.ar      1 UNK         0.0000 
     12 C12         4.6982   52.8835   20.5845 C.ar      1 UNK         0.0000 
     13 C13         4.3476   52.8970   19.2382 C.ar      1 UNK         0.0000 
     14 C14         4.5771   54.0108   18.4297 C.ar      1 UNK         0.0000 
     15 C15         4.1595   53.9680   16.9535 C.3       1 UNK         0.0000 
     16 N16         4.4602   51.6965   21.2816 N.pl3     1 UNK         0.0000 
     17 N17         5.5544   54.0689   22.5550 N.pl3     1 UNK         0.0000 
     18 C18         6.5982   54.9509   23.0807 C.3       1 UNK         0.0000 
     19 C19         7.0146   54.5541   24.5003 C.3       1 UNK         0.0000 
     20 C20         5.8321   54.3933   25.4403 C.2       1 UNK         0.0000 
     21 C21         4.5632   54.1836   24.9790 C.2       1 UNK         0.0000 
     22 C22         4.3819   54.1293   23.4459 C.3       1 UNK         0.0000 
     23 C23         3.3823   53.9977   25.8588 C.2       1 UNK         0.0000 
     24 N24         2.1678   53.6964   25.5509 N.2       1 UNK         0.0000 
     25 O25         1.8748   53.5730   24.1870 O.3       1 UNK         0.0000 
     26 C26         0.5728   53.0331   24.0435 C.3       1 UNK         0.0000 
     27 C27         3.6254   54.2264   27.3826 C.3       1 UNK         0.0000 
     28 H28         3.7482   55.2965   27.5216 H         1 UNK         0.0000 
     29 C29         4.9198   53.5442   27.8411 C.3       1 UNK         0.0000 
     30 S30         6.3646   54.3559   27.1466 S.3       1 UNK         0.0000 
     31 C31         2.4462   53.8100   28.3069 C.3       1 UNK         0.0000 
     32 C32         6.6104   57.1504   18.5345 C.3       1 UNK         0.0000 
     33 C33         7.3508   57.9087   17.4389 C.3       1 UNK         0.0000 
     34 C34         6.4394   58.6515   18.3756 C.3       1 UNK         0.0000 
     35 H35         1.3900   53.0712   11.9169 H         1 UNK         0.0000 
     36 H36         1.1446   52.7581   13.6358 H         1 UNK         0.0000 
     37 H37         2.6873   52.3621   12.8777 H         1 UNK         0.0000 
     38 H38         3.0984   54.8150   12.4530 H         1 UNK         0.0000 
     39 H39         1.5690   55.2025   13.2365 H         1 UNK         0.0000 
     40 H40         4.8398   57.3892   16.5398 H         1 UNK         0.0000 
     41 H41         5.9187   56.0329   20.8142 H         1 UNK         0.0000 
     42 H42         3.9014   52.0185   18.7928 H         1 UNK         0.0000 
     43 H43         3.1467   53.5660   16.8949 H         1 UNK         0.0000 
     44 H44         4.8085   53.2830   16.4059 H         1 UNK         0.0000 
     45 H45         4.0585   50.9119   20.7882 H         1 UNK         0.0000 
     46 H46         4.7903   51.6172   22.2308 H         1 UNK         0.0000 
     47 H47         7.4826   54.8785   22.4433 H         1 UNK         0.0000 
     48 H48         6.3051   55.9991   23.0493 H         1 UNK         0.0000 
     49 H49         7.5770   53.6208   24.4797 H         1 UNK         0.0000 
     50 H50         7.6842   55.3216   24.8818 H         1 UNK         0.0000 
     51 H51         3.7372   54.9503   23.1336 H         1 UNK         0.0000 
     52 H52         3.8429   53.2133   23.2212 H         1 UNK         0.0000 
     53 H53         0.3583   52.8999   22.9833 H         1 UNK         0.0000 
     54 H54         0.4880   52.0528   24.5186 H         1 UNK         0.0000 
     55 H55        -0.1891   53.6966   24.4542 H         1 UNK         0.0000 
     56 H56         4.9522   52.4966   27.5547 H         1 UNK         0.0000 
     57 H57         5.0390   53.5893   28.9239 H         1 UNK         0.0000 
     58 H58         1.5409   54.3787   28.0872 H         1 UNK         0.0000 
     59 H59         2.2053   52.7510   28.2042 H         1 UNK         0.0000 
     60 H60         2.6817   53.9897   29.3564 H         1 UNK         0.0000 
     61 H61         7.2539   56.7762   19.3314 H         1 UNK         0.0000 
     62 H62         8.4290   58.0323   17.5463 H         1 UNK         0.0000 
     63 H63         7.0662   57.7937   16.3934 H         1 UNK         0.0000 
     64 H64         5.5046   59.0570   17.9856 H         1 UNK         0.0000 
     65 H65         6.8809   59.3130   19.1193 H         1 UNK         0.0000 
@<TRIPOS>BOND
     1    1    2 1    
     2    1   35 1    
     3    1   36 1    
     4    1   37 1    
     5    2    3 1    
     6    2   38 1    
     7    2   39 1    
     8    3    4 1    
     9    4    5 2    
    10    4    6 1    
    11    6   15 1    
    12    6    7 2    
    13    7    8 1    
    14    7   40 1    
    15    8    9 1    
    16    8   32 1    
    17    9   14 ar   
    18    9   10 ar   
    19   10   11 ar   
    20   10   41 1    
    21   11   12 ar   
    22   11   17 1    
    23   12   13 ar   
    24   12   16 1    
    25   13   14 ar   
    26   13   42 1    
    27   14   15 1    
    28   15   43 1    
    29   15   44 1    
    30   16   45 1    
    31   16   46 1    
    32   17   22 1    
    33   17   18 1    
    34   18   19 1    
    35   18   47 1    
    36   18   48 1    
    37   19   20 1    
    38   19   49 1    
    39   19   50 1    
    40   20   30 1    
    41   20   21 2    
    42   21   22 1    
    43   21   23 1    
    44   22   51 1    
    45   22   52 1    
    46   23   24 2    
    47   23   27 1    
    48   24   25 1    
    49   25   26 1    
    50   26   53 1    
    51   26   54 1    
    52   26   55 1    
    53   27   28 1    
    54   27   29 1    
    55   27   31 1    
    56   29   30 1    
    57   29   56 1    
    58   29   57 1    
    59   31   58 1    
    60   31   59 1    
    61   31   60 1    
    62   32   34 1    
    63   32   33 1    
    64   32   61 1    
    65   33   34 1    
    66   33   62 1    
    67   33   63 1    
    68   34   64 1    
    69   34   65 1    
@<TRIPOS>SUBSTRUCTURE
     1 UNK         1 GROUP             0       ****    0 ROOT    
