@<TRIPOS>MOLECULE
ZINC38598972_1449
46   50    1
SMALL
USER_CHARGES


@<TRIPOS>ATOM
      1 C1          0.9638   50.7873   23.6739 C.3       1 UNK         0.0000 
      2 C2          1.6297   52.0906   24.0696 C.2       1 UNK         0.0000 
      3 C3          2.3873   52.9952   23.4177 C.2       1 UNK         0.0000 
      4 C4          2.9065   53.1598   21.9931 C.3       1 UNK         0.0000 
      5 H5          2.6283   54.1669   21.6824 H         1 UNK         0.0000 
      6 C6          4.4605   53.1201   22.0467 C.3       1 UNK         0.0000 
      7 C7          5.0712   54.0040   23.1599 C.2       1 UNK         0.0000 
      8 O8          6.2016   54.4787   23.1018 O.2       1 UNK         0.0000 
      9 N9          4.3327   54.0973   24.2885 N.am      1 UNK         0.0000 
     10 C10         2.8549   54.0815   24.3616 C.3       1 UNK         0.0000 
     11 H11         2.4367   55.0504   24.0817 H         1 UNK         0.0000 
     12 N12         2.2819   53.6965   25.6481 N.pl3     1 UNK         0.0000 
     13 N13         1.5050   52.5034   25.3915 N.pl3     1 UNK         0.0000 
     14 C14         2.7966   53.9450   26.9672 C.2       1 UNK         0.0000 
     15 N15         4.0250   54.3060   27.1577 N.2       1 UNK         0.0000 
     16 C16         4.4447   54.4762   28.4820 C.2       1 UNK         0.0000 
     17 N17         3.8487   54.1896   29.5866 N.2       1 UNK         0.0000 
     18 C18         2.5846   53.6337   29.4223 C.2       1 UNK         0.0000 
     19 N19         1.9742   52.8522   30.2018 N.2       1 UNK         0.0000 
     20 C20         0.9080   52.4114   29.4374 C.2       1 UNK         0.0000 
     21 N21         0.7568   52.8688   28.2602 N.2       1 UNK         0.0000 
     22 C22         1.7740   53.8752   28.1582 C.3       1 UNK         0.0000 
     23 H23         1.2767   54.8446   28.2272 H         1 UNK         0.0000 
     24 C24         2.2592   52.2241   20.9588 C.ar      1 UNK         0.0000 
     25 C25         2.9951   51.2928   20.2125 C.ar      1 UNK         0.0000 
     26 C26         2.3589   50.4753   19.2791 C.ar      1 UNK         0.0000 
     27 C27         0.9848   50.5789   19.0726 C.ar      1 UNK         0.0000 
     28 C28         0.2303   51.5061   19.7996 C.ar      1 UNK         0.0000 
     29 C29         0.8799   52.3209   20.7334 C.ar      1 UNK         0.0000 
     30 C30        -1.2767   51.6296   19.5769 C.3       1 UNK         0.0000 
     31 F31        -1.5043   52.4930   18.5875 F         1 UNK         0.0000 
     32 F32        -1.8178   50.4551   19.2490 F         1 UNK         0.0000 
     33 F33        -1.8987   52.0792   20.6694 F         1 UNK         0.0000 
     34 H34        -0.1210   50.8842   23.7135 H         1 UNK         0.0000 
     35 H35         1.2456   50.4670   22.6740 H         1 UNK         0.0000 
     36 H36         1.2615   49.9915   24.3576 H         1 UNK         0.0000 
     37 H37         4.8141   52.1250   22.3108 H         1 UNK         0.0000 
     38 H38         4.8973   53.4417   21.1004 H         1 UNK         0.0000 
     39 H39         4.7764   54.6269   25.0246 H         1 UNK         0.0000 
     40 H40         0.6119   52.6647   25.8398 H         1 UNK         0.0000 
     41 H41         5.4363   54.9073   28.5981 H         1 UNK         0.0000 
     42 H42         0.2113   51.6773   29.8343 H         1 UNK         0.0000 
     43 H43         4.0643   51.1933   20.3276 H         1 UNK         0.0000 
     44 H44         2.9447   49.7748   18.6984 H         1 UNK         0.0000 
     45 H45         0.5146   49.9433   18.3362 H         1 UNK         0.0000 
     46 H46         0.3132   53.0439   21.2985 H         1 UNK         0.0000 
@<TRIPOS>BOND
     1    1    2 1    
     2    1   34 1    
     3    1   35 1    
     4    1   36 1    
     5    2   13 1    
     6    2    3 2    
     7    3   10 1    
     8    3    4 1    
     9    4    5 1    
    10    4    6 1    
    11    4   24 1    
    12    6    7 1    
    13    6   37 1    
    14    6   38 1    
    15    7    8 2    
    16    7    9 am   BACKBONE|DICT|INTERRES
    17    9   10 1    
    18    9   39 1    
    19   10   11 1    
    20   10   12 1    
    21   12   13 1    
    22   12   14 1    
    23   13   40 1    
    24   14   22 1    
    25   14   15 2    
    26   15   16 1    
    27   16   17 2    
    28   16   41 1    
    29   17   18 1    
    30   18   22 1    
    31   18   19 2    
    32   19   20 1    
    33   20   21 2    
    34   20   42 1    
    35   21   22 1    
    36   22   23 1    
    37   24   29 ar   
    38   24   25 ar   
    39   25   26 ar   
    40   25   43 1    
    41   26   27 ar   
    42   26   44 1    
    43   27   28 ar   
    44   27   45 1    
    45   28   29 ar   
    46   28   30 1    
    47   29   46 1    
    48   30   31 1    
    49   30   32 1    
    50   30   33 1    
@<TRIPOS>SUBSTRUCTURE
     1 UNK         1 GROUP             0       ****    0 ROOT    
