ZINC36185372_5401
                    3D
 Schrodinger Suite 2024-2.
 78 83  0  0  1  0            999 V2000
    3.6107   54.4705   23.5578 C   0  0  0  0  0  0
    2.4190   53.4851   23.6779 C   0  0  0  0  0  0
    2.5029   52.8936   25.1054 C   0  0  0  0  0  0
    1.1074   54.2684   23.5964 C   0  0  0  0  0  0
    2.3980   52.4469   22.5246 C   0  0  0  0  0  0
    2.7825   52.8441   21.2377 C   0  0  0  0  0  0
    2.6475   51.9916   20.1506 C   0  0  0  0  0  0
    2.1358   50.7051   20.3219 C   0  0  0  0  0  0
    1.7955   50.2716   21.6099 C   0  0  0  0  0  0
    1.9114   51.1398   22.6976 C   0  0  0  0  0  0
    1.8961   49.8492   19.1035 C   0  0  0  0  0  0
    1.4618   50.3676   18.0693 O   0  0  0  0  0  0
    2.2132   48.5400   19.2228 N   0  0  0  0  0  0
    2.0214   47.6737   18.1309 N   0  0  0  0  0  0
    0.7926   47.1789   17.8414 C   0  0  0  0  0  0
   -0.2088   47.3975   18.5345 O   0  0  0  0  0  0
    0.7025   46.2821   16.5820 C   0  0  2  0  0  0
    1.1210   46.8625   15.7570 H   0  0  0  0  0  0
   -0.7511   45.8135   16.2842 C   0  0  2  0  0  0
   -1.1715   45.3800   17.1976 H   0  0  0  0  0  0
   -0.7528   44.7946   15.1522 C   0  0  1  0  0  0
   -0.3345   45.1784   14.2174 H   0  0  0  0  0  0
    0.0851   43.6258   15.6831 C   0  0  2  0  0  0
   -0.2925   43.2558   16.6400 H   0  0  0  0  0  0
    1.4862   44.1674   15.8434 C   0  0  1  0  0  0
    1.8821   44.6059   14.9214 H   0  0  0  0  0  0
    1.5059   45.1150   16.8827 O   0  0  0  0  0  0
    2.1680   43.0116   16.1496 O   0  0  0  0  0  0
    1.6094   42.0053   15.3370 C   0  0  0  0  0  0
    0.4185   42.5559   14.8270 O   0  0  0  0  0  0
    1.3230   40.7598   16.1901 C   0  0  0  0  0  0
    2.6407   40.2035   16.7795 C   0  0  0  0  0  0
    3.6863   39.9126   15.6800 C   0  0  0  0  0  0
    3.9027   41.1209   14.7416 C   0  0  0  0  0  0
    2.5613   41.6535   14.1851 C   0  0  0  0  0  0
   -2.1484   44.6413   15.0097 O   0  0  0  0  0  0
   -2.7206   45.9063   15.2445 C   0  0  0  0  0  0
   -1.6728   46.7131   15.7275 O   0  0  0  0  0  0
   -3.8479   45.8031   16.2848 C   0  0  0  0  0  0
   -4.4283   47.2057   16.5780 C   0  0  0  0  0  0
   -4.9077   47.9068   15.2883 C   0  0  0  0  0  0
   -3.8214   47.9201   14.1904 C   0  0  0  0  0  0
   -3.2448   46.5072   13.9346 C   0  0  0  0  0  0
    3.6935   55.1065   24.4402 H   0  0  0  0  0  0
    3.5075   55.1401   22.7050 H   0  0  0  0  0  0
    4.5581   53.9401   23.4552 H   0  0  0  0  0  0
    1.7609   52.1229   25.3034 H   0  0  0  0  0  0
    3.4918   52.4985   25.3071 H   0  0  0  0  0  0
    2.3462   53.6602   25.8658 H   0  0  0  0  0  0
    0.2369   53.6122   23.5582 H   0  0  0  0  0  0
    0.9917   54.8966   24.4718 H   0  0  0  0  0  0
    1.1044   54.8976   22.7088 H   0  0  0  0  0  0
    3.1361   53.8425   21.0359 H   0  0  0  0  0  0
    2.9165   52.3499   19.1662 H   0  0  0  0  0  0
    1.3858   49.2858   21.7748 H   0  0  0  0  0  0
    1.5920   50.7821   23.6623 H   0  0  0  0  0  0
    2.3108   48.0553   20.1033 H   0  0  0  0  0  0
    2.8391   47.5993   17.5352 H   0  0  0  0  0  0
    0.6052   41.0060   16.9715 H   0  0  0  0  0  0
    0.8715   40.0003   15.5497 H   0  0  0  0  0  0
    3.0543   40.9162   17.4965 H   0  0  0  0  0  0
    2.4385   39.2924   17.3447 H   0  0  0  0  0  0
    4.6335   39.6155   16.1332 H   0  0  0  0  0  0
    3.3562   39.0561   15.0894 H   0  0  0  0  0  0
    4.4257   41.9140   15.2811 H   0  0  0  0  0  0
    4.5582   40.8353   13.9163 H   0  0  0  0  0  0
    2.0941   40.8744   13.5804 H   0  0  0  0  0  0
    2.6974   42.5171   13.5368 H   0  0  0  0  0  0
   -4.6368   45.1708   15.8736 H   0  0  0  0  0  0
   -3.4808   45.3187   17.1905 H   0  0  0  0  0  0
   -5.2551   47.1255   17.2844 H   0  0  0  0  0  0
   -3.6711   47.8194   17.0694 H   0  0  0  0  0  0
   -5.7944   47.3962   14.9114 H   0  0  0  0  0  0
   -5.2223   48.9280   15.5120 H   0  0  0  0  0  0
   -4.2332   48.3239   13.2646 H   0  0  0  0  0  0
   -3.0168   48.5979   14.4809 H   0  0  0  0  0  0
   -2.4420   46.5265   13.1954 H   0  0  0  0  0  0
   -4.0349   45.8617   13.5489 H   0  0  0  0  0  0
  1  2  1  0  0  0
  1 44  1  0  0  0
  1 45  1  0  0  0
  1 46  1  0  0  0
  2  3  1  0  0  0
  2  4  1  0  0  0
  2  5  1  0  0  0
  3 47  1  0  0  0
  3 48  1  0  0  0
  3 49  1  0  0  0
  4 50  1  0  0  0
  4 51  1  0  0  0
  4 52  1  0  0  0
  5 10  2  0  0  0
  5  6  1  0  0  0
  6  7  2  0  0  0
  6 53  1  0  0  0
  7  8  1  0  0  0
  7 54  1  0  0  0
  8  9  2  0  0  0
  8 11  1  0  0  0
  9 10  1  0  0  0
  9 55  1  0  0  0
 10 56  1  0  0  0
 11 12  2  0  0  0
 11 13  1  0  0  0
 13 14  1  0  0  0
 13 57  1  0  0  0
 14 15  1  0  0  0
 14 58  1  0  0  0
 15 16  2  0  0  0
 15 17  1  0  0  0
 17 18  1  0  0  0
 17 27  1  0  0  0
 17 19  1  0  0  0
 19 20  1  0  0  0
 19 38  1  0  0  0
 19 21  1  0  0  0
 21 22  1  0  0  0
 21 23  1  0  0  0
 21 36  1  0  0  0
 23 24  1  0  0  0
 23 30  1  0  0  0
 23 25  1  0  0  0
 25 26  1  0  0  0
 25 27  1  0  0  0
 25 28  1  0  0  0
 28 29  1  0  0  0
 29 35  1  0  0  0
 29 30  1  0  0  0
 29 31  1  0  0  0
 31 32  1  0  0  0
 31 59  1  0  0  0
 31 60  1  0  0  0
 32 33  1  0  0  0
 32 61  1  0  0  0
 32 62  1  0  0  0
 33 34  1  0  0  0
 33 63  1  0  0  0
 33 64  1  0  0  0
 34 35  1  0  0  0
 34 65  1  0  0  0
 34 66  1  0  0  0
 35 67  1  0  0  0
 35 68  1  0  0  0
 36 37  1  0  0  0
 37 43  1  0  0  0
 37 38  1  0  0  0
 37 39  1  0  0  0
 39 40  1  0  0  0
 39 69  1  0  0  0
 39 70  1  0  0  0
 40 41  1  0  0  0
 40 71  1  0  0  0
 40 72  1  0  0  0
 41 42  1  0  0  0
 41 73  1  0  0  0
 41 74  1  0  0  0
 42 43  1  0  0  0
 42 75  1  0  0  0
 42 76  1  0  0  0
 43 77  1  0  0  0
 43 78  1  0  0  0
M  END
> <i_i_glide_confnum>
81

> <i_i_glide_lignum>
5402

> <i_i_glide_posenum>
155

> <i_i_glide_rotatable_bonds>
6

> <i_m_Source_File_Index>
4916

> <b_m_subgroup_collapsed>
0

> <r_i_docking_score>
-2.76351

> <r_i_glide_ecoul>
-1.34577

> <r_i_glide_eff_state_penalty>
0

> <r_i_glide_einternal>
2.56005

> <r_i_glide_emodel>
-31.7391

> <r_i_glide_energy>
-26.3413

> <r_i_glide_erotb>
0.294896

> <r_i_glide_esite>
-0.240893

> <r_i_glide_evdw>
-24.9956

> <r_i_glide_gscore>
-2.76351

> <r_i_glide_hbond>
-0.0491098

> <r_i_glide_ligand_efficiency>
-0.072724

> <r_i_glide_ligand_efficiency_ln>
-0.595895

> <r_i_glide_ligand_efficiency_sa>
-0.244496

> <r_i_glide_lipo>
-1.27031

> <r_i_glide_metal>
0

> <r_i_glide_rewards>
-0.0464517

> <s_i_glide_gridfile>
wee1_glide-grid

> <s_m_Source_File>
wee1_decoys_glide_SP.sdf

> <s_m_Source_Path>
/Users/zhangxujun/Desktop

> <s_m_entry_id>
5191

> <s_m_entry_name>
wee1_decoys_glide_SP.4916

> <s_m_subgroup_title>
wee1_decoys_glide_SP

> <s_m_subgroupid>
wee1_decoys_glide_SP


$$$$
