ZINC66790219_4609
                    3D
 Schrodinger Suite 2024-2.
 53 55  0  0  1  0            999 V2000
    3.9047   52.2504   29.6965 C   0  0  0  0  0  0
    4.0188   53.1744   28.4790 C   0  0  1  0  0  0
    3.5184   52.7446   27.6102 H   0  0  0  0  0  0
    3.8507   54.6431   28.7413 C   0  0  0  0  0  0
    5.2153   54.1156   28.3089 C   0  0  2  0  0  0
    6.0263   54.0945   29.0358 H   0  0  0  0  0  0
    5.6540   54.4869   26.8748 C   0  0  0  0  0  0
    6.7037   55.1111   26.7276 O   0  0  0  0  0  0
    4.8524   54.0968   25.8638 N   0  0  0  0  0  0
    4.9554   54.2460   24.4646 C   0  0  0  0  0  0
    6.1576   54.6427   23.8503 C   0  0  0  0  0  0
    6.2429   54.7682   22.4697 C   0  0  0  0  0  0
    5.1324   54.4961   21.6788 C   0  0  0  0  0  0
    3.9395   54.0761   22.2655 C   0  0  0  0  0  0
    3.8252   53.9270   23.6603 C   0  0  0  0  0  0
    2.5333   53.3656   24.2521 C   0  0  0  0  0  0
    2.1623   53.6970   25.3839 O   0  0  0  0  0  0
    1.9008   52.4250   23.5066 N   0  0  0  0  0  0
    0.8324   51.6845   24.0418 N   0  0  0  0  0  0
   -0.4201   52.1846   24.1130 C   0  0  0  0  0  0
   -0.7430   53.2966   23.6935 O   0  0  0  0  0  0
   -1.4695   51.2522   24.7468 C   0  0  0  0  0  0
   -2.9615   51.6182   24.4952 C   0  0  0  0  0  0
   -3.8782   50.3958   24.7392 C   0  0  0  0  0  0
   -5.3500   50.7148   24.4028 C   0  0  0  0  0  0
   -5.8620   51.9296   25.2085 C   0  0  0  0  0  0
   -4.9271   53.1533   25.0877 C   0  0  0  0  0  0
   -3.4611   52.7809   25.3897 C   0  0  0  0  0  0
    5.2131   54.6351   20.3359 F   0  0  0  0  0  0
    4.3040   52.7035   30.6032 H   0  0  0  0  0  0
    2.8637   51.9956   29.8906 H   0  0  0  0  0  0
    4.4445   51.3195   29.5238 H   0  0  0  0  0  0
    3.7327   54.9962   29.7637 H   0  0  0  0  0  0
    3.2444   55.2304   28.0498 H   0  0  0  0  0  0
    3.9762   53.6789   26.1449 H   0  0  0  0  0  0
    7.0502   54.8535   24.4176 H   0  0  0  0  0  0
    7.1669   55.0840   22.0109 H   0  0  0  0  0  0
    3.1051   53.8649   21.6108 H   0  0  0  0  0  0
    1.9734   52.3472   22.5015 H   0  0  0  0  0  0
    1.1126   50.7890   24.4190 H   0  0  0  0  0  0
   -1.2808   51.1833   25.8198 H   0  0  0  0  0  0
   -1.2821   50.2496   24.3559 H   0  0  0  0  0  0
   -3.0898   51.9105   23.4489 H   0  0  0  0  0  0
   -3.7806   50.0540   25.7727 H   0  0  0  0  0  0
   -3.5430   49.5519   24.1337 H   0  0  0  0  0  0
   -5.9768   49.8445   24.6078 H   0  0  0  0  0  0
   -5.4474   50.9221   23.3354 H   0  0  0  0  0  0
   -5.9493   51.6491   26.2601 H   0  0  0  0  0  0
   -6.8678   52.1984   24.8817 H   0  0  0  0  0  0
   -5.2574   53.9412   25.7690 H   0  0  0  0  0  0
   -5.0011   53.5731   24.0828 H   0  0  0  0  0  0
   -2.8360   53.6584   25.2486 H   0  0  0  0  0  0
   -3.3415   52.5209   26.4432 H   0  0  0  0  0  0
  1  2  1  0  0  0
  1 30  1  0  0  0
  1 31  1  0  0  0
  1 32  1  0  0  0
  2  3  1  0  0  0
  2  5  1  0  0  0
  2  4  1  0  0  0
  4  5  1  0  0  0
  4 33  1  0  0  0
  4 34  1  0  0  0
  5  6  1  0  0  0
  5  7  1  0  0  0
  7  8  2  0  0  0
  7  9  1  0  0  0
  9 10  1  0  0  0
  9 35  1  0  0  0
 10 15  2  0  0  0
 10 11  1  0  0  0
 11 12  2  0  0  0
 11 36  1  0  0  0
 12 13  1  0  0  0
 12 37  1  0  0  0
 13 14  2  0  0  0
 13 29  1  0  0  0
 14 15  1  0  0  0
 14 38  1  0  0  0
 15 16  1  0  0  0
 16 17  2  0  0  0
 16 18  1  0  0  0
 18 19  1  0  0  0
 18 39  1  0  0  0
 19 20  1  0  0  0
 19 40  1  0  0  0
 20 21  2  0  0  0
 20 22  1  0  0  0
 22 23  1  0  0  0
 22 41  1  0  0  0
 22 42  1  0  0  0
 23 28  1  0  0  0
 23 24  1  0  0  0
 23 43  1  0  0  0
 24 25  1  0  0  0
 24 44  1  0  0  0
 24 45  1  0  0  0
 25 26  1  0  0  0
 25 46  1  0  0  0
 25 47  1  0  0  0
 26 27  1  0  0  0
 26 48  1  0  0  0
 26 49  1  0  0  0
 27 28  1  0  0  0
 27 50  1  0  0  0
 27 51  1  0  0  0
 28 52  1  0  0  0
 28 53  1  0  0  0
M  END
> <i_i_glide_confnum>
70

> <i_i_glide_lignum>
4610

> <i_i_glide_posenum>
328

> <i_i_glide_rotatable_bonds>
9

> <i_m_Source_File_Index>
2562

> <b_m_subgroup_collapsed>
0

> <r_i_docking_score>
-6.18146

> <r_i_glide_ecoul>
-3.69951

> <r_i_glide_eff_state_penalty>
0

> <r_i_glide_einternal>
5.75636

> <r_i_glide_emodel>
-61.2437

> <r_i_glide_energy>
-45.4301

> <r_i_glide_erotb>
1.09806

> <r_i_glide_esite>
0

> <r_i_glide_evdw>
-41.7306

> <r_i_glide_gscore>
-6.18146

> <r_i_glide_hbond>
-0.260737

> <r_i_glide_ligand_efficiency>
-0.228943

> <r_i_glide_ligand_efficiency_ln>
-1.43894

> <r_i_glide_ligand_efficiency_sa>
-0.686828

> <r_i_glide_lipo>
-2.59048

> <r_i_glide_metal>
0

> <r_i_glide_rewards>
-1.78684

> <s_i_glide_gridfile>
wee1_glide-grid

> <s_m_Source_File>
wee1_decoys_glide_SP.sdf

> <s_m_Source_Path>
/Users/zhangxujun/Desktop

> <s_m_entry_id>
2837

> <s_m_entry_name>
wee1_decoys_glide_SP.2562

> <s_m_subgroup_title>
wee1_decoys_glide_SP

> <s_m_subgroupid>
wee1_decoys_glide_SP


$$$$
