@<TRIPOS>MOLECULE
ZINC07739930_6206
51   53    1
SMALL
USER_CHARGES


@<TRIPOS>ATOM
      1 C1          5.5441   54.5691   27.8641 C.3       1 UNK         0.0000 
      2 O2          6.2789   54.7672   26.6639 O.3       1 UNK         0.0000 
      3 C3          5.6666   54.5123   25.4524 C.ar      1 UNK         0.0000 
      4 C4          6.4727   54.6091   24.3247 C.ar      1 UNK         0.0000 
      5 C5          5.9707   54.3358   23.0590 C.ar      1 UNK         0.0000 
      6 C6          4.6275   53.9758   22.8818 C.ar      1 UNK         0.0000 
      7 C7          3.7866   53.9058   24.0091 C.ar      1 UNK         0.0000 
      8 C8          4.3172   54.1672   25.2858 C.ar      1 UNK         0.0000 
      9 O9          2.4619   53.5671   23.7929 O.3       1 UNK         0.0000 
     10 C10         1.6203   53.2628   24.9003 C.3       1 UNK         0.0000 
     11 C11         4.0463   53.6582   21.4915 C.3       1 UNK         0.0000 
     12 H12         3.2817   54.4102   21.2810 H         1 UNK         0.0000 
     13 C13         3.4238   52.2624   21.2994 C.3       1 UNK         0.0000 
     14 C14         3.9006   51.7334   19.9494 C.3       1 UNK         0.0000 
     15 C15         4.4807   52.9245   19.2022 C.3       1 UNK         0.0000 
     16 N16         5.0545   53.8183   20.3216 N.4       1 UNK         0.0000 
     17 C17         5.2945   55.2962   19.9167 C.3       1 UNK         0.0000 
     18 C18         6.7468   55.5688   19.5107 C.2       1 UNK         0.0000 
     19 O19         7.3180   56.4980   20.0805 O.2       1 UNK         0.0000 
     20 N20         7.3062   54.7729   18.5713 N.am      1 UNK         0.0000 
     21 C21         8.5702   54.8982   17.9816 C.2       1 UNK         0.0000 
     22 C22         9.2352   53.9131   17.2176 C.2       1 UNK         0.0000 
     23 C23        10.4957   54.3824   16.7779 C.2       1 UNK         0.0000 
     24 C24        10.7876   55.6752   17.1719 C.2       1 UNK         0.0000 
     25 S25         9.5050   56.3777   18.0819 S.3       1 UNK         0.0000 
     26 C26         8.6794   52.6115   16.8819 C.2       1 UNK         0.0000 
     27 O27         7.5043   52.3305   17.0987 O.2       1 UNK         0.0000 
     28 N28         9.5055   51.7250   16.3219 N.am      1 UNK         0.0000 
     29 H29         6.1925   54.7649   28.7183 H         1 UNK         0.0000 
     30 H30         4.6995   55.2537   27.9308 H         1 UNK         0.0000 
     31 H31         5.1902   53.5405   27.9529 H         1 UNK         0.0000 
     32 H32         7.5050   54.8919   24.4379 H         1 UNK         0.0000 
     33 H33         6.6564   54.4178   22.2319 H         1 UNK         0.0000 
     34 H34         3.6830   54.1004   26.1540 H         1 UNK         0.0000 
     35 H35         0.6274   52.9970   24.5349 H         1 UNK         0.0000 
     36 H36         2.0017   52.4115   25.4646 H         1 UNK         0.0000 
     37 H37         1.5047   54.1112   25.5720 H         1 UNK         0.0000 
     38 H38         2.3344   52.3218   21.3294 H         1 UNK         0.0000 
     39 H39         3.7343   51.5700   22.0816 H         1 UNK         0.0000 
     40 H40         3.0984   51.2617   19.3792 H         1 UNK         0.0000 
     41 H41         4.6736   50.9750   20.0819 H         1 UNK         0.0000 
     42 H42         3.7092   53.5062   18.6948 H         1 UNK         0.0000 
     43 H43         5.2643   52.6758   18.4842 H         1 UNK         0.0000 
     44 H44         5.1044   55.8590   20.8279 H         1 UNK         0.0000 
     45 H45         4.5662   55.5846   19.1568 H         1 UNK         0.0000 
     46 H46         6.8019   53.9453   18.2814 H         1 UNK         0.0000 
     47 H47        11.1812   53.8032   16.1757 H         1 UNK         0.0000 
     48 H48        11.6804   56.2482   16.9690 H         1 UNK         0.0000 
     49 H49        10.4906   51.9157   16.2188 H         1 UNK         0.0000 
     50 H50         9.1430   50.8179   16.0682 H         1 UNK         0.0000 
     51 H51         5.9263   53.4116   20.6279 H         1 UNK         0.0000 
@<TRIPOS>BOND
     1    1    2 1    
     2    1   29 1    
     3    1   30 1    
     4    1   31 1    
     5    2    3 1    
     6    3    8 ar   
     7    3    4 ar   
     8    4    5 ar   
     9    4   32 1    
    10    5    6 ar   
    11    5   33 1    
    12    6    7 ar   
    13    6   11 1    
    14    7    8 ar   
    15    7    9 1    
    16    8   34 1    
    17    9   10 1    
    18   10   35 1    
    19   10   36 1    
    20   10   37 1    
    21   11   12 1    
    22   11   16 1    
    23   11   13 1    
    24   13   14 1    
    25   13   38 1    
    26   13   39 1    
    27   14   15 1    
    28   14   40 1    
    29   14   41 1    
    30   15   16 1    
    31   15   42 1    
    32   15   43 1    
    33   16   17 1    
    34   16   51 1    
    35   17   18 1    
    36   17   44 1    
    37   17   45 1    
    38   18   19 2    
    39   18   20 am   BACKBONE|DICT|INTERRES
    40   20   21 am   BACKBONE|DICT|INTERRES
    41   20   46 1    
    42   21   25 1    
    43   21   22 2    
    44   22   23 1    
    45   22   26 1    
    46   23   24 2    
    47   23   47 1    
    48   24   25 1    
    49   24   48 1    
    50   26   27 2    
    51   26   28 am   BACKBONE|DICT|INTERRES
    52   28   49 1    
    53   28   50 1    
@<TRIPOS>SUBSTRUCTURE
     1 UNK         1 GROUP             0       ****    0 ROOT    
