@<TRIPOS>MOLECULE
ZINC04984416_1568
34   35    1
SMALL
USER_CHARGES


@<TRIPOS>ATOM
      1 C1          6.3084   54.4970   23.7852 C.ar      1 UNK         0.0000 
      2 C2          6.1077   54.4550   25.1612 C.ar      1 UNK         0.0000 
      3 C3          4.8276   54.2435   25.6651 C.ar      1 UNK         0.0000 
      4 C4          3.7475   54.0827   24.8001 C.ar      1 UNK         0.0000 
      5 C5          3.9510   54.1040   23.4220 C.ar      1 UNK         0.0000 
      6 C6          5.2381   54.3270   22.9047 C.ar      1 UNK         0.0000 
      7 O7          5.5438   54.4281   21.5606 O.3       1 UNK         0.0000 
      8 C8          4.5543   54.3132   20.5727 C.3       1 UNK         0.0000 
      9 H9          3.6631   54.8820   20.8527 H         1 UNK         0.0000 
     10 C10         4.2983   52.8149   20.2777 C.3       1 UNK         0.0000 
     11 H11         3.8406   52.3729   21.1640 H         1 UNK         0.0000 
     12 C12         3.3060   52.6818   19.1000 C.3       1 UNK         0.0000 
     13 H13         2.3592   53.1099   19.4345 H         1 UNK         0.0000 
     14 C14         3.7609   53.4996   17.8682 C.3       1 UNK         0.0000 
     15 H15         2.9369   53.5188   17.1541 H         1 UNK         0.0000 
     16 C16         4.0835   54.9558   18.3146 C.3       1 UNK         0.0000 
     17 H17         3.1560   55.4090   18.6663 H         1 UNK         0.0000 
     18 O18         5.0159   54.9580   19.4093 O.3       1 UNK         0.0000 
     19 C19         4.5920   55.8874   17.1881 C.3       1 UNK         0.0000 
     20 O20         5.8368   55.4589   16.6728 O.3       1 UNK         0.0000 
     21 O21         4.8414   52.8973   17.1666 O.3       1 UNK         0.0000 
     22 O22         2.9693   51.3344   18.8050 O.3       1 UNK         0.0000 
     23 O23         5.5040   52.0965   20.0816 O.3       1 UNK         0.0000 
     24 Br24        4.5610   54.1467   27.5482 Br        1 UNK         0.0000 
     25 H25         7.3023   54.6701   23.3974 H         1 UNK         0.0000 
     26 H26         6.9424   54.5748   25.8346 H         1 UNK         0.0000 
     27 H27         2.7591   53.9058   25.1968 H         1 UNK         0.0000 
     28 H28         3.0958   53.9669   22.7782 H         1 UNK         0.0000 
     29 H29         4.7000   56.9100   17.5516 H         1 UNK         0.0000 
     30 H30         3.8684   55.9215   16.3719 H         1 UNK         0.0000 
     31 H31         5.8078   54.4926   16.6398 H         1 UNK         0.0000 
     32 H32         4.7091   51.9380   17.1360 H         1 UNK         0.0000 
     33 H33         3.7515   50.8578   18.4820 H         1 UNK         0.0000 
     34 H34         5.4455   51.5439   19.2817 H         1 UNK         0.0000 
@<TRIPOS>BOND
     1    1    6 ar   
     2    1    2 ar   
     3    1   25 1    
     4    2    3 ar   
     5    2   26 1    
     6    3    4 ar   
     7    3   24 1    
     8    4    5 ar   
     9    4   27 1    
    10    5    6 ar   
    11    5   28 1    
    12    6    7 1    
    13    7    8 1    
    14    8    9 1    
    15    8   18 1    
    16    8   10 1    
    17   10   11 1    
    18   10   12 1    
    19   10   23 1    
    20   12   13 1    
    21   12   14 1    
    22   12   22 1    
    23   14   15 1    
    24   14   16 1    
    25   14   21 1    
    26   16   17 1    
    27   16   18 1    
    28   16   19 1    
    29   19   20 1    
    30   19   29 1    
    31   19   30 1    
    32   20   31 1    
    33   21   32 1    
    34   22   33 1    
    35   23   34 1    
@<TRIPOS>SUBSTRUCTURE
     1 UNK         1 GROUP             0       ****    0 ROOT    
