@<TRIPOS>MOLECULE
ZINC09791384_2517
57   59    1
SMALL
USER_CHARGES


@<TRIPOS>ATOM
      1 C1          1.0776   49.5971   20.1710 C.3       1 UNK         0.0000 
      2 C2          0.3199   50.5843   21.0900 C.3       1 UNK         0.0000 
      3 H3         -0.3890   51.0863   20.4293 H         1 UNK         0.0000 
      4 C4         -0.4968   49.8580   22.1634 C.ar      1 UNK         0.0000 
      5 C5         -1.8837   49.7644   22.0120 C.ar      1 UNK         0.0000 
      6 C6         -2.6401   49.0172   22.9075 C.ar      1 UNK         0.0000 
      7 C7         -2.0137   48.3556   23.9645 C.ar      1 UNK         0.0000 
      8 C8         -0.6347   48.4858   24.1571 C.ar      1 UNK         0.0000 
      9 C9          0.1222   49.2348   23.2549 C.ar      1 UNK         0.0000 
     10 S10        -2.9680   47.2318   24.9840 S.o2      1 UNK         0.0000 
     11 O11        -4.2553   47.0222   24.3139 O.2       1 UNK         0.0000 
     12 O12        -2.0956   46.0967   25.2877 O.2       1 UNK         0.0000 
     13 N13        -3.2956   48.0499   26.4817 N.pl3     1 UNK         0.0000 
     14 N14         1.1152   51.7121   21.5973 N.am      1 UNK         0.0000 
     15 C15         2.4011   51.7168   21.9823 C.2       1 UNK         0.0000 
     16 O16         3.1043   50.7149   22.0816 O.2       1 UNK         0.0000 
     17 N17         2.8427   52.9679   22.1705 N.am      1 UNK         0.0000 
     18 C18         4.2400   53.4399   22.1280 C.3       1 UNK         0.0000 
     19 H19         4.8824   52.5994   21.8500 H         1 UNK         0.0000 
     20 C20         4.7428   53.9217   23.5073 C.ar      1 UNK         0.0000 
     21 C21         6.1193   54.0964   23.7217 C.ar      1 UNK         0.0000 
     22 C22         6.6154   54.4617   24.9714 C.ar      1 UNK         0.0000 
     23 C23         5.7435   54.5855   26.0481 C.ar      1 UNK         0.0000 
     24 C24         4.3671   54.3974   25.8648 C.ar      1 UNK         0.0000 
     25 C25         3.8704   54.0968   24.5983 C.ar      1 UNK         0.0000 
     26 O26         3.4656   54.3995   26.9118 O.3       1 UNK         0.0000 
     27 C27         4.0160   54.6589   28.2114 C.3       1 UNK         0.0000 
     28 C28         5.5190   54.3066   28.3473 C.3       1 UNK         0.0000 
     29 O29         6.2768   54.8827   27.2810 O.3       1 UNK         0.0000 
     30 C30         4.3622   54.5127   21.0022 C.3       1 UNK         0.0000 
     31 C31         5.7322   55.2079   20.8294 C.3       1 UNK         0.0000 
     32 C32         3.9119   53.9817   19.6176 C.3       1 UNK         0.0000 
     33 H33         0.3848   48.9418   19.6429 H         1 UNK         0.0000 
     34 H34         1.6649   50.1240   19.4173 H         1 UNK         0.0000 
     35 H35         1.7617   48.9588   20.7317 H         1 UNK         0.0000 
     36 H36        -2.3792   50.2342   21.1752 H         1 UNK         0.0000 
     37 H37        -3.7044   48.9193   22.7480 H         1 UNK         0.0000 
     38 H38        -0.1438   47.9744   24.9754 H         1 UNK         0.0000 
     39 H39         1.1943   49.2941   23.3839 H         1 UNK         0.0000 
     40 H40        -2.4897   48.0987   27.1396 H         1 UNK         0.0000 
     41 H41        -3.8009   48.9324   26.4000 H         1 UNK         0.0000 
     42 H42         0.5961   52.5635   21.7463 H         1 UNK         0.0000 
     43 H43         2.1532   53.7011   22.2252 H         1 UNK         0.0000 
     44 H44         6.8245   53.9336   22.9205 H         1 UNK         0.0000 
     45 H45         7.6757   54.5960   25.1039 H         1 UNK         0.0000 
     46 H46         2.8078   53.9387   24.4959 H         1 UNK         0.0000 
     47 H47         3.8325   55.6964   28.4825 H         1 UNK         0.0000 
     48 H48         3.4451   54.0703   28.9298 H         1 UNK         0.0000 
     49 H49         5.9050   54.6802   29.2938 H         1 UNK         0.0000 
     50 H50         5.6420   53.2213   28.3416 H         1 UNK         0.0000 
     51 H51         3.6662   55.2921   21.3086 H         1 UNK         0.0000 
     52 H52         6.5267   54.4969   20.6101 H         1 UNK         0.0000 
     53 H53         5.7049   55.9207   20.0040 H         1 UNK         0.0000 
     54 H54         6.0215   55.7839   21.7053 H         1 UNK         0.0000 
     55 H55         4.5824   53.1991   19.2590 H         1 UNK         0.0000 
     56 H56         2.9085   53.5596   19.6288 H         1 UNK         0.0000 
     57 H57         3.9041   54.7765   18.8709 H         1 UNK         0.0000 
@<TRIPOS>BOND
     1    1    2 1    
     2    1   33 1    
     3    1   34 1    
     4    1   35 1    
     5    2    3 1    
     6    2    4 1    
     7    2   14 1    
     8    4    9 ar   
     9    4    5 ar   
    10    5    6 ar   
    11    5   36 1    
    12    6    7 ar   
    13    6   37 1    
    14    7    8 ar   
    15    7   10 1    
    16    8    9 ar   
    17    8   38 1    
    18    9   39 1    
    19   10   11 2    
    20   10   12 2    
    21   10   13 1    
    22   13   40 1    
    23   13   41 1    
    24   14   15 am   BACKBONE|DICT|INTERRES
    25   14   42 1    
    26   15   16 2    
    27   15   17 am   BACKBONE|DICT|INTERRES
    28   17   18 1    
    29   17   43 1    
    30   18   19 1    
    31   18   20 1    
    32   18   30 1    
    33   20   25 ar   
    34   20   21 ar   
    35   21   22 ar   
    36   21   44 1    
    37   22   23 ar   
    38   22   45 1    
    39   23   29 1    
    40   23   24 ar   
    41   24   25 ar   
    42   24   26 1    
    43   25   46 1    
    44   26   27 1    
    45   27   28 1    
    46   27   47 1    
    47   27   48 1    
    48   28   29 1    
    49   28   49 1    
    50   28   50 1    
    51   30   31 1    
    52   30   32 1    
    53   30   51 1    
    54   31   52 1    
    55   31   53 1    
    56   31   54 1    
    57   32   55 1    
    58   32   56 1    
    59   32   57 1    
@<TRIPOS>SUBSTRUCTURE
     1 UNK         1 GROUP             0       ****    0 ROOT    
