@<TRIPOS>MOLECULE
ZINC02544093_813
46   48    1
SMALL
USER_CHARGES


@<TRIPOS>ATOM
      1 C1          6.6617   54.8607   23.3790 C.ar      1 UNK         0.0000 
      2 C2          5.6043   54.0315   23.0291 C.ar      1 UNK         0.0000 
      3 C3          4.5800   53.8064   23.9428 C.ar      1 UNK         0.0000 
      4 C4          4.6002   54.4078   25.2129 C.ar      1 UNK         0.0000 
      5 C5          5.6830   55.2258   25.5532 C.ar      1 UNK         0.0000 
      6 C6          6.7030   55.4554   24.6351 C.ar      1 UNK         0.0000 
      7 C7          3.4789   54.2138   26.1932 C.2       1 UNK         0.0000 
      8 O8          3.3435   54.8931   27.2145 O.2       1 UNK         0.0000 
      9 O9          2.6709   53.1780   25.8254 O.3       1 UNK         0.0000 
     10 C10         1.4653   52.8333   26.4172 C.ar      1 UNK         0.0000 
     11 C11         1.2741   52.8583   27.8101 C.ar      1 UNK         0.0000 
     12 C12         0.0826   52.4104   28.3755 C.ar      1 UNK         0.0000 
     13 C13        -0.9287   51.9162   27.5590 C.ar      1 UNK         0.0000 
     14 C14        -0.7504   51.8663   26.1787 C.ar      1 UNK         0.0000 
     15 C15         0.4359   52.3204   25.5885 C.ar      1 UNK         0.0000 
     16 C16         0.5934   52.1662   24.1333 C.2       1 UNK         0.0000 
     17 N17         1.0764   53.0857   23.3833 N.2       1 UNK         0.0000 
     18 N18         1.6416   52.8117   22.1497 N.am      1 UNK         0.0000 
     19 C19         2.3076   51.6855   21.7454 C.2       1 UNK         0.0000 
     20 O20         2.1487   50.5564   22.2195 O.2       1 UNK         0.0000 
     21 C21         3.4035   51.9369   20.7718 C.2       1 UNK         0.0000 
     22 O22         4.4554   51.3044   20.8816 O.2       1 UNK         0.0000 
     23 N23         3.1621   52.8991   19.8435 N.am      1 UNK         0.0000 
     24 C24         4.0592   53.5216   18.9483 C.ar      1 UNK         0.0000 
     25 C25         3.5047   54.4539   18.0674 C.ar      1 UNK         0.0000 
     26 C26         4.3155   55.1606   17.1829 C.ar      1 UNK         0.0000 
     27 C27         5.6890   54.9318   17.1720 C.ar      1 UNK         0.0000 
     28 C28         6.2560   53.9987   18.0339 C.ar      1 UNK         0.0000 
     29 C29         5.4445   53.2968   18.9215 C.ar      1 UNK         0.0000 
     30 Br30       -2.5545   51.2970   28.3292 Br        1 UNK         0.0000 
     31 H31         7.4605   55.0412   22.6747 H         1 UNK         0.0000 
     32 H32         5.5800   53.5627   22.0565 H         1 UNK         0.0000 
     33 H33         3.7778   53.1486   23.6540 H         1 UNK         0.0000 
     34 H34         5.7392   55.6848   26.5293 H         1 UNK         0.0000 
     35 H35         7.5333   56.0950   24.8831 H         1 UNK         0.0000 
     36 H36         2.0590   53.1982   28.4681 H         1 UNK         0.0000 
     37 H37        -0.0515   52.4286   29.4478 H         1 UNK         0.0000 
     38 H38        -1.5440   51.4528   25.5722 H         1 UNK         0.0000 
     39 H39         0.3158   51.1862   23.7546 H         1 UNK         0.0000 
     40 H40         1.8883   53.6652   21.6658 H         1 UNK         0.0000 
     41 H41         2.2327   53.2904   19.8047 H         1 UNK         0.0000 
     42 H42         2.4413   54.6466   18.0650 H         1 UNK         0.0000 
     43 H43         3.8833   55.8859   16.5107 H         1 UNK         0.0000 
     44 H44         6.3189   55.4768   16.4841 H         1 UNK         0.0000 
     45 H45         7.3209   53.8169   18.0141 H         1 UNK         0.0000 
     46 H46         5.9129   52.5771   19.5689 H         1 UNK         0.0000 
@<TRIPOS>BOND
     1    1    6 ar   
     2    1    2 ar   
     3    1   31 1    
     4    2    3 ar   
     5    2   32 1    
     6    3    4 ar   
     7    3   33 1    
     8    4    5 ar   
     9    4    7 1    
    10    5    6 ar   
    11    5   34 1    
    12    6   35 1    
    13    7    8 2    
    14    7    9 1    
    15    9   10 1    
    16   10   15 ar   
    17   10   11 ar   
    18   11   12 ar   
    19   11   36 1    
    20   12   13 ar   
    21   12   37 1    
    22   13   14 ar   
    23   13   30 1    
    24   14   15 ar   
    25   14   38 1    
    26   15   16 1    
    27   16   17 2    
    28   16   39 1    
    29   17   18 1    
    30   18   19 am   BACKBONE|DICT|INTERRES
    31   18   40 1    
    32   19   20 2    
    33   19   21 1    
    34   21   22 2    
    35   21   23 am   BACKBONE|DICT|INTERRES
    36   23   24 1    
    37   23   41 1    
    38   24   29 ar   
    39   24   25 ar   
    40   25   26 ar   
    41   25   42 1    
    42   26   27 ar   
    43   26   43 1    
    44   27   28 ar   
    45   27   44 1    
    46   28   29 ar   
    47   28   45 1    
    48   29   46 1    
@<TRIPOS>SUBSTRUCTURE
     1 UNK         1 GROUP             0       ****    0 ROOT    
