@<TRIPOS>MOLECULE
ZINC45403713_1398
50   53    1
SMALL
USER_CHARGES


@<TRIPOS>ATOM
      1 C1          6.5506   54.2578   27.0833 C.3       1 UNK         0.0000 
      2 C2          5.0289   54.5212   26.9178 C.3       1 UNK         0.0000 
      3 H3          4.9062   55.6011   26.9711 H         1 UNK         0.0000 
      4 C4          4.1773   53.9268   28.0517 C.ar      1 UNK         0.0000 
      5 C5          4.6735   52.8973   28.8814 C.ar      1 UNK         0.0000 
      6 C6          3.9038   52.3544   29.9155 C.ar      1 UNK         0.0000 
      7 C7          2.6183   52.8450   30.0824 C.ar      1 UNK         0.0000 
      8 C8          2.1208   53.8468   29.2997 C.ar      1 UNK         0.0000 
      9 C9          2.8773   54.4235   28.2814 C.ar      1 UNK         0.0000 
     10 O10         0.8668   54.1596   29.7256 O.3       1 UNK         0.0000 
     11 C11         0.5178   53.1512   30.6420 C.3       1 UNK         0.0000 
     12 O12         1.6991   52.4970   31.0189 O.3       1 UNK         0.0000 
     13 N13         4.4827   54.0969   25.6222 N.am      1 UNK         0.0000 
     14 C14         5.0002   54.2953   24.3987 C.2       1 UNK         0.0000 
     15 O15         6.0491   54.8966   24.1721 O.2       1 UNK         0.0000 
     16 N16         4.2631   53.6968   23.4493 N.am      1 UNK         0.0000 
     17 C17         4.7307   53.3572   22.1022 C.3       1 UNK         0.0000 
     18 H18         5.7843   53.0804   22.1980 H         1 UNK         0.0000 
     19 C19         3.9821   52.1495   21.5175 C.3       1 UNK         0.0000 
     20 C20         4.4323   51.8865   20.0910 C.3       1 UNK         0.0000 
     21 C21         4.3179   53.1239   19.1905 C.3       1 UNK         0.0000 
     22 N22         5.0499   54.2947   19.7142 N.pl3     1 UNK         0.0000 
     23 C23         4.6736   54.5510   21.1223 C.3       1 UNK         0.0000 
     24 C24         5.4405   55.3440   18.8691 C.ar      1 UNK         0.0000 
     25 N25         5.3963   55.1320   17.5205 N.ar      1 UNK         0.0000 
     26 C26         5.7990   56.1464   16.7125 C.ar      1 UNK         0.0000 
     27 C27         6.2610   57.3624   17.2157 C.ar      1 UNK         0.0000 
     28 C28         6.3040   57.4907   18.6032 C.ar      1 UNK         0.0000 
     29 N29         5.9069   56.4955   19.4393 N.ar      1 UNK         0.0000 
     30 H30         6.8914   54.4968   28.0911 H         1 UNK         0.0000 
     31 H31         6.8070   53.2180   26.8780 H         1 UNK         0.0000 
     32 H32         7.1395   54.8752   26.4080 H         1 UNK         0.0000 
     33 H33         5.6626   52.4974   28.7281 H         1 UNK         0.0000 
     34 H34         4.3076   51.5858   30.5555 H         1 UNK         0.0000 
     35 H35         2.4753   55.2260   27.6819 H         1 UNK         0.0000 
     36 H36         0.0111   53.5613   31.5179 H         1 UNK         0.0000 
     37 H37        -0.1481   52.4312   30.1597 H         1 UNK         0.0000 
     38 H38         3.5494   53.7178   25.6658 H         1 UNK         0.0000 
     39 H39         3.2694   53.6206   23.6009 H         1 UNK         0.0000 
     40 H40         4.1530   51.2380   22.0817 H         1 UNK         0.0000 
     41 H41         2.9074   52.3409   21.5132 H         1 UNK         0.0000 
     42 H42         5.4605   51.5245   20.0817 H         1 UNK         0.0000 
     43 H43         3.8296   51.0761   19.6808 H         1 UNK         0.0000 
     44 H44         4.7158   52.8370   18.2162 H         1 UNK         0.0000 
     45 H45         3.2732   53.4001   19.0369 H         1 UNK         0.0000 
     46 H46         3.6412   54.8966   21.1154 H         1 UNK         0.0000 
     47 H47         5.2597   55.3614   21.5547 H         1 UNK         0.0000 
     48 H48         5.7417   55.9686   15.6484 H         1 UNK         0.0000 
     49 H49         6.5681   58.1688   16.5646 H         1 UNK         0.0000 
     50 H50         6.6448   58.4090   19.0588 H         1 UNK         0.0000 
@<TRIPOS>BOND
     1    1    2 1    
     2    1   30 1    
     3    1   31 1    
     4    1   32 1    
     5    2    3 1    
     6    2    4 1    
     7    2   13 1    
     8    4    9 ar   
     9    4    5 ar   
    10    5    6 ar   
    11    5   33 1    
    12    6    7 ar   
    13    6   34 1    
    14    7   12 1    
    15    7    8 ar   
    16    8    9 ar   
    17    8   10 1    
    18    9   35 1    
    19   10   11 1    
    20   11   12 1    
    21   11   36 1    
    22   11   37 1    
    23   13   14 am   BACKBONE|DICT|INTERRES
    24   13   38 1    
    25   14   15 2    
    26   14   16 am   BACKBONE|DICT|INTERRES
    27   16   17 1    
    28   16   39 1    
    29   17   18 1    
    30   17   23 1    
    31   17   19 1    
    32   19   20 1    
    33   19   40 1    
    34   19   41 1    
    35   20   21 1    
    36   20   42 1    
    37   20   43 1    
    38   21   22 1    
    39   21   44 1    
    40   21   45 1    
    41   22   23 1    
    42   22   24 1    
    43   23   46 1    
    44   23   47 1    
    45   24   29 ar   
    46   24   25 ar   
    47   25   26 ar   
    48   26   27 ar   
    49   26   48 1    
    50   27   28 ar   
    51   27   49 1    
    52   28   29 ar   
    53   28   50 1    
@<TRIPOS>SUBSTRUCTURE
     1 UNK         1 GROUP             0       ****    0 ROOT    
