@<TRIPOS>MOLECULE
ZINC39686734_397
75   79    1
SMALL
USER_CHARGES


@<TRIPOS>ATOM
      1 C1          0.3017   52.6956   27.3940 C.3       1 UNK         0.0000 
      2 C2          1.6675   53.0357   26.8429 C.2       1 UNK         0.0000 
      3 C3          2.1885   53.3456   25.5920 C.2       1 UNK         0.0000 
      4 C4          3.5340   53.6988   25.8480 C.2       1 UNK         0.0000 
      5 N5          3.8198   53.5422   27.1286 N.2       1 UNK         0.0000 
      6 O6          2.6549   53.1221   27.7628 O.3       1 UNK         0.0000 
      7 C7          4.6213   54.1400   24.8990 C.ar      1 UNK         0.0000 
      8 C8          4.6248   53.7389   23.5534 C.ar      1 UNK         0.0000 
      9 C9          5.6608   54.1077   22.7015 C.ar      1 UNK         0.0000 
     10 C10         6.7020   54.8917   23.1857 C.ar      1 UNK         0.0000 
     11 C11         6.7105   55.3076   24.5141 C.ar      1 UNK         0.0000 
     12 C12         5.6792   54.9311   25.3680 C.ar      1 UNK         0.0000 
     13 C13         1.4777   53.4639   24.3426 C.2       1 UNK         0.0000 
     14 O14         1.6021   54.4967   23.6828 O.2       1 UNK         0.0000 
     15 N15         0.6902   52.4331   23.9417 N.am      1 UNK         0.0000 
     16 C16        -0.0102   52.5081   22.6611 C.3       1 UNK         0.0000 
     17 C17        -0.2409   51.0389   22.2756 C.3       1 UNK         0.0000 
     18 H18         0.6425   50.6757   21.7449 H         1 UNK         0.0000 
     19 C19        -0.3996   50.3074   23.6384 C.3       1 UNK         0.0000 
     20 C20         0.6631   51.0663   24.4774 C.3       1 UNK         0.0000 
     21 C21        -1.8262   50.4361   24.2618 C.3       1 UNK         0.0000 
     22 C22        -1.8948   49.8736   25.6978 C.3       1 UNK         0.0000 
     23 N23        -1.4377   48.3971   25.6804 N.4       1 UNK         0.0000 
     24 C24        -0.1021   48.1294   24.9402 C.3       1 UNK         0.0000 
     25 C25        -0.1576   48.7843   23.5441 C.3       1 UNK         0.0000 
     26 C26        -1.4494   51.0149   21.3042 C.2       1 UNK         0.0000 
     27 O27        -2.4574   51.6849   21.5334 O.2       1 UNK         0.0000 
     28 N28        -1.2849   50.3327   20.1582 N.am      1 UNK         0.0000 
     29 C29        -2.2463   50.2314   19.0485 C.3       1 UNK         0.0000 
     30 H30        -1.7513   49.5578   18.3442 H         1 UNK         0.0000 
     31 C31        -3.5693   49.5486   19.4810 C.3       1 UNK         0.0000 
     32 C32        -2.4588   51.5913   18.3242 C.3       1 UNK         0.0000 
     33 C33        -3.0500   51.5841   16.9041 C.ar      1 UNK         0.0000 
     34 C34        -3.3413   50.3879   16.2270 C.ar      1 UNK         0.0000 
     35 C35        -3.8653   50.4098   14.9370 C.ar      1 UNK         0.0000 
     36 C36        -4.1117   51.6241   14.3032 C.ar      1 UNK         0.0000 
     37 C37        -3.8205   52.8167   14.9586 C.ar      1 UNK         0.0000 
     38 C38        -3.2833   52.8151   16.2593 C.ar      1 UNK         0.0000 
     39 O39        -2.9583   53.9755   16.9469 O.3       1 UNK         0.0000 
     40 C40        -3.0866   55.2326   16.2916 C.3       1 UNK         0.0000 
     41 H41        -0.4862   52.8341   26.6541 H         1 UNK         0.0000 
     42 H42         0.2580   51.6705   27.7568 H         1 UNK         0.0000 
     43 H43         0.0509   53.3418   28.2344 H         1 UNK         0.0000 
     44 H44         3.8407   53.1139   23.1564 H         1 UNK         0.0000 
     45 H45         5.6531   53.7871   21.6697 H         1 UNK         0.0000 
     46 H46         7.5115   55.1818   22.5302 H         1 UNK         0.0000 
     47 H47         7.5173   55.9275   24.8738 H         1 UNK         0.0000 
     48 H48         5.7072   55.2605   26.3978 H         1 UNK         0.0000 
     49 H49         0.5483   53.0118   21.8674 H         1 UNK         0.0000 
     50 H50        -0.9678   52.9778   22.8881 H         1 UNK         0.0000 
     51 H51         0.5843   50.9493   25.5533 H         1 UNK         0.0000 
     52 H52         1.6371   50.6355   24.2388 H         1 UNK         0.0000 
     53 H53        -2.1031   51.4906   24.3203 H         1 UNK         0.0000 
     54 H54        -2.5906   49.9733   23.6331 H         1 UNK         0.0000 
     55 H55        -1.2537   50.3831   26.4147 H         1 UNK         0.0000 
     56 H56        -2.9095   49.8702   26.0991 H         1 UNK         0.0000 
     57 H57        -1.3761   48.1018   26.6608 H         1 UNK         0.0000 
     58 H58         0.6944   48.5156   25.5794 H         1 UNK         0.0000 
     59 H59        -0.0080   47.0458   24.8784 H         1 UNK         0.0000 
     60 H60        -0.8838   48.3006   22.8881 H         1 UNK         0.0000 
     61 H61         0.8156   48.6076   23.0809 H         1 UNK         0.0000 
     62 H62        -0.4022   49.8695   20.0094 H         1 UNK         0.0000 
     63 H63        -4.2876   49.5191   18.6634 H         1 UNK         0.0000 
     64 H64        -3.4062   48.5145   19.7879 H         1 UNK         0.0000 
     65 H65        -4.0657   50.0884   20.2894 H         1 UNK         0.0000 
     66 H66        -1.4932   52.0986   18.2451 H         1 UNK         0.0000 
     67 H67        -3.0782   52.2341   18.9511 H         1 UNK         0.0000 
     68 H68        -3.1612   49.4226   16.6744 H         1 UNK         0.0000 
     69 H69        -4.0836   49.4820   14.4282 H         1 UNK         0.0000 
     70 H70        -4.5170   51.6408   13.3031 H         1 UNK         0.0000 
     71 H71        -4.0216   53.7389   14.4345 H         1 UNK         0.0000 
     72 H72        -2.7200   56.0306   16.9375 H         1 UNK         0.0000 
     73 H73        -2.5004   55.2705   15.3707 H         1 UNK         0.0000 
     74 H74        -4.1283   55.4520   16.0553 H         1 UNK         0.0000 
     75 H75        -2.1678   47.8395   25.2613 H         1 UNK         0.0000 
@<TRIPOS>BOND
     1    1    2 1    
     2    1   41 1    
     3    1   42 1    
     4    1   43 1    
     5    2    6 1    
     6    2    3 2    
     7    3    4 1    
     8    3   13 1    
     9    4    5 2    
    10    4    7 1    
    11    5    6 1    
    12    7   12 ar   
    13    7    8 ar   
    14    8    9 ar   
    15    8   44 1    
    16    9   10 ar   
    17    9   45 1    
    18   10   11 ar   
    19   10   46 1    
    20   11   12 ar   
    21   11   47 1    
    22   12   48 1    
    23   13   14 2    
    24   13   15 am   BACKBONE|DICT|INTERRES
    25   15   20 1    
    26   15   16 1    
    27   16   17 1    
    28   16   49 1    
    29   16   50 1    
    30   17   18 1    
    31   17   19 1    
    32   17   26 1    
    33   19   25 1    
    34   19   20 1    
    35   19   21 1    
    36   20   51 1    
    37   20   52 1    
    38   21   22 1    
    39   21   53 1    
    40   21   54 1    
    41   22   23 1    
    42   22   55 1    
    43   22   56 1    
    44   23   24 1    
    45   23   57 1    
    46   23   75 1    
    47   24   25 1    
    48   24   58 1    
    49   24   59 1    
    50   25   60 1    
    51   25   61 1    
    52   26   27 2    
    53   26   28 am   BACKBONE|DICT|INTERRES
    54   28   29 1    
    55   28   62 1    
    56   29   30 1    
    57   29   31 1    
    58   29   32 1    
    59   31   63 1    
    60   31   64 1    
    61   31   65 1    
    62   32   33 1    
    63   32   66 1    
    64   32   67 1    
    65   33   38 ar   
    66   33   34 ar   
    67   34   35 ar   
    68   34   68 1    
    69   35   36 ar   
    70   35   69 1    
    71   36   37 ar   
    72   36   70 1    
    73   37   38 ar   
    74   37   71 1    
    75   38   39 1    
    76   39   40 1    
    77   40   72 1    
    78   40   73 1    
    79   40   74 1    
@<TRIPOS>SUBSTRUCTURE
     1 UNK         1 GROUP             0       ****    0 ROOT    
