ZINC09428054_3362
                    3D
 Schrodinger Suite 2024-2.
 52 55  0  0  1  0            999 V2000
    4.8445   53.6852   19.3755 C   0  0  0  0  0  0
    4.5355   53.5403   18.0268 C   0  0  0  0  0  0
    4.9021   54.5187   17.1045 C   0  0  0  0  0  0
    5.5855   55.6722   17.5371 C   0  0  0  0  0  0
    5.9123   55.7914   18.8941 C   0  0  0  0  0  0
    5.5374   54.8181   19.8277 C   0  0  0  0  0  0
    5.8980   54.9972   21.2818 C   0  0  0  0  0  0
    6.9076   55.6363   21.5883 O   0  0  0  0  0  0
    5.0024   54.4819   22.1556 N   0  0  0  0  0  0
    5.0415   54.4478   23.5487 C   0  0  0  0  0  0
    3.9965   54.0159   24.4024 C   0  0  0  0  0  0
    4.3869   54.1021   25.7782 C   0  0  0  0  0  0
    5.7279   54.4971   25.9231 C   0  0  0  0  0  0
    6.4758   54.8949   24.4297 S   0  0  0  0  0  0
    6.4749   54.6422   27.2347 C   0  0  0  0  0  0
    5.7191   53.8695   28.3235 C   0  0  0  0  0  0
    4.2264   54.2232   28.3267 C   0  0  0  0  0  0
    3.5247   53.7959   27.0189 C   0  0  0  0  0  0
    2.7046   53.5284   23.8933 C   0  0  0  0  0  0
    2.4143   53.5982   22.6981 O   0  0  0  0  0  0
    1.9100   52.9056   24.7858 N   0  0  0  0  0  0
    0.7401   52.0760   24.4977 C   0  0  1  0  0  0
    1.0344   51.1570   23.9791 H   0  0  0  0  0  0
    0.0826   51.6489   25.8330 C   0  0  0  0  0  0
   -1.2523   50.9569   25.5274 C   0  0  0  0  0  0
   -1.9657   51.9507   24.1165 S   0  0  0  0  0  0
   -2.9071   52.9523   24.6268 O   0  0  0  0  0  0
   -2.3532   51.0417   23.0337 O   0  0  0  0  0  0
   -0.3481   52.7956   23.6828 C   0  0  0  0  0  0
    6.0070   56.7376   16.6021 N   0  3  0  0  0  0
    7.1242   57.2222   16.7571 O   0  0  0  0  0  0
    5.2189   57.1083   15.7384 O   0  5  0  0  0  0
    4.5270   54.2366   15.4389 Cl  0  0  0  0  0  0
    4.5502   52.8927   20.0496 H   0  0  0  0  0  0
    4.0237   52.6468   17.6921 H   0  0  0  0  0  0
    6.4533   56.6673   19.2269 H   0  0  0  0  0  0
    4.1287   54.1513   21.7647 H   0  0  0  0  0  0
    7.4972   54.2670   27.1573 H   0  0  0  0  0  0
    6.5437   55.6949   27.5168 H   0  0  0  0  0  0
    5.8468   52.7923   28.1832 H   0  0  0  0  0  0
    6.1695   54.1123   29.2815 H   0  0  0  0  0  0
    3.7291   53.7595   29.1793 H   0  0  0  0  0  0
    4.1095   55.2974   28.4666 H   0  0  0  0  0  0
    2.5604   54.3017   26.9683 H   0  0  0  0  0  0
    3.3309   52.7239   27.0788 H   0  0  0  0  0  0
    2.2110   52.9128   25.7515 H   0  0  0  0  0  0
   -0.0810   52.5251   26.4652 H   0  0  0  0  0  0
    0.7382   50.9934   26.4114 H   0  0  0  0  0  0
   -1.9705   50.8445   26.3397 H   0  0  0  0  0  0
   -1.0409   49.9604   25.1379 H   0  0  0  0  0  0
   -0.1933   52.8929   22.6101 H   0  0  0  0  0  0
   -0.4603   53.7954   24.0929 H   0  0  0  0  0  0
  1  6  2  0  0  0
  1  2  1  0  0  0
  1 34  1  0  0  0
  2  3  2  0  0  0
  2 35  1  0  0  0
  3  4  1  0  0  0
  3 33  1  0  0  0
  4  5  2  0  0  0
  4 30  1  0  0  0
  5  6  1  0  0  0
  5 36  1  0  0  0
  6  7  1  0  0  0
  7  8  2  0  0  0
  7  9  1  0  0  0
  9 10  1  0  0  0
  9 37  1  0  0  0
 10 14  1  0  0  0
 10 11  2  0  0  0
 11 12  1  0  0  0
 11 19  1  0  0  0
 12 18  1  0  0  0
 12 13  2  0  0  0
 13 14  1  0  0  0
 13 15  1  0  0  0
 15 16  1  0  0  0
 15 38  1  0  0  0
 15 39  1  0  0  0
 16 17  1  0  0  0
 16 40  1  0  0  0
 16 41  1  0  0  0
 17 18  1  0  0  0
 17 42  1  0  0  0
 17 43  1  0  0  0
 18 44  1  0  0  0
 18 45  1  0  0  0
 19 20  2  0  0  0
 19 21  1  0  0  0
 21 22  1  0  0  0
 21 46  1  0  0  0
 22 23  1  0  0  0
 22 29  1  0  0  0
 22 24  1  0  0  0
 24 25  1  0  0  0
 24 47  1  0  0  0
 24 48  1  0  0  0
 25 26  1  0  0  0
 25 49  1  0  0  0
 25 50  1  0  0  0
 26 27  2  0  0  0
 26 28  2  0  0  0
 26 29  1  0  0  0
 29 51  1  0  0  0
 29 52  1  0  0  0
 30 31  2  0  0  0
 30 32  1  0  0  0
M  CHG  2  30   1  32  -1
M  END
> <i_i_glide_confnum>
18

> <i_i_glide_lignum>
3363

> <i_i_glide_posenum>
294

> <i_i_glide_rotatable_bonds>
7

> <i_m_Source_File_Index>
897

> <b_m_subgroup_collapsed>
0

> <r_i_docking_score>
-5.38043

> <r_i_glide_ecoul>
-0.438205

> <r_i_glide_eff_state_penalty>
0

> <r_i_glide_einternal>
5.02799

> <r_i_glide_emodel>
-63.9736

> <r_i_glide_energy>
-47.4968

> <r_i_glide_erotb>
0.49366

> <r_i_glide_esite>
-0.0080582

> <r_i_glide_evdw>
-47.0586

> <r_i_glide_gscore>
-5.38043

> <r_i_glide_hbond>
0

> <r_i_glide_ligand_efficiency>
-0.168138

> <r_i_glide_ligand_efficiency_ln>
-1.20482

> <r_i_glide_ligand_efficiency_sa>
-0.533806

> <r_i_glide_lipo>
-2.7496

> <r_i_glide_metal>
0

> <r_i_glide_rewards>
-0.697774

> <s_i_glide_gridfile>
wee1_glide-grid

> <s_m_Source_File>
wee1_decoys_glide_SP.sdf

> <s_m_Source_Path>
/Users/zhangxujun/Desktop

> <s_m_entry_id>
1172

> <s_m_entry_name>
wee1_decoys_glide_SP.897

> <s_m_subgroup_title>
wee1_decoys_glide_SP

> <s_m_subgroupid>
wee1_decoys_glide_SP


$$$$
