@<TRIPOS>MOLECULE
ZINC00906896_5726
71   75    1
SMALL
USER_CHARGES


@<TRIPOS>ATOM
      1 C1          2.0086   52.2820   29.9113 C.3       1 UNK         0.0000 
      2 C2          1.3242   52.1743   28.5613 C.ar      1 UNK         0.0000 
      3 C3          1.7558   52.9714   27.5019 C.ar      1 UNK         0.0000 
      4 C4          1.1118   52.8965   26.2705 C.ar      1 UNK         0.0000 
      5 C5          0.0402   52.0166   26.0844 C.ar      1 UNK         0.0000 
      6 C6         -0.3813   51.2114   27.1467 C.ar      1 UNK         0.0000 
      7 C7          0.2522   51.3008   28.3823 C.ar      1 UNK         0.0000 
      8 S8         -0.8227   51.9314   24.5035 S.o2      1 UNK         0.0000 
      9 O9         -1.1561   53.2961   24.0815 O.2       1 UNK         0.0000 
     10 O10        -1.8835   50.9268   24.6359 O.2       1 UNK         0.0000 
     11 N11         0.3246   51.2520   23.3250 N.pl3     1 UNK         0.0000 
     12 C12         1.3599   51.9473   22.6790 C.ar      1 UNK         0.0000 
     13 C13         2.1761   51.2306   21.7972 C.ar      1 UNK         0.0000 
     14 C14         3.2383   51.8598   21.1470 C.ar      1 UNK         0.0000 
     15 C15         3.5118   53.2035   21.4125 C.ar      1 UNK         0.0000 
     16 C16         2.6944   53.9219   22.2756 C.ar      1 UNK         0.0000 
     17 C17         1.6095   53.3086   22.8808 C.ar      1 UNK         0.0000 
     18 C18         4.6956   53.8843   20.8257 C.ar      1 UNK         0.0000 
     19 N19         4.8579   53.9629   19.5324 N.2       1 UNK         0.0000 
     20 N20         6.0340   54.6469   19.3120 N.2       1 UNK         0.0000 
     21 C21         6.5625   54.9361   20.4756 C.ar      1 UNK         0.0000 
     22 N22         5.7395   54.4973   21.5193 N.pl3     1 UNK         0.0000 
     23 C23         5.9379   54.5914   22.9433 C.ar      1 UNK         0.0000 
     24 C24         5.3342   53.6969   23.8310 C.ar      1 UNK         0.0000 
     25 C25         5.4796   53.8099   25.2132 C.ar      1 UNK         0.0000 
     26 C26         6.3038   54.7938   25.7505 C.ar      1 UNK         0.0000 
     27 C27         6.8908   55.6967   24.8820 C.ar      1 UNK         0.0000 
     28 C28         6.7045   55.6094   23.5069 C.ar      1 UNK         0.0000 
     29 O29         6.5916   54.9359   27.0920 O.3       1 UNK         0.0000 
     30 C30         6.1370   53.9429   28.0058 C.3       1 UNK         0.0000 
     31 S31         8.1606   55.6953   20.6333 S.3       1 UNK         0.0000 
     32 C32         8.8665   55.5545   18.9595 C.3       1 UNK         0.0000 
     33 C33         8.8315   56.8994   18.2422 C.2       1 UNK         0.0000 
     34 O34         7.8795   57.1610   17.5085 O.2       1 UNK         0.0000 
     35 N35         9.8843   57.7122   18.4752 N.am      1 UNK         0.0000 
     36 C36        10.1037   59.0248   18.0182 C.ar      1 UNK         0.0000 
     37 C37         9.1040   59.8585   17.4886 C.ar      1 UNK         0.0000 
     38 C38         9.4184   61.1448   17.0533 C.ar      1 UNK         0.0000 
     39 C39        10.7267   61.6172   17.1505 C.ar      1 UNK         0.0000 
     40 C40        11.7257   60.8066   17.6970 C.ar      1 UNK         0.0000 
     41 C41        11.4091   59.5153   18.1298 C.ar      1 UNK         0.0000 
     42 C42        13.1566   61.3077   17.7848 C.3       1 UNK         0.0000 
     43 H43         2.2553   53.3228   30.1276 H         1 UNK         0.0000 
     44 H44         1.3605   51.9423   30.7228 H         1 UNK         0.0000 
     45 H45         2.9316   51.7039   29.9160 H         1 UNK         0.0000 
     46 H46         2.5782   53.6584   27.6339 H         1 UNK         0.0000 
     47 H47         1.4549   53.5419   25.4830 H         1 UNK         0.0000 
     48 H48        -1.2069   50.5212   27.0335 H         1 UNK         0.0000 
     49 H49        -0.0978   50.6946   29.2017 H         1 UNK         0.0000 
     50 H50         0.2851   50.2515   23.2071 H         1 UNK         0.0000 
     51 H51         1.9950   50.1826   21.6087 H         1 UNK         0.0000 
     52 H52         3.8651   51.3010   20.4660 H         1 UNK         0.0000 
     53 H53         2.8917   54.9635   22.4674 H         1 UNK         0.0000 
     54 H54         0.9894   53.9269   23.5021 H         1 UNK         0.0000 
     55 H55         4.7342   52.8968   23.4685 H         1 UNK         0.0000 
     56 H56         4.9770   53.0973   25.8512 H         1 UNK         0.0000 
     57 H57         7.5041   56.4895   25.2777 H         1 UNK         0.0000 
     58 H58         7.1763   56.3565   22.9018 H         1 UNK         0.0000 
     59 H59         6.5224   54.1623   28.9990 H         1 UNK         0.0000 
     60 H60         5.0480   53.9276   28.0687 H         1 UNK         0.0000 
     61 H61         6.4952   52.9494   27.7289 H         1 UNK         0.0000 
     62 H62         8.3681   54.7949   18.3600 H         1 UNK         0.0000 
     63 H63         9.9001   55.2173   19.0454 H         1 UNK         0.0000 
     64 H64        10.6281   57.3240   19.0374 H         1 UNK         0.0000 
     65 H65         8.0740   59.5414   17.4057 H         1 UNK         0.0000 
     66 H66         8.6382   61.7694   16.6368 H         1 UNK         0.0000 
     67 H67        10.9628   62.6118   16.7989 H         1 UNK         0.0000 
     68 H68        12.1890   58.8882   18.5388 H         1 UNK         0.0000 
     69 H69        13.3487   62.0932   17.0513 H         1 UNK         0.0000 
     70 H70        13.8572   60.5006   17.5664 H         1 UNK         0.0000 
     71 H71        13.3729   61.6897   18.7832 H         1 UNK         0.0000 
@<TRIPOS>BOND
     1    1    2 1    
     2    1   43 1    
     3    1   44 1    
     4    1   45 1    
     5    2    7 ar   
     6    2    3 ar   
     7    3    4 ar   
     8    3   46 1    
     9    4    5 ar   
    10    4   47 1    
    11    5    6 ar   
    12    5    8 1    
    13    6    7 ar   
    14    6   48 1    
    15    7   49 1    
    16    8    9 2    
    17    8   10 2    
    18    8   11 1    
    19   11   12 1    
    20   11   50 1    
    21   12   17 ar   
    22   12   13 ar   
    23   13   14 ar   
    24   13   51 1    
    25   14   15 ar   
    26   14   52 1    
    27   15   16 ar   
    28   15   18 1    
    29   16   17 ar   
    30   16   53 1    
    31   17   54 1    
    32   18   22 ar   
    33   18   19 ar   
    34   19   20 ar   
    35   20   21 ar   
    36   21   22 ar   
    37   21   31 1    
    38   22   23 1    
    39   23   28 ar   
    40   23   24 ar   
    41   24   25 ar   
    42   24   55 1    
    43   25   26 ar   
    44   25   56 1    
    45   26   27 ar   
    46   26   29 1    
    47   27   28 ar   
    48   27   57 1    
    49   28   58 1    
    50   29   30 1    
    51   30   59 1    
    52   30   60 1    
    53   30   61 1    
    54   31   32 1    
    55   32   33 1    
    56   32   62 1    
    57   32   63 1    
    58   33   34 2    
    59   33   35 am   BACKBONE|DICT|INTERRES
    60   35   36 1    
    61   35   64 1    
    62   36   41 ar   
    63   36   37 ar   
    64   37   38 ar   
    65   37   65 1    
    66   38   39 ar   
    67   38   66 1    
    68   39   40 ar   
    69   39   67 1    
    70   40   41 ar   
    71   40   42 1    
    72   41   68 1    
    73   42   69 1    
    74   42   70 1    
    75   42   71 1    
@<TRIPOS>SUBSTRUCTURE
     1 UNK         1 GROUP             0       ****    0 ROOT    
