@<TRIPOS>MOLECULE
ZINC16588674_2907
61   63    1
SMALL
USER_CHARGES


@<TRIPOS>ATOM
      1 C1          6.3471   53.3459   17.8372 C.3       1 UNK         0.0000 
      2 C2          5.0321   53.1417   17.0641 C.3       1 UNK         0.0000 
      3 C3          2.7718   51.9956   17.0542 C.3       1 UNK         0.0000 
      4 C4          2.0347   53.1618   16.3610 C.2       1 UNK         0.0000 
      5 O5          2.4919   53.6248   15.3167 O.2       1 UNK         0.0000 
      6 N6          0.9412   53.6463   16.9847 N.am      1 UNK         0.0000 
      7 C7          0.2829   54.8571   16.6970 C.ar      1 UNK         0.0000 
      8 C8          1.0252   56.0309   16.4862 C.ar      1 UNK         0.0000 
      9 C9          0.3824   57.2499   16.2867 C.ar      1 UNK         0.0000 
     10 C10        -1.0078   57.3103   16.2936 C.ar      1 UNK         0.0000 
     11 C11        -1.7559   56.1516   16.4933 C.ar      1 UNK         0.0000 
     12 C12        -1.1272   54.9135   16.7012 C.ar      1 UNK         0.0000 
     13 C13        -1.9801   53.6541   16.9053 C.3       1 UNK         0.0000 
     14 F14        -3.2894   53.9118   16.8766 F         1 UNK         0.0000 
     15 F15        -1.7143   52.7649   15.9483 F         1 UNK         0.0000 
     16 F16        -1.7008   53.1053   18.0872 F         1 UNK         0.0000 
     17 C17         3.4329   53.3982   19.0535 C.3       1 UNK         0.0000 
     18 C18         4.2054   53.2032   20.3654 C.2       1 UNK         0.0000 
     19 O19         5.1041   52.3691   20.4818 O.2       1 UNK         0.0000 
     20 N20         3.7927   54.0277   21.3457 N.am      1 UNK         0.0000 
     21 C21         4.3174   54.0795   22.6250 C.2       1 UNK         0.0000 
     22 C22         3.6240   53.9207   23.8418 C.2       1 UNK         0.0000 
     23 C23         4.5310   54.1008   24.9334 C.2       1 UNK         0.0000 
     24 C24         5.8210   54.4607   24.5120 C.2       1 UNK         0.0000 
     25 S25         5.9887   54.4966   22.8013 S.3       1 UNK         0.0000 
     26 C26         6.9743   54.8231   25.4215 C.3       1 UNK         0.0000 
     27 C27         6.7498   54.1694   26.7970 C.3       1 UNK         0.0000 
     28 C28         5.3496   54.4996   27.3302 C.3       1 UNK         0.0000 
     29 C29         4.2072   53.9677   26.4320 C.3       1 UNK         0.0000 
     30 C30         2.1894   53.5734   23.9124 C.2       1 UNK         0.0000 
     31 O31         1.4177   53.6939   22.9580 O.2       1 UNK         0.0000 
     32 O32         1.8304   53.0811   25.1167 O.3       1 UNK         0.0000 
     33 C33         0.5198   52.5757   25.3320 C.3       1 UNK         0.0000 
     34 H34         7.1315   53.7031   17.1697 H         1 UNK         0.0000 
     35 H35         6.2496   54.0841   18.6325 H         1 UNK         0.0000 
     36 H36         6.7037   52.4136   18.2769 H         1 UNK         0.0000 
     37 H37         5.1947   52.4413   16.2425 H         1 UNK         0.0000 
     38 H38         4.6482   54.0794   16.6599 H         1 UNK         0.0000 
     39 H39         3.2121   51.2979   16.3399 H         1 UNK         0.0000 
     40 H40         2.1296   51.4140   17.7174 H         1 UNK         0.0000 
     41 H41         0.5908   53.1407   17.7840 H         1 UNK         0.0000 
     42 H42         2.1055   56.0096   16.4965 H         1 UNK         0.0000 
     43 H43         0.9636   58.1498   16.1397 H         1 UNK         0.0000 
     44 H44        -1.5035   58.2578   16.1391 H         1 UNK         0.0000 
     45 H45        -2.8335   56.2286   16.4769 H         1 UNK         0.0000 
     46 H46         2.3935   53.1374   19.2594 H         1 UNK         0.0000 
     47 H47         3.4882   54.4304   18.7019 H         1 UNK         0.0000 
     48 H48         2.9308   54.5332   21.1814 H         1 UNK         0.0000 
     49 H49         7.0388   55.9077   25.5189 H         1 UNK         0.0000 
     50 H50         7.9044   54.4970   24.9679 H         1 UNK         0.0000 
     51 H51         7.5060   54.5146   27.5038 H         1 UNK         0.0000 
     52 H52         6.8741   53.0878   26.7261 H         1 UNK         0.0000 
     53 H53         5.2662   55.5795   27.4183 H         1 UNK         0.0000 
     54 H54         5.2336   54.1120   28.3436 H         1 UNK         0.0000 
     55 H55         4.0388   52.9156   26.6656 H         1 UNK         0.0000 
     56 H56         3.2844   54.4903   26.6876 H         1 UNK         0.0000 
     57 H57         0.3761   52.3545   26.3892 H         1 UNK         0.0000 
     58 H58        -0.2408   53.2960   25.0279 H         1 UNK         0.0000 
     59 H59         0.3647   51.6557   24.7678 H         1 UNK         0.0000 
     60 N60         3.9044   52.4967   17.9311 N.4       1 UNK         0.0000 
     61 H61         4.3569   51.6557   18.3181 H         1 UNK         0.0000 
@<TRIPOS>BOND
     1    1    2 1    
     2    1   34 1    
     3    1   35 1    
     4    1   36 1    
     5    2   37 1    
     6    2   38 1    
     7    2   60 1    
     8    3    4 1    
     9    3   39 1    
    10    3   40 1    
    11    3   60 1    
    12    4    5 2    
    13    4    6 am   BACKBONE|DICT|INTERRES
    14    6    7 1    
    15    6   41 1    
    16    7   12 ar   
    17    7    8 ar   
    18    8    9 ar   
    19    8   42 1    
    20    9   10 ar   
    21    9   43 1    
    22   10   11 ar   
    23   10   44 1    
    24   11   12 ar   
    25   11   45 1    
    26   12   13 1    
    27   13   14 1    
    28   13   15 1    
    29   13   16 1    
    30   17   18 1    
    31   17   46 1    
    32   17   47 1    
    33   17   60 1    
    34   18   19 2    
    35   18   20 am   BACKBONE|DICT|INTERRES
    36   20   21 am   BACKBONE|DICT|INTERRES
    37   20   48 1    
    38   21   25 1    
    39   21   22 2    
    40   22   23 1    
    41   22   30 1    
    42   23   29 1    
    43   23   24 2    
    44   24   25 1    
    45   24   26 1    
    46   26   27 1    
    47   26   49 1    
    48   26   50 1    
    49   27   28 1    
    50   27   51 1    
    51   27   52 1    
    52   28   29 1    
    53   28   53 1    
    54   28   54 1    
    55   29   55 1    
    56   29   56 1    
    57   30   31 2    
    58   30   32 1    
    59   32   33 1    
    60   33   57 1    
    61   33   58 1    
    62   33   59 1    
    63   60   61 1    
@<TRIPOS>SUBSTRUCTURE
     1 UNK         1 GROUP             0       ****    0 ROOT    
