@<TRIPOS>MOLECULE
ZINC17287328_5527
75   80    1
SMALL
USER_CHARGES


@<TRIPOS>ATOM
      1 C1          6.1965   53.6176   12.6152 C.3       1 UNK         0.0000 
      2 O2          6.4918   54.8493   13.2693 O.3       1 UNK         0.0000 
      3 C3          6.3564   54.9366   14.6399 C.ar      1 UNK         0.0000 
      4 C4          6.7178   56.1575   15.2090 C.ar      1 UNK         0.0000 
      5 C5          6.6512   56.3841   16.5828 C.ar      1 UNK         0.0000 
      6 C6          6.2020   55.3523   17.4183 C.ar      1 UNK         0.0000 
      7 C7          5.8156   54.1149   16.8253 C.ar      1 UNK         0.0000 
      8 C8          5.8910   53.8852   15.4486 C.ar      1 UNK         0.0000 
      9 N9          5.4024   53.2967   17.8537 N.pl3     1 UNK         0.0000 
     10 H10         5.1043   52.3254   17.7899 H         1 UNK         0.0000 
     11 C11         5.5012   53.9562   19.0537 C.ar      1 UNK         0.0000 
     12 C12         6.0296   55.2174   18.8387 C.ar      1 UNK         0.0000 
     13 C13         6.2990   56.1909   19.9748 C.3       1 UNK         0.0000 
     14 C14         6.3616   55.4238   21.3189 C.3       1 UNK         0.0000 
     15 C15         5.1367   53.3491   20.3997 C.3       1 UNK         0.0000 
     16 H16         5.9045   52.6474   20.7064 H         1 UNK         0.0000 
     17 C17         3.7847   52.6353   20.4623 C.3       1 UNK         0.0000 
     18 C18         3.5411   52.0300   21.8685 C.3       1 UNK         0.0000 
     19 H19         4.3885   51.3679   22.0603 H         1 UNK         0.0000 
     20 C20         3.5956   53.1535   22.9515 C.3       1 UNK         0.0000 
     21 H21         3.5044   52.6863   23.9288 H         1 UNK         0.0000 
     22 C22         4.9217   53.9487   22.8809 C.3       1 UNK         0.0000 
     23 C23         2.3363   54.0221   22.9751 C.3       1 UNK         0.0000 
     24 C24         1.0616   53.1682   23.0646 C.3       1 UNK         0.0000 
     25 H25         0.3045   53.8935   22.8887 H         1 UNK         0.0000 
     26 C26         0.9874   52.0616   21.9643 C.3       1 UNK         0.0000 
     27 H27         0.9563   52.5529   20.9881 H         1 UNK         0.0000 
     28 C28         2.2492   51.1767   22.0326 C.3       1 UNK         0.0000 
     29 H29         2.2678   50.7329   23.0285 H         1 UNK         0.0000 
     30 C30         2.1732   49.9760   21.0658 C.2       1 UNK         0.0000 
     31 O31         2.3045   48.8309   21.4918 O.2       1 UNK         0.0000 
     32 O32         1.9094   50.3101   19.7827 O.3       1 UNK         0.0000 
     33 C33         1.9040   49.3158   18.7681 C.3       1 UNK         0.0000 
     34 O34        -0.1647   51.2248   22.0925 O.3       1 UNK         0.0000 
     35 C35        -1.2579   51.5194   21.2371 C.3       1 UNK         0.0000 
     36 O36         0.8792   52.6794   24.3965 O.3       1 UNK         0.0000 
     37 C37        -0.3753   52.4668   24.8902 C.2       1 UNK         0.0000 
     38 O38        -1.4046   52.5623   24.2156 O.2       1 UNK         0.0000 
     39 C39        -0.3987   52.1059   26.3362 C.ar      1 UNK         0.0000 
     40 C40        -1.5376   51.4798   26.8570 C.ar      1 UNK         0.0000 
     41 C41        -1.6706   51.2969   28.2267 C.ar      1 UNK         0.0000 
     42 C42        -0.6813   51.7671   29.0830 C.ar      1 UNK         0.0000 
     43 C43         0.4823   52.3411   28.5793 C.ar      1 UNK         0.0000 
     44 C44         0.6331   52.4958   27.2037 C.ar      1 UNK         0.0000 
     45 N45        -0.8915   51.6965   30.4543 N.pl3     1 UNK         0.0000 
     46 H46         6.3914   53.7194   11.5487 H         1 UNK         0.0000 
     47 H47         6.8253   52.8058   12.9873 H         1 UNK         0.0000 
     48 H48         5.1474   53.3433   12.7322 H         1 UNK         0.0000 
     49 H49         7.0686   56.9483   14.5593 H         1 UNK         0.0000 
     50 H50         6.9449   57.3391   16.9916 H         1 UNK         0.0000 
     51 H51         5.6016   52.9297   15.0385 H         1 UNK         0.0000 
     52 H52         7.2317   56.7300   19.8121 H         1 UNK         0.0000 
     53 H53         5.5044   56.9356   19.9964 H         1 UNK         0.0000 
     54 H54         6.3284   56.1211   22.1540 H         1 UNK         0.0000 
     55 H55         7.2516   54.8019   21.4153 H         1 UNK         0.0000 
     56 H56         2.9731   53.2980   20.1633 H         1 UNK         0.0000 
     57 H57         3.7921   51.8496   19.7087 H         1 UNK         0.0000 
     58 H58         5.7976   53.3451   23.1243 H         1 UNK         0.0000 
     59 H59         4.8804   54.8177   23.5404 H         1 UNK         0.0000 
     60 H60         2.3678   54.7514   23.7868 H         1 UNK         0.0000 
     61 H61         2.3118   54.6319   22.0813 H         1 UNK         0.0000 
     62 H62         2.8707   48.8104   18.7159 H         1 UNK         0.0000 
     63 H63         1.1299   48.5695   18.9515 H         1 UNK         0.0000 
     64 H64         1.7131   49.7734   17.7958 H         1 UNK         0.0000 
     65 H65        -2.0728   50.8240   21.4384 H         1 UNK         0.0000 
     66 H66        -1.6366   52.5252   21.4006 H         1 UNK         0.0000 
     67 H67        -0.9796   51.4061   20.1874 H         1 UNK         0.0000 
     68 H68        -2.3417   51.1535   26.2105 H         1 UNK         0.0000 
     69 H69        -2.5559   50.8194   28.6220 H         1 UNK         0.0000 
     70 H70         1.2543   52.6955   29.2460 H         1 UNK         0.0000 
     71 H71         1.5251   52.9823   26.8364 H         1 UNK         0.0000 
     72 H72        -0.2315   52.0864   31.1122 H         1 UNK         0.0000 
     73 H73        -1.6275   51.0935   30.8082 H         1 UNK         0.0000 
     74 N74         5.1233   54.4996   21.4472 N.4       1 UNK         0.0000 
     75 H75         4.3162   55.0775   21.2574 H         1 UNK         0.0000 
@<TRIPOS>BOND
     1    1    2 1    
     2    1   46 1    
     3    1   47 1    
     4    1   48 1    
     5    2    3 1    
     6    3    8 ar   
     7    3    4 ar   
     8    4    5 ar   
     9    4   49 1    
    10    5    6 ar   
    11    5   50 1    
    12    6   12 ar   
    13    6    7 ar   
    14    7    8 ar   
    15    7    9 ar   
    16    8   51 1    
    17    9   10 1    
    18    9   11 ar   
    19   11   15 1    
    20   11   12 ar   
    21   12   13 1    
    22   13   14 1    
    23   13   52 1    
    24   13   53 1    
    25   14   54 1    
    26   14   55 1    
    27   14   74 1    
    28   15   16 1    
    29   15   17 1    
    30   15   74 1    
    31   17   18 1    
    32   17   56 1    
    33   17   57 1    
    34   18   19 1    
    35   18   28 1    
    36   18   20 1    
    37   20   21 1    
    38   20   22 1    
    39   20   23 1    
    40   22   58 1    
    41   22   59 1    
    42   22   74 1    
    43   23   24 1    
    44   23   60 1    
    45   23   61 1    
    46   24   25 1    
    47   24   26 1    
    48   24   36 1    
    49   26   27 1    
    50   26   28 1    
    51   26   34 1    
    52   28   29 1    
    53   28   30 1    
    54   30   31 2    
    55   30   32 1    
    56   32   33 1    
    57   33   62 1    
    58   33   63 1    
    59   33   64 1    
    60   34   35 1    
    61   35   65 1    
    62   35   66 1    
    63   35   67 1    
    64   36   37 1    
    65   37   38 2    
    66   37   39 1    
    67   39   44 ar   
    68   39   40 ar   
    69   40   41 ar   
    70   40   68 1    
    71   41   42 ar   
    72   41   69 1    
    73   42   43 ar   
    74   42   45 1    
    75   43   44 ar   
    76   43   70 1    
    77   44   71 1    
    78   45   72 1    
    79   45   73 1    
    80   74   75 1    
@<TRIPOS>SUBSTRUCTURE
     1 UNK         1 GROUP             0       ****    0 ROOT    
