@<TRIPOS>MOLECULE
ZINC45599194_92
54   58    1
SMALL
USER_CHARGES


@<TRIPOS>ATOM
      1 C1         -3.2197   49.2275   22.3214 C.3       1 UNK         0.0000 
      2 C2         -2.6297   50.0880   23.4536 C.3       1 UNK         0.0000 
      3 H3         -3.1917   51.0242   23.4625 H         1 UNK         0.0000 
      4 C4         -2.7474   49.3784   24.8169 C.3       1 UNK         0.0000 
      5 C5         -2.3645   50.3054   25.9899 C.3       1 UNK         0.0000 
      6 C6         -1.0584   51.0377   25.6756 C.2       1 UNK         0.0000 
      7 C7         -0.5417   51.1012   24.3800 C.2       1 UNK         0.0000 
      8 S8          0.9363   52.0134   24.2580 S.3       1 UNK         0.0000 
      9 C9          0.8414   52.4340   25.9489 C.ar      1 UNK         0.0000 
     10 C10        -0.2526   51.7886   26.6010 C.ar      1 UNK         0.0000 
     11 C11        -0.3311   52.0322   27.9961 C.ar      1 UNK         0.0000 
     12 N12         0.5233   52.8810   28.6207 N.ar      1 UNK         0.0000 
     13 C13         1.4825   53.4618   27.8584 C.ar      1 UNK         0.0000 
     14 N14         1.7150   53.2578   26.5372 N.ar      1 UNK         0.0000 
     15 C15         2.4182   54.4260   28.5685 C.3       1 UNK         0.0000 
     16 S16         3.8625   53.5722   29.2812 S.3       1 UNK         0.0000 
     17 C17         5.0997   53.9136   28.0702 C.2       1 UNK         0.0000 
     18 N18         6.3867   53.6960   28.1673 N.2       1 UNK         0.0000 
     19 N19         6.9403   54.1011   26.9598 N.2       1 UNK         0.0000 
     20 C20         5.9395   54.5183   26.2288 C.2       1 UNK         0.0000 
     21 O21         4.7450   54.4319   26.8667 O.3       1 UNK         0.0000 
     22 C22         5.9973   55.1183   24.8446 C.3       1 UNK         0.0000 
     23 C23         5.1886   54.3494   23.8089 C.ar      1 UNK         0.0000 
     24 C24         5.8361   53.5438   22.8735 C.ar      1 UNK         0.0000 
     25 C25         5.1034   52.9004   21.8767 C.ar      1 UNK         0.0000 
     26 C26         3.7174   53.0859   21.7862 C.ar      1 UNK         0.0000 
     27 C27         3.0838   53.9037   22.7177 C.ar      1 UNK         0.0000 
     28 C28         3.8020   54.4966   23.7495 C.ar      1 UNK         0.0000 
     29 O29         2.9110   52.5038   20.8280 O.3       1 UNK         0.0000 
     30 C30         3.5033   51.6916   19.8183 C.3       1 UNK         0.0000 
     31 N31        -1.2765   51.4149   28.8126 N.pl3     1 UNK         0.0000 
     32 C32        -1.1429   50.4017   23.1660 C.3       1 UNK         0.0000 
     33 H33        -2.7055   48.2691   22.2355 H         1 UNK         0.0000 
     34 H34        -4.2772   49.0209   22.4926 H         1 UNK         0.0000 
     35 H35        -3.1404   49.7332   21.3584 H         1 UNK         0.0000 
     36 H36        -3.7725   49.0362   24.9662 H         1 UNK         0.0000 
     37 H37        -2.1556   48.4606   24.8203 H         1 UNK         0.0000 
     38 H38        -2.2724   49.6964   26.8820 H         1 UNK         0.0000 
     39 H39        -3.1609   51.0247   26.1839 H         1 UNK         0.0000 
     40 H40         1.8814   54.9298   29.3728 H         1 UNK         0.0000 
     41 H41         2.7087   55.2374   27.9015 H         1 UNK         0.0000 
     42 H42         7.0316   55.2073   24.5060 H         1 UNK         0.0000 
     43 H43         5.6104   56.1357   24.8853 H         1 UNK         0.0000 
     44 H44         6.9092   53.4219   22.8953 H         1 UNK         0.0000 
     45 H45         5.6161   52.2705   21.1684 H         1 UNK         0.0000 
     46 H46         2.0202   54.0724   22.6387 H         1 UNK         0.0000 
     47 H47         3.2846   55.1159   24.4673 H         1 UNK         0.0000 
     48 H48         2.7319   51.3446   19.1302 H         1 UNK         0.0000 
     49 H49         3.9814   50.8090   20.2458 H         1 UNK         0.0000 
     50 H50         4.2374   52.2486   19.2335 H         1 UNK         0.0000 
     51 H51        -1.7512   50.5899   28.4611 H         1 UNK         0.0000 
     52 H52        -1.2256   51.5668   29.8104 H         1 UNK         0.0000 
     53 H53        -1.0440   51.0167   22.2703 H         1 UNK         0.0000 
     54 H54        -0.5920   49.4790   22.9772 H         1 UNK         0.0000 
@<TRIPOS>BOND
     1    1    2 1    
     2    1   33 1    
     3    1   34 1    
     4    1   35 1    
     5    2    3 1    
     6    2   32 1    
     7    2    4 1    
     8    4    5 1    
     9    4   36 1    
    10    4   37 1    
    11    5    6 1    
    12    5   38 1    
    13    5   39 1    
    14    6   10 1    
    15    6    7 2    
    16    7    8 1    
    17    7   32 1    
    18    8    9 1    
    19    9   14 ar   
    20    9   10 ar   
    21   10   11 ar   
    22   11   12 ar   
    23   11   31 1    
    24   12   13 ar   
    25   13   14 ar   
    26   13   15 1    
    27   15   16 1    
    28   15   40 1    
    29   15   41 1    
    30   16   17 1    
    31   17   21 1    
    32   17   18 2    
    33   18   19 1    
    34   19   20 2    
    35   20   21 1    
    36   20   22 1    
    37   22   23 1    
    38   22   42 1    
    39   22   43 1    
    40   23   28 ar   
    41   23   24 ar   
    42   24   25 ar   
    43   24   44 1    
    44   25   26 ar   
    45   25   45 1    
    46   26   27 ar   
    47   26   29 1    
    48   27   28 ar   
    49   27   46 1    
    50   28   47 1    
    51   29   30 1    
    52   30   48 1    
    53   30   49 1    
    54   30   50 1    
    55   31   51 1    
    56   31   52 1    
    57   32   53 1    
    58   32   54 1    
@<TRIPOS>SUBSTRUCTURE
     1 UNK         1 GROUP             0       ****    0 ROOT    
