@<TRIPOS>MOLECULE
ZINC08721074_4114
71   77    1
SMALL
USER_CHARGES


@<TRIPOS>ATOM
      1 C1         11.5030   50.8874   16.0992 C.3       1 UNK         0.0000 
      2 C2         10.8218   52.2514   15.8657 C.3       1 UNK         0.0000 
      3 C3         11.6972   53.3556   16.5289 C.3       1 UNK         0.0000 
      4 C4         10.9143   54.6521   16.7282 C.2       1 UNK         0.0000 
      5 C5          9.5606   54.7618   16.8139 C.2       1 UNK         0.0000 
      6 C6          8.8988   56.1602   17.0006 C.3       1 UNK         0.0000 
      7 H7          8.6672   56.4940   15.9984 H         1 UNK         0.0000 
      8 C8          9.9632   57.1685   17.4798 C.2       1 UNK         0.0000 
      9 C9         11.2749   56.8997   17.3135 C.2       1 UNK         0.0000 
     10 O10        11.7556   55.7058   16.8942 O.3       1 UNK         0.0000 
     11 N11        12.3405   57.6879   17.6611 N.pl3     1 UNK         0.0000 
     12 C12         9.5692   58.4266   18.0414 C.1       1 UNK         0.0000 
     13 N13         9.3212   59.4714   18.4814 N.1       1 UNK         0.0000 
     14 C14         7.7033   56.1070   17.9602 C.ar      1 UNK         0.0000 
     15 C15         7.8068   55.7349   19.2905 C.ar      1 UNK         0.0000 
     16 N16         6.5459   55.6425   19.8048 N.pl3     1 UNK         0.0000 
     17 N17         5.6443   56.0113   18.8894 N.2       1 UNK         0.0000 
     18 C18         6.2975   56.2937   17.7728 C.ar      1 UNK         0.0000 
     19 C19         5.4345   56.6881   16.5471 C.3       1 UNK         0.0000 
     20 C20         4.4656   55.5202   16.1541 C.3       1 UNK         0.0000 
     21 C21         3.5369   55.9128   14.9731 C.3       1 UNK         0.0000 
     22 C22         2.6826   57.1460   15.3709 C.3       1 UNK         0.0000 
     23 C23         3.6195   58.3337   15.7098 C.3       1 UNK         0.0000 
     24 C24         4.5452   57.9315   16.8843 C.3       1 UNK         0.0000 
     25 C25         4.4893   58.6829   14.4781 C.3       1 UNK         0.0000 
     26 C26         5.3375   57.4494   14.0821 C.3       1 UNK         0.0000 
     27 C27         4.4007   56.2640   13.7362 C.3       1 UNK         0.0000 
     28 C28         6.2550   57.0448   15.2667 C.3       1 UNK         0.0000 
     29 C29         6.1645   55.1618   21.0790 C.ar      1 UNK         0.0000 
     30 C30         7.0410   55.2965   22.1647 C.ar      1 UNK         0.0000 
     31 C31         6.7034   54.7592   23.4033 C.ar      1 UNK         0.0000 
     32 C32         5.4904   54.0988   23.5639 C.ar      1 UNK         0.0000 
     33 C33         4.6061   53.9675   22.4974 C.ar      1 UNK         0.0000 
     34 C34         4.9414   54.4966   21.2537 C.ar      1 UNK         0.0000 
     35 C35         8.7158   53.5603   16.6124 C.2       1 UNK         0.0000 
     36 O36         7.5120   53.6235   16.3705 O.2       1 UNK         0.0000 
     37 C37         9.4402   52.2047   16.5775 C.3       1 UNK         0.0000 
     38 C38        10.6336   52.5662   14.3598 C.3       1 UNK         0.0000 
     39 H39        12.5080   50.8695   15.6714 H         1 UNK         0.0000 
     40 H40        11.5938   50.6510   17.1613 H         1 UNK         0.0000 
     41 H41        10.9389   50.0793   15.6315 H         1 UNK         0.0000 
     42 H42        12.0356   53.0666   17.5268 H         1 UNK         0.0000 
     43 H43        12.5880   53.5271   15.9204 H         1 UNK         0.0000 
     44 H44        12.1985   58.6516   17.9300 H         1 UNK         0.0000 
     45 H45        13.2272   57.2616   17.8844 H         1 UNK         0.0000 
     46 H46         8.6688   55.4488   19.8739 H         1 UNK         0.0000 
     47 H47         5.0382   54.6286   15.8923 H         1 UNK         0.0000 
     48 H48         3.8516   55.2293   17.0085 H         1 UNK         0.0000 
     49 H49         2.8796   55.0770   14.7330 H         1 UNK         0.0000 
     50 H50         2.0057   57.4163   14.5598 H         1 UNK         0.0000 
     51 H51         2.0507   56.9075   16.2290 H         1 UNK         0.0000 
     52 H52         3.0235   59.2039   15.9951 H         1 UNK         0.0000 
     53 H53         3.9179   57.7052   17.7482 H         1 UNK         0.0000 
     54 H54         5.1664   58.7817   17.1754 H         1 UNK         0.0000 
     55 H55         3.8590   58.9962   13.6454 H         1 UNK         0.0000 
     56 H56         5.1340   59.5354   14.7065 H         1 UNK         0.0000 
     57 H57         5.9505   57.6954   13.2129 H         1 UNK         0.0000 
     58 H58         4.9861   55.3972   13.4250 H         1 UNK         0.0000 
     59 H59         3.7631   56.5201   12.8878 H         1 UNK         0.0000 
     60 H60         6.9474   57.8621   15.4788 H         1 UNK         0.0000 
     61 H61         6.8452   56.1839   14.9530 H         1 UNK         0.0000 
     62 H62         7.9901   55.8031   22.0605 H         1 UNK         0.0000 
     63 H63         7.3854   54.8575   24.2340 H         1 UNK         0.0000 
     64 H64         5.2330   53.6845   24.5270 H         1 UNK         0.0000 
     65 H65         3.6677   53.4512   22.6294 H         1 UNK         0.0000 
     66 H66         4.2528   54.3714   20.4289 H         1 UNK         0.0000 
     67 H67         9.5780   51.9221   17.6217 H         1 UNK         0.0000 
     68 H68         8.7751   51.4569   16.1448 H         1 UNK         0.0000 
     69 H69        11.5894   52.5389   13.8333 H         1 UNK         0.0000 
     70 H70         9.9862   51.8295   13.8814 H         1 UNK         0.0000 
     71 H71        10.1971   53.5488   14.1795 H         1 UNK         0.0000 
@<TRIPOS>BOND
     1    1    2 1    
     2    1   39 1    
     3    1   40 1    
     4    1   41 1    
     5    2   37 1    
     6    2    3 1    
     7    2   38 1    
     8    3    4 1    
     9    3   42 1    
    10    3   43 1    
    11    4   10 1    
    12    4    5 2    
    13    5    6 1    
    14    5   35 1    
    15    6    7 1    
    16    6    8 1    
    17    6   14 1    
    18    8    9 2    
    19    8   12 1    
    20    9   10 1    
    21    9   11 1    
    22   11   44 1    
    23   11   45 1    
    24   12   13 3    
    25   14   18 ar   
    26   14   15 ar   
    27   15   16 ar   
    28   15   46 1    
    29   16   17 ar   
    30   16   29 1    
    31   17   18 ar   
    32   18   19 1    
    33   19   24 1    
    34   19   28 1    
    35   19   20 1    
    36   20   21 1    
    37   20   47 1    
    38   20   48 1    
    39   21   27 1    
    40   21   22 1    
    41   21   49 1    
    42   22   23 1    
    43   22   50 1    
    44   22   51 1    
    45   23   24 1    
    46   23   25 1    
    47   23   52 1    
    48   24   53 1    
    49   24   54 1    
    50   25   26 1    
    51   25   55 1    
    52   25   56 1    
    53   26   27 1    
    54   26   28 1    
    55   26   57 1    
    56   27   58 1    
    57   27   59 1    
    58   28   60 1    
    59   28   61 1    
    60   29   34 ar   
    61   29   30 ar   
    62   30   31 ar   
    63   30   62 1    
    64   31   32 ar   
    65   31   63 1    
    66   32   33 ar   
    67   32   64 1    
    68   33   34 ar   
    69   33   65 1    
    70   34   66 1    
    71   35   36 2    
    72   35   37 1    
    73   37   67 1    
    74   37   68 1    
    75   38   69 1    
    76   38   70 1    
    77   38   71 1    
@<TRIPOS>SUBSTRUCTURE
     1 UNK         1 GROUP             0       ****    0 ROOT    
