@<TRIPOS>MOLECULE
ZINC36311222_734
71   74    1
SMALL
USER_CHARGES


@<TRIPOS>ATOM
      1 C1          4.3687   54.3140   29.0827 C.3       1 UNK         0.0000 
      2 C2          3.0155   53.9920   28.3929 C.3       1 UNK         0.0000 
      3 C3          2.5335   52.6347   28.9723 C.3       1 UNK         0.0000 
      4 C4          2.0024   55.0959   28.7810 C.3       1 UNK         0.0000 
      5 C5          3.1235   53.9092   26.8464 C.ar      1 UNK         0.0000 
      6 C6          2.0257   53.4569   26.0984 C.ar      1 UNK         0.0000 
      7 C7          2.0918   53.3604   24.7112 C.ar      1 UNK         0.0000 
      8 C8          3.2684   53.6970   24.0320 C.ar      1 UNK         0.0000 
      9 C9          4.3571   54.1835   24.7688 C.ar      1 UNK         0.0000 
     10 C10         4.2847   54.2845   26.1541 C.ar      1 UNK         0.0000 
     11 C11         3.3756   53.6020   22.5208 C.2       1 UNK         0.0000 
     12 O12         3.9749   54.4961   21.9212 O.2       1 UNK         0.0000 
     13 N13         2.8010   52.5486   21.8700 N.am      1 UNK         0.0000 
     14 C14         2.6145   51.2130   22.4740 C.3       1 UNK         0.0000 
     15 C15         1.2051   50.6982   22.1469 C.3       1 UNK         0.0000 
     16 N16         0.8954   50.7785   20.6260 N.4       1 UNK         0.0000 
     17 C17         1.2026   52.1907   20.0683 C.3       1 UNK         0.0000 
     18 C18         2.6596   52.5741   20.3981 C.3       1 UNK         0.0000 
     19 C19        -0.5302   50.2247   20.2813 C.3       1 UNK         0.0000 
     20 H20        -0.4758   49.2072   20.6753 H         1 UNK         0.0000 
     21 C21        -0.7421   50.1353   18.7429 C.3       1 UNK         0.0000 
     22 C22         0.3737   49.3859   17.9915 C.3       1 UNK         0.0000 
     23 C23        -0.2399   49.0082   16.6451 C.3       1 UNK         0.0000 
     24 C24        -1.7234   48.7523   16.9352 C.3       1 UNK         0.0000 
     25 C25        -2.0125   49.3721   18.3140 C.3       1 UNK         0.0000 
     26 C26        -1.6256   51.0185   21.0424 C.2       1 UNK         0.0000 
     27 O27        -2.0366   52.0961   20.6017 O.2       1 UNK         0.0000 
     28 N28        -2.0103   50.4668   22.2128 N.am      1 UNK         0.0000 
     29 C29        -2.7347   51.0397   23.2717 C.ar      1 UNK         0.0000 
     30 C30        -3.2507   50.1508   24.2201 C.ar      1 UNK         0.0000 
     31 C31        -3.9642   50.6301   25.3134 C.ar      1 UNK         0.0000 
     32 C32        -4.1589   52.0017   25.4651 C.ar      1 UNK         0.0000 
     33 C33        -3.6212   52.8988   24.5424 C.ar      1 UNK         0.0000 
     34 C34        -2.8966   52.4224   23.4529 C.ar      1 UNK         0.0000 
     35 Cl35       -5.0684   52.5907   26.8081 Cl        1 UNK         0.0000 
     36 H36         4.2770   54.3244   30.1677 H         1 UNK         0.0000 
     37 H37         4.7530   55.2932   28.7990 H         1 UNK         0.0000 
     38 H38         5.1318   53.5755   28.8381 H         1 UNK         0.0000 
     39 H39         1.5309   52.3698   28.6349 H         1 UNK         0.0000 
     40 H40         3.1980   51.8205   28.6847 H         1 UNK         0.0000 
     41 H41         2.4941   52.6538   30.0624 H         1 UNK         0.0000 
     42 H42         1.0053   54.8906   28.3895 H         1 UNK         0.0000 
     43 H43         1.9046   55.1875   29.8641 H         1 UNK         0.0000 
     44 H44         2.3043   56.0723   28.4022 H         1 UNK         0.0000 
     45 H45         1.1042   53.1850   26.5893 H         1 UNK         0.0000 
     46 H46         1.2164   53.0261   24.1708 H         1 UNK         0.0000 
     47 H47         5.2707   54.4741   24.2700 H         1 UNK         0.0000 
     48 H48         5.1551   54.6565   26.6729 H         1 UNK         0.0000 
     49 H49         3.3583   50.5199   22.0825 H         1 UNK         0.0000 
     50 H50         2.7039   51.2194   23.5586 H         1 UNK         0.0000 
     51 H51         0.4566   51.2447   22.7196 H         1 UNK         0.0000 
     52 H52         1.1501   49.6394   22.4068 H         1 UNK         0.0000 
     53 H53         0.4766   52.8989   20.4599 H         1 UNK         0.0000 
     54 H54         1.1011   52.1394   18.9858 H         1 UNK         0.0000 
     55 H55         2.9013   53.5485   19.9689 H         1 UNK         0.0000 
     56 H56         3.3587   51.8682   19.9408 H         1 UNK         0.0000 
     57 H57        -0.8098   51.1258   18.2908 H         1 UNK         0.0000 
     58 H58         1.3041   49.9493   17.9099 H         1 UNK         0.0000 
     59 H59         0.6233   48.4674   18.5238 H         1 UNK         0.0000 
     60 H60        -0.1357   49.8426   15.9507 H         1 UNK         0.0000 
     61 H61         0.2562   48.1513   16.1912 H         1 UNK         0.0000 
     62 H62        -2.3524   49.1909   16.1598 H         1 UNK         0.0000 
     63 H63        -1.9353   47.6814   16.9425 H         1 UNK         0.0000 
     64 H64        -2.1971   48.5418   19.0004 H         1 UNK         0.0000 
     65 H65        -2.9046   50.0015   18.3253 H         1 UNK         0.0000 
     66 H66        -1.7181   49.5170   22.3855 H         1 UNK         0.0000 
     67 H67        -3.1040   49.0844   24.1200 H         1 UNK         0.0000 
     68 H68        -4.3639   49.9390   26.0442 H         1 UNK         0.0000 
     69 H69        -3.7646   53.9622   24.6725 H         1 UNK         0.0000 
     70 H70        -2.4766   53.1378   22.7622 H         1 UNK         0.0000 
     71 H71         1.5619   50.1642   20.1737 H         1 UNK         0.0000 
@<TRIPOS>BOND
     1    1    2 1    
     2    1   36 1    
     3    1   37 1    
     4    1   38 1    
     5    2    3 1    
     6    2    4 1    
     7    2    5 1    
     8    3   39 1    
     9    3   40 1    
    10    3   41 1    
    11    4   42 1    
    12    4   43 1    
    13    4   44 1    
    14    5   10 ar   
    15    5    6 ar   
    16    6    7 ar   
    17    6   45 1    
    18    7    8 ar   
    19    7   46 1    
    20    8    9 ar   
    21    8   11 1    
    22    9   10 ar   
    23    9   47 1    
    24   10   48 1    
    25   11   12 2    
    26   11   13 am   BACKBONE|DICT|INTERRES
    27   13   18 1    
    28   13   14 1    
    29   14   15 1    
    30   14   49 1    
    31   14   50 1    
    32   15   16 1    
    33   15   51 1    
    34   15   52 1    
    35   16   17 1    
    36   16   19 1    
    37   16   71 1    
    38   17   18 1    
    39   17   53 1    
    40   17   54 1    
    41   18   55 1    
    42   18   56 1    
    43   19   20 1    
    44   19   21 1    
    45   19   26 1    
    46   21   25 1    
    47   21   22 1    
    48   21   57 1    
    49   22   23 1    
    50   22   58 1    
    51   22   59 1    
    52   23   24 1    
    53   23   60 1    
    54   23   61 1    
    55   24   25 1    
    56   24   62 1    
    57   24   63 1    
    58   25   64 1    
    59   25   65 1    
    60   26   27 2    
    61   26   28 am   BACKBONE|DICT|INTERRES
    62   28   29 1    
    63   28   66 1    
    64   29   34 ar   
    65   29   30 ar   
    66   30   31 ar   
    67   30   67 1    
    68   31   32 ar   
    69   31   68 1    
    70   32   33 ar   
    71   32   35 1    
    72   33   34 ar   
    73   33   69 1    
    74   34   70 1    
@<TRIPOS>SUBSTRUCTURE
     1 UNK         1 GROUP             0       ****    0 ROOT    
