@<TRIPOS>MOLECULE
ZINC31773928_2721
40   42    1
SMALL
USER_CHARGES


@<TRIPOS>ATOM
      1 C1          4.9814   52.4845   20.1238 C.3       1 UNK         0.0000 
      2 C2          4.8944   54.0290   19.9995 C.3       1 UNK         0.0000 
      3 H3          3.9407   54.3519   20.4233 H         1 UNK         0.0000 
      4 C4          4.8360   54.5333   18.5400 C.2       1 UNK         0.0000 
      5 O5          4.5913   55.7246   18.3466 O.2       1 UNK         0.0000 
      6 N6          5.0140   53.6263   17.5512 N.am      1 UNK         0.0000 
      7 C7          5.0161   53.8124   16.1584 C.ar      1 UNK         0.0000 
      8 C8          4.8476   52.6593   15.3878 C.ar      1 UNK         0.0000 
      9 C9          4.8556   52.7374   13.9982 C.ar      1 UNK         0.0000 
     10 C10         5.0378   53.9706   13.3770 C.ar      1 UNK         0.0000 
     11 C11         5.2138   55.1261   14.1353 C.ar      1 UNK         0.0000 
     12 C12         5.2068   55.0510   15.5260 C.ar      1 UNK         0.0000 
     13 Br13        5.0534   54.0764   11.4766 Br        1 UNK         0.0000 
     14 S14         6.2246   54.8968   20.9248 S.3       1 UNK         0.0000 
     15 C15         5.7803   54.5617   22.6426 C.ar      1 UNK         0.0000 
     16 N16         6.6295   54.8774   23.6620 N.pl3     1 UNK         0.0000 
     17 H17         7.5745   55.1734   23.4609 H         1 UNK         0.0000 
     18 C18         6.3038   54.9074   24.9732 C.ar      1 UNK         0.0000 
     19 O19         7.1044   55.2966   25.8134 O.2       1 UNK         0.0000 
     20 C20         4.9495   54.4749   25.2566 C.ar      1 UNK         0.0000 
     21 C21         4.1491   54.0966   24.2192 C.ar      1 UNK         0.0000 
     22 N22         4.6015   54.1308   22.9253 N.2       1 UNK         0.0000 
     23 C23         2.7527   53.6272   24.3357 C.2       1 UNK         0.0000 
     24 C24         1.9236   53.2967   25.4091 C.2       1 UNK         0.0000 
     25 C25         0.7081   52.8528   24.8879 C.2       1 UNK         0.0000 
     26 C26         0.8206   52.9462   23.5162 C.2       1 UNK         0.0000 
     27 O27         2.0458   53.4203   23.1844 O.3       1 UNK         0.0000 
     28 C28         4.5134   54.4572   26.6119 C.1       1 UNK         0.0000 
     29 N29         4.1846   54.4578   27.7212 N.1       1 UNK         0.0000 
     30 H30         4.1456   51.9933   19.6224 H         1 UNK         0.0000 
     31 H31         5.9023   52.0966   19.6834 H         1 UNK         0.0000 
     32 H32         4.9522   52.1532   21.1613 H         1 UNK         0.0000 
     33 H33         5.1051   52.6598   17.8389 H         1 UNK         0.0000 
     34 H34         4.7038   51.6967   15.8600 H         1 UNK         0.0000 
     35 H35         4.7219   51.8437   13.4069 H         1 UNK         0.0000 
     36 H36         5.3612   56.0781   13.6470 H         1 UNK         0.0000 
     37 H37         5.3642   55.9588   16.0876 H         1 UNK         0.0000 
     38 H38         2.1686   53.3383   26.4592 H         1 UNK         0.0000 
     39 H39        -0.1483   52.5023   25.4462 H         1 UNK         0.0000 
     40 H40         0.1581   52.7205   22.6937 H         1 UNK         0.0000 
@<TRIPOS>BOND
     1    1    2 1    
     2    1   30 1    
     3    1   31 1    
     4    1   32 1    
     5    2    3 1    
     6    2    4 1    
     7    2   14 1    
     8    4    5 2    
     9    4    6 am   BACKBONE|DICT|INTERRES
    10    6    7 1    
    11    6   33 1    
    12    7   12 ar   
    13    7    8 ar   
    14    8    9 ar   
    15    8   34 1    
    16    9   10 ar   
    17    9   35 1    
    18   10   11 ar   
    19   10   13 1    
    20   11   12 ar   
    21   11   36 1    
    22   12   37 1    
    23   14   15 1    
    24   15   22 ar   
    25   15   16 ar   
    26   16   17 1    
    27   16   18 ar   
    28   18   19 2    
    29   18   20 ar   
    30   20   21 ar   
    31   20   28 1    
    32   21   22 ar   
    33   21   23 1    
    34   23   27 1    
    35   23   24 2    
    36   24   25 1    
    37   24   38 1    
    38   25   26 2    
    39   25   39 1    
    40   26   27 1    
    41   26   40 1    
    42   28   29 3    
@<TRIPOS>SUBSTRUCTURE
     1 UNK         1 GROUP             0       ****    0 ROOT    
