@<TRIPOS>MOLECULE
ZINC33630820_693
50   53    1
SMALL
USER_CHARGES


@<TRIPOS>ATOM
      1 C1         -3.6338   48.2373   25.8694 C.3       1 UNK         0.0000 
      2 C2         -2.5041   48.7676   25.0063 C.ar      1 UNK         0.0000 
      3 C3         -2.7851   49.6521   23.9626 C.ar      1 UNK         0.0000 
      4 C4         -1.7494   50.1521   23.1773 C.ar      1 UNK         0.0000 
      5 C5         -0.4248   49.7775   23.4323 C.ar      1 UNK         0.0000 
      6 C6         -0.1531   48.8912   24.4803 C.ar      1 UNK         0.0000 
      7 C7         -1.1862   48.3929   25.2671 C.ar      1 UNK         0.0000 
      8 C8          0.6890   50.3058   22.5864 C.2       1 UNK         0.0000 
      9 N9          1.8378   49.6960   22.4164 N.2       1 UNK         0.0000 
     10 N10         2.7050   50.3932   21.5896 N.2       1 UNK         0.0000 
     11 C11         2.1986   51.5308   21.1670 C.2       1 UNK         0.0000 
     12 S12         0.5863   51.8320   21.7374 S.3       1 UNK         0.0000 
     13 N13         2.8109   52.4967   20.3878 N.am      1 UNK         0.0000 
     14 C14         4.1351   52.5870   20.1463 C.2       1 UNK         0.0000 
     15 O15         4.9915   51.7705   20.4881 O.2       1 UNK         0.0000 
     16 C16         4.5897   53.9136   19.5016 C.3       1 UNK         0.0000 
     17 H17         3.7381   54.5921   19.4012 H         1 UNK         0.0000 
     18 C18         5.2128   53.6866   18.1146 C.3       1 UNK         0.0000 
     19 C19         6.1120   54.8925   17.9134 C.3       1 UNK         0.0000 
     20 C20         6.6834   55.1161   19.3062 C.3       1 UNK         0.0000 
     21 N21         5.6469   54.6643   20.2413 N.am      1 UNK         0.0000 
     22 C22         5.7574   54.8953   21.5807 C.2       1 UNK         0.0000 
     23 O23         6.7466   55.4452   22.0706 O.2       1 UNK         0.0000 
     24 N24         4.6940   54.4926   22.3128 N.am      1 UNK         0.0000 
     25 C25         4.5341   54.3778   23.7022 C.ar      1 UNK         0.0000 
     26 C26         3.2384   54.0968   24.1461 C.ar      1 UNK         0.0000 
     27 C27         2.9727   53.9530   25.5081 C.ar      1 UNK         0.0000 
     28 C28         4.0022   54.0899   26.4366 C.ar      1 UNK         0.0000 
     29 C29         5.3001   54.3532   26.0027 C.ar      1 UNK         0.0000 
     30 C30         5.5706   54.4963   24.6401 C.ar      1 UNK         0.0000 
     31 Br31        6.7041   54.4966   27.2755 Br        1 UNK         0.0000 
     32 H32        -4.0603   47.3331   25.4313 H         1 UNK         0.0000 
     33 H33        -4.4272   48.9825   25.9674 H         1 UNK         0.0000 
     34 H34        -3.2939   48.0160   26.8824 H         1 UNK         0.0000 
     35 H35        -3.8029   49.9470   23.7537 H         1 UNK         0.0000 
     36 H36        -1.9857   50.8263   22.3687 H         1 UNK         0.0000 
     37 H37         0.8602   48.5917   24.6985 H         1 UNK         0.0000 
     38 H38        -0.9585   47.7178   26.0820 H         1 UNK         0.0000 
     39 H39         2.2247   53.2606   20.0789 H         1 UNK         0.0000 
     40 H40         5.8163   52.7764   18.1076 H         1 UNK         0.0000 
     41 H41         4.4616   53.5881   17.3279 H         1 UNK         0.0000 
     42 H42         6.8777   54.7388   17.1522 H         1 UNK         0.0000 
     43 H43         5.5067   55.7514   17.6216 H         1 UNK         0.0000 
     44 H44         7.5762   54.5055   19.4555 H         1 UNK         0.0000 
     45 H45         6.9598   56.1615   19.4609 H         1 UNK         0.0000 
     46 H46         3.9037   54.1629   21.7812 H         1 UNK         0.0000 
     47 H47         2.4241   53.9896   23.4421 H         1 UNK         0.0000 
     48 H48         1.9691   53.7374   25.8422 H         1 UNK         0.0000 
     49 H49         3.7989   53.9735   27.4914 H         1 UNK         0.0000 
     50 H50         6.5878   54.6884   24.3360 H         1 UNK         0.0000 
@<TRIPOS>BOND
     1    1    2 1    
     2    1   32 1    
     3    1   33 1    
     4    1   34 1    
     5    2    7 ar   
     6    2    3 ar   
     7    3    4 ar   
     8    3   35 1    
     9    4    5 ar   
    10    4   36 1    
    11    5    6 ar   
    12    5    8 1    
    13    6    7 ar   
    14    6   37 1    
    15    7   38 1    
    16    8   12 1    
    17    8    9 2    
    18    9   10 1    
    19   10   11 2    
    20   11   12 1    
    21   11   13 am   BACKBONE|DICT|INTERRES
    22   13   14 am   BACKBONE|DICT|INTERRES
    23   13   39 1    
    24   14   15 2    
    25   14   16 1    
    26   16   17 1    
    27   16   21 1    
    28   16   18 1    
    29   18   19 1    
    30   18   40 1    
    31   18   41 1    
    32   19   20 1    
    33   19   42 1    
    34   19   43 1    
    35   20   21 1    
    36   20   44 1    
    37   20   45 1    
    38   21   22 am   BACKBONE|DICT|INTERRES
    39   22   23 2    
    40   22   24 am   BACKBONE|DICT|INTERRES
    41   24   25 1    
    42   24   46 1    
    43   25   30 ar   
    44   25   26 ar   
    45   26   27 ar   
    46   26   47 1    
    47   27   28 ar   
    48   27   48 1    
    49   28   29 ar   
    50   28   49 1    
    51   29   30 ar   
    52   29   31 1    
    53   30   50 1    
@<TRIPOS>SUBSTRUCTURE
     1 UNK         1 GROUP             0       ****    0 ROOT    
