@<TRIPOS>MOLECULE
ZINC04565435_1720
39   41    1
SMALL
USER_CHARGES


@<TRIPOS>ATOM
      1 C1         -0.0808   53.7320   28.8651 C.3       1 UNK         0.0000 
      2 C2          1.3346   53.3532   29.2105 C.ar      1 UNK         0.0000 
      3 C3          2.5482   53.5061   28.5447 C.ar      1 UNK         0.0000 
      4 C4          3.4639   52.8695   29.3985 C.ar      1 UNK         0.0000 
      5 N5          2.9363   52.3792   30.4916 N.2       1 UNK         0.0000 
      6 N6          1.6404   52.6773   30.3652 N.pl3     1 UNK         0.0000 
      7 H7          0.9575   52.4099   31.0634 H         1 UNK         0.0000 
      8 O8          4.8078   52.7411   29.1684 O.3       1 UNK         0.0000 
      9 C9          5.2671   53.3880   28.0636 C.2       1 UNK         0.0000 
     10 C10         4.5232   54.0385   27.1346 C.2       1 UNK         0.0000 
     11 C11         2.9789   54.1007   27.1885 C.3       1 UNK         0.0000 
     12 H12         2.7045   55.1569   27.1947 H         1 UNK         0.0000 
     13 C13         2.2576   53.5343   25.9436 C.ar      1 UNK         0.0000 
     14 C14         1.3536   52.4726   26.0411 C.ar      1 UNK         0.0000 
     15 C15         0.6932   51.9865   24.9179 C.ar      1 UNK         0.0000 
     16 C16         0.9148   52.5367   23.6481 C.ar      1 UNK         0.0000 
     17 C17         1.8140   53.6094   23.5533 C.ar      1 UNK         0.0000 
     18 C18         2.4739   54.0968   24.6796 C.ar      1 UNK         0.0000 
     19 N19         0.2448   52.0294   22.4983 N.pl3     1 UNK         0.0000 
     20 C20        -0.6365   50.8671   22.6125 C.3       1 UNK         0.0000 
     21 C21         0.8485   52.2373   21.1806 C.3       1 UNK         0.0000 
     22 C22         5.2118   54.7324   26.0924 C.1       1 UNK         0.0000 
     23 N23         5.8157   55.2969   25.2819 N.1       1 UNK         0.0000 
     24 N24         6.6320   53.2979   28.0810 N.pl3     1 UNK         0.0000 
     25 H25        -0.1099   54.4917   28.0832 H         1 UNK         0.0000 
     26 H26        -0.6391   52.8697   28.5017 H         1 UNK         0.0000 
     27 H27        -0.6161   54.1185   29.7307 H         1 UNK         0.0000 
     28 H28         1.1596   51.9821   26.9811 H         1 UNK         0.0000 
     29 H29         0.0184   51.1564   25.0624 H         1 UNK         0.0000 
     30 H30         2.0124   54.0894   22.6061 H         1 UNK         0.0000 
     31 H31         3.1471   54.9309   24.5560 H         1 UNK         0.0000 
     32 H32        -1.3772   51.0068   23.3997 H         1 UNK         0.0000 
     33 H33        -0.0571   49.9763   22.8547 H         1 UNK         0.0000 
     34 H34        -1.1786   50.6773   21.6850 H         1 UNK         0.0000 
     35 H35         0.9187   53.2965   20.9409 H         1 UNK         0.0000 
     36 H36         1.8602   51.8256   21.1564 H         1 UNK         0.0000 
     37 H37         0.2797   51.7529   20.3858 H         1 UNK         0.0000 
     38 H38         7.1739   53.5884   27.2818 H         1 UNK         0.0000 
     39 H39         7.1187   53.1686   28.9550 H         1 UNK         0.0000 
@<TRIPOS>BOND
     1    1    2 1    
     2    1   25 1    
     3    1   26 1    
     4    1   27 1    
     5    2    6 ar   
     6    2    3 ar   
     7    3   11 1    
     8    3    4 ar   
     9    4    5 ar   
    10    4    8 1    
    11    5    6 ar   
    12    6    7 1    
    13    8    9 1    
    14    9   10 2    
    15    9   24 1    
    16   10   11 1    
    17   10   22 1    
    18   11   12 1    
    19   11   13 1    
    20   13   18 ar   
    21   13   14 ar   
    22   14   15 ar   
    23   14   28 1    
    24   15   16 ar   
    25   15   29 1    
    26   16   17 ar   
    27   16   19 1    
    28   17   18 ar   
    29   17   30 1    
    30   18   31 1    
    31   19   20 1    
    32   19   21 1    
    33   20   32 1    
    34   20   33 1    
    35   20   34 1    
    36   21   35 1    
    37   21   36 1    
    38   21   37 1    
    39   22   23 3    
    40   24   38 1    
    41   24   39 1    
@<TRIPOS>SUBSTRUCTURE
     1 UNK         1 GROUP             0       ****    0 ROOT    
