@<TRIPOS>MOLECULE
ZINC39684187_5553
80   84    1
SMALL
USER_CHARGES


@<TRIPOS>ATOM
      1 C1          2.2587   45.4978   15.7173 C.3       1 UNK         0.0000 
      2 C2          1.2735   45.7408   16.8475 C.ar      1 UNK         0.0000 
      3 C3          0.3856   44.7234   17.2120 C.ar      1 UNK         0.0000 
      4 C4         -0.5296   44.8667   18.2522 C.ar      1 UNK         0.0000 
      5 C5         -0.6025   46.0482   18.9894 C.ar      1 UNK         0.0000 
      6 C6          0.2580   47.1097   18.6658 C.ar      1 UNK         0.0000 
      7 C7          0.4559   48.4366   19.1996 C.ar      1 UNK         0.0000 
      8 C8          1.4897   48.9764   18.4653 C.ar      1 UNK         0.0000 
      9 N9          1.9044   48.0963   17.5042 N.pl3     1 UNK         0.0000 
     10 C10         1.1831   46.9285   17.5896 C.ar      1 UNK         0.0000 
     11 C11        -0.2464   49.0791   20.3766 C.3       1 UNK         0.0000 
     12 C12        -0.6515   50.5542   20.1268 C.3       1 UNK         0.0000 
     13 N13        -0.6875   51.3302   21.3686 N.am      1 UNK         0.0000 
     14 C14         0.4130   51.8088   21.9768 C.2       1 UNK         0.0000 
     15 O15         1.5322   51.7221   21.4655 O.2       1 UNK         0.0000 
     16 C16         0.2085   52.4021   23.3959 C.3       1 UNK         0.0000 
     17 H17        -0.5737   53.1600   23.3459 H         1 UNK         0.0000 
     18 C18         1.5158   53.1105   23.8156 C.3       1 UNK         0.0000 
     19 N19         1.5054   53.0484   25.2769 N.am      1 UNK         0.0000 
     20 C20         0.4762   52.1446   25.7862 C.3       1 UNK         0.0000 
     21 C21        -0.0256   51.3649   24.5367 C.3       1 UNK         0.0000 
     22 C22         0.7807   50.0382   24.3231 C.3       1 UNK         0.0000 
     23 C23         0.6278   49.0549   25.4977 C.3       1 UNK         0.0000 
     24 N24        -0.8717   48.7453   25.6887 N.4       1 UNK         0.0000 
     25 C25        -1.7594   50.0014   25.8339 C.3       1 UNK         0.0000 
     26 C26        -1.5067   50.9195   24.6234 C.3       1 UNK         0.0000 
     27 C27         2.3792   53.7799   26.0097 C.2       1 UNK         0.0000 
     28 O28         3.2146   54.4967   25.4467 O.2       1 UNK         0.0000 
     29 C29         2.3526   53.7302   27.5684 C.3       1 UNK         0.0000 
     30 H30         2.3307   52.6755   27.8273 H         1 UNK         0.0000 
     31 C31         1.1557   54.4524   28.1933 C.3       1 UNK         0.0000 
     32 C32         1.7664   55.1952   29.3460 C.2       1 UNK         0.0000 
     33 N33         3.0244   55.1895   29.2818 N.2       1 UNK         0.0000 
     34 N34         3.4901   54.4218   28.1915 N.pl3     1 UNK         0.0000 
     35 C35         4.6923   53.6243   28.5371 C.3       1 UNK         0.0000 
     36 C36         5.7624   54.5595   29.1378 C.3       1 UNK         0.0000 
     37 C37         5.3547   53.0939   27.2554 C.3       1 UNK         0.0000 
     38 C38         4.3048   52.4798   29.5199 C.3       1 UNK         0.0000 
     39 C39         0.9605   55.9200   30.3928 C.3       1 UNK         0.0000 
     40 H40         2.1437   44.5101   15.2697 H         1 UNK         0.0000 
     41 H41         2.1195   46.2431   14.9318 H         1 UNK         0.0000 
     42 H42         3.2826   45.5849   16.0842 H         1 UNK         0.0000 
     43 H43         0.4058   43.7867   16.6738 H         1 UNK         0.0000 
     44 H44        -1.1938   44.0491   18.4873 H         1 UNK         0.0000 
     45 H45        -1.3144   46.1416   19.7962 H         1 UNK         0.0000 
     46 H46         1.9978   49.9285   18.5531 H         1 UNK         0.0000 
     47 H47         2.6784   48.3293   16.8821 H         1 UNK         0.0000 
     48 H48         0.4377   49.0132   21.2213 H         1 UNK         0.0000 
     49 H49        -1.1340   48.5159   20.6695 H         1 UNK         0.0000 
     50 H50        -1.6187   50.5988   19.6271 H         1 UNK         0.0000 
     51 H51         0.0484   51.0439   19.4459 H         1 UNK         0.0000 
     52 H52        -1.5871   51.4490   21.8108 H         1 UNK         0.0000 
     53 H53         1.5628   54.1294   23.4255 H         1 UNK         0.0000 
     54 H54         2.3976   52.5384   23.5216 H         1 UNK         0.0000 
     55 H55         0.7639   51.5043   26.6181 H         1 UNK         0.0000 
     56 H56        -0.3413   52.7799   26.1359 H         1 UNK         0.0000 
     57 H57         0.4851   49.5345   23.4061 H         1 UNK         0.0000 
     58 H58         1.8452   50.2532   24.1852 H         1 UNK         0.0000 
     59 H59         1.1026   48.0968   25.2938 H         1 UNK         0.0000 
     60 H60         1.0018   49.4203   26.4537 H         1 UNK         0.0000 
     61 H61        -1.2092   48.1580   24.9405 H         1 UNK         0.0000 
     62 H62        -2.7870   49.6418   25.8913 H         1 UNK         0.0000 
     63 H63        -1.4990   50.4544   26.7909 H         1 UNK         0.0000 
     64 H64        -2.1405   51.8007   24.7408 H         1 UNK         0.0000 
     65 H65        -1.8445   50.4454   23.7009 H         1 UNK         0.0000 
     66 H66         0.3934   53.7424   28.5184 H         1 UNK         0.0000 
     67 H67         0.7044   55.2084   27.5669 H         1 UNK         0.0000 
     68 H68         6.7291   54.0722   29.2795 H         1 UNK         0.0000 
     69 H69         5.4599   54.9884   30.0845 H         1 UNK         0.0000 
     70 H70         5.9260   55.4096   28.4755 H         1 UNK         0.0000 
     71 H71         4.6705   52.4976   26.6716 H         1 UNK         0.0000 
     72 H72         5.6691   53.9017   26.5948 H         1 UNK         0.0000 
     73 H73         6.2381   52.4968   27.4769 H         1 UNK         0.0000 
     74 H74         3.7433   51.6875   29.0314 H         1 UNK         0.0000 
     75 H75         5.1529   52.0014   29.9845 H         1 UNK         0.0000 
     76 H76         3.6915   52.8447   30.3425 H         1 UNK         0.0000 
     77 H77         0.6807   56.8987   30.0198 H         1 UNK         0.0000 
     78 H78         0.0608   55.3635   30.6575 H         1 UNK         0.0000 
     79 H79         1.5358   56.0872   31.3009 H         1 UNK         0.0000 
     80 H80        -0.9756   48.2226   26.5609 H         1 UNK         0.0000 
@<TRIPOS>BOND
     1    1   40 1    
     2    1   41 1    
     3    1   42 1    
     4    1    2 1    
     5    2   10 ar   
     6    2    3 ar   
     7    3   43 1    
     8    3    4 ar   
     9    4   44 1    
    10    4    5 ar   
    11    5   45 1    
    12    5    6 ar   
    13    6   10 ar   
    14    6    7 ar   
    15    7   11 1    
    16    7    8 ar   
    17    8    9 ar   
    18    8   46 1    
    19    9   47 1    
    20    9   10 ar   
    21   11   12 1    
    22   11   48 1    
    23   11   49 1    
    24   12   13 1    
    25   12   50 1    
    26   12   51 1    
    27   13   14 am   BACKBONE|DICT|INTERRES
    28   13   52 1    
    29   14   15 2    
    30   14   16 1    
    31   16   17 1    
    32   16   21 1    
    33   16   18 1    
    34   18   19 1    
    35   18   53 1    
    36   18   54 1    
    37   19   20 1    
    38   19   27 am   BACKBONE|DICT|INTERRES
    39   20   21 1    
    40   20   55 1    
    41   20   56 1    
    42   21   26 1    
    43   21   22 1    
    44   22   23 1    
    45   22   57 1    
    46   22   58 1    
    47   23   24 1    
    48   23   59 1    
    49   23   60 1    
    50   24   25 1    
    51   24   61 1    
    52   24   80 1    
    53   25   26 1    
    54   25   62 1    
    55   25   63 1    
    56   26   64 1    
    57   26   65 1    
    58   27   28 2    
    59   27   29 1    
    60   29   30 1    
    61   29   34 1    
    62   29   31 1    
    63   31   32 1    
    64   31   66 1    
    65   31   67 1    
    66   32   33 2    
    67   32   39 1    
    68   33   34 1    
    69   34   35 1    
    70   35   36 1    
    71   35   37 1    
    72   35   38 1    
    73   36   68 1    
    74   36   69 1    
    75   36   70 1    
    76   37   71 1    
    77   37   72 1    
    78   37   73 1    
    79   38   74 1    
    80   38   75 1    
    81   38   76 1    
    82   39   77 1    
    83   39   78 1    
    84   39   79 1    
@<TRIPOS>SUBSTRUCTURE
     1 UNK         1 GROUP             0       ****    0 ROOT    
