@<TRIPOS>MOLECULE
ZINC21228572_2305
61   64    1
SMALL
USER_CHARGES


@<TRIPOS>ATOM
      1 C1          5.6258   54.2349   28.9013 C.3       1 UNK         0.0000 
      2 C2          5.1361   53.8762   27.4984 C.3       1 UNK         0.0000 
      3 H3          5.2936   52.8026   27.3722 H         1 UNK         0.0000 
      4 C4          3.6438   54.2257   27.3373 C.3       1 UNK         0.0000 
      5 C5          3.0621   53.7020   26.0133 C.3       1 UNK         0.0000 
      6 C6          4.0462   53.9674   24.8716 C.2       1 UNK         0.0000 
      7 C7          5.3688   54.3713   25.0776 C.2       1 UNK         0.0000 
      8 S8          6.2985   54.5516   23.6070 S.3       1 UNK         0.0000 
      9 C9          4.9299   53.9880   22.6734 C.ar      1 UNK         0.0000 
     10 C10         3.7962   53.6990   23.4909 C.ar      1 UNK         0.0000 
     11 C11         2.6820   53.1665   22.8019 C.ar      1 UNK         0.0000 
     12 N12         2.7304   52.9168   21.4752 N.ar      1 UNK         0.0000 
     13 C13         3.8657   53.2529   20.8167 C.ar      1 UNK         0.0000 
     14 N14         4.9815   53.8089   21.3517 N.ar      1 UNK         0.0000 
     15 S15         3.9314   52.8968   19.0948 S.3       1 UNK         0.0000 
     16 C16         2.6956   51.5960   18.7663 C.3       1 UNK         0.0000 
     17 C17         1.3812   52.1554   18.2080 C.2       1 UNK         0.0000 
     18 O18         0.4106   52.1776   18.9690 O.2       1 UNK         0.0000 
     19 N19         1.3127   52.5768   16.9122 N.am      1 UNK         0.0000 
     20 C20         0.0512   53.1277   16.3602 C.3       1 UNK         0.0000 
     21 C21        -0.5092   54.4146   17.0328 C.3       1 UNK         0.0000 
     22 C22         0.5054   55.5711   17.1191 C.3       1 UNK         0.0000 
     23 C23        -1.7982   54.8731   16.3298 C.3       1 UNK         0.0000 
     24 C24         2.4386   52.3959   15.9629 C.3       1 UNK         0.0000 
     25 H25         3.3536   52.0276   16.4276 H         1 UNK         0.0000 
     26 C26         2.9143   53.7209   15.3023 C.3       1 UNK         0.0000 
     27 C27         3.5918   53.4250   13.9574 C.3       1 UNK         0.0000 
     28 S28         2.4484   52.1615   13.2062 S.o2      1 UNK         0.0000 
     29 O29         3.1914   51.2408   12.3410 O.2       1 UNK         0.0000 
     30 O30         1.2399   52.8361   12.7223 O.2       1 UNK         0.0000 
     31 C31         2.0869   51.3677   14.8577 C.3       1 UNK         0.0000 
     32 N32         1.4898   52.8240   23.4393 N.pl3     1 UNK         0.0000 
     33 C33         5.9804   54.6281   26.4447 C.3       1 UNK         0.0000 
     34 H34         5.5054   55.2968   29.1142 H         1 UNK         0.0000 
     35 H35         5.0628   53.6879   29.6591 H         1 UNK         0.0000 
     36 H36         6.6823   53.9921   29.0250 H         1 UNK         0.0000 
     37 H37         3.0734   53.7963   28.1623 H         1 UNK         0.0000 
     38 H38         3.4927   55.2968   27.4431 H         1 UNK         0.0000 
     39 H39         2.0955   54.1687   25.8287 H         1 UNK         0.0000 
     40 H40         2.8704   52.6323   26.0983 H         1 UNK         0.0000 
     41 H41         2.4947   51.0301   19.6752 H         1 UNK         0.0000 
     42 H42         3.1043   50.8498   18.0874 H         1 UNK         0.0000 
     43 H43         0.1759   53.3226   15.2947 H         1 UNK         0.0000 
     44 H44        -0.7031   52.3407   16.4077 H         1 UNK         0.0000 
     45 H45        -0.7973   54.1652   18.0537 H         1 UNK         0.0000 
     46 H46         0.7766   55.9461   16.1323 H         1 UNK         0.0000 
     47 H47         0.0951   56.4107   17.6813 H         1 UNK         0.0000 
     48 H48         1.4209   55.2650   17.6269 H         1 UNK         0.0000 
     49 H49        -1.6082   55.1524   15.2924 H         1 UNK         0.0000 
     50 H50        -2.5505   54.0835   16.3271 H         1 UNK         0.0000 
     51 H51        -2.2372   55.7378   16.8290 H         1 UNK         0.0000 
     52 H52         3.5519   54.2892   15.9818 H         1 UNK         0.0000 
     53 H53         2.0697   54.3771   15.1010 H         1 UNK         0.0000 
     54 H54         4.5494   52.9371   14.1390 H         1 UNK         0.0000 
     55 H55         3.7456   54.2590   13.2744 H         1 UNK         0.0000 
     56 H56         1.1626   50.7948   14.9049 H         1 UNK         0.0000 
     57 H57         2.8712   50.6126   14.9375 H         1 UNK         0.0000 
     58 H58         1.3953   52.9498   24.4360 H         1 UNK         0.0000 
     59 H59         0.7458   52.4225   22.8866 H         1 UNK         0.0000 
     60 H60         7.0170   54.2901   26.4769 H         1 UNK         0.0000 
     61 H61         5.9893   55.6965   26.6496 H         1 UNK         0.0000 
@<TRIPOS>BOND
     1    1    2 1    
     2    1   34 1    
     3    1   35 1    
     4    1   36 1    
     5    2    3 1    
     6    2   33 1    
     7    2    4 1    
     8    4    5 1    
     9    4   37 1    
    10    4   38 1    
    11    5    6 1    
    12    5   39 1    
    13    5   40 1    
    14    6   10 1    
    15    6    7 2    
    16    7    8 1    
    17    7   33 1    
    18    8    9 1    
    19    9   14 ar   
    20    9   10 ar   
    21   10   11 ar   
    22   11   12 ar   
    23   11   32 1    
    24   12   13 ar   
    25   13   14 ar   
    26   13   15 1    
    27   15   16 1    
    28   16   17 1    
    29   16   41 1    
    30   16   42 1    
    31   17   18 2    
    32   17   19 am   BACKBONE|DICT|INTERRES
    33   19   20 1    
    34   19   24 1    
    35   20   21 1    
    36   20   43 1    
    37   20   44 1    
    38   21   22 1    
    39   21   23 1    
    40   21   45 1    
    41   22   46 1    
    42   22   47 1    
    43   22   48 1    
    44   23   49 1    
    45   23   50 1    
    46   23   51 1    
    47   24   25 1    
    48   24   31 1    
    49   24   26 1    
    50   26   27 1    
    51   26   52 1    
    52   26   53 1    
    53   27   28 1    
    54   27   54 1    
    55   27   55 1    
    56   28   29 2    
    57   28   30 2    
    58   28   31 1    
    59   31   56 1    
    60   31   57 1    
    61   32   58 1    
    62   32   59 1    
    63   33   60 1    
    64   33   61 1    
@<TRIPOS>SUBSTRUCTURE
     1 UNK         1 GROUP             0       ****    0 ROOT    
