@<TRIPOS>MOLECULE
ZINC40569371_4345
54   57    1
SMALL
USER_CHARGES


@<TRIPOS>ATOM
      1 C1          1.8652   54.9067   30.0088 C.3       1 UNK         0.0000 
      2 C2          3.3113   54.8141   29.4884 C.3       1 UNK         0.0000 
      3 C3          3.6352   53.5015   28.7427 C.3       1 UNK         0.0000 
      4 C4          2.7573   53.2118   27.5244 C.ar      1 UNK         0.0000 
      5 C5          1.7000   52.3782   27.6457 C.ar      1 UNK         0.0000 
      6 C6          0.9160   52.0902   26.4681 C.ar      1 UNK         0.0000 
      7 C7          1.2042   52.6807   25.2806 C.ar      1 UNK         0.0000 
      8 C8          2.2600   53.6972   25.2061 C.ar      1 UNK         0.0000 
      9 O9          2.3268   54.4406   24.2260 O.2       1 UNK         0.0000 
     10 N10         3.0858   53.8289   26.3128 N.pl3     1 UNK         0.0000 
     11 C11         4.2522   54.7331   26.1270 C.3       1 UNK         0.0000 
     12 C12         5.4931   54.0258   25.5295 C.3       1 UNK         0.0000 
     13 H13         5.7046   53.1015   26.0679 H         1 UNK         0.0000 
     14 C14         5.5389   53.8914   23.9896 C.3       1 UNK         0.0000 
     15 C15         6.6125   54.8454   23.5214 C.3       1 UNK         0.0000 
     16 C16         6.8757   55.7159   24.7316 C.3       1 UNK         0.0000 
     17 O17         6.6187   54.8552   25.8307 O.3       1 UNK         0.0000 
     18 C18         0.4296   52.2907   23.9940 C.3       1 UNK         0.0000 
     19 H19        -0.0132   53.1923   23.5652 H         1 UNK         0.0000 
     20 C20        -0.7801   51.4165   24.3766 C.2       1 UNK         0.0000 
     21 C21        -0.9052   50.8976   25.6176 C.2       1 UNK         0.0000 
     22 O22        -0.0499   51.1573   26.6330 O.3       1 UNK         0.0000 
     23 N23        -1.8724   50.0494   26.0818 N.pl3     1 UNK         0.0000 
     24 C24        -1.7516   51.1338   23.3702 C.1       1 UNK         0.0000 
     25 N25        -2.5406   50.9426   22.5454 N.1       1 UNK         0.0000 
     26 C26         1.3180   51.6722   22.8938 C.ar      1 UNK         0.0000 
     27 C27         1.4899   50.2819   22.8016 C.ar      1 UNK         0.0000 
     28 C28         2.3044   49.7287   21.8144 C.ar      1 UNK         0.0000 
     29 C29         2.9901   50.5595   20.9298 C.ar      1 UNK         0.0000 
     30 C30         2.8624   51.9417   21.0327 C.ar      1 UNK         0.0000 
     31 C31         2.0008   52.4922   21.9815 C.ar      1 UNK         0.0000 
     32 Br32        3.9039   53.0754   19.9118 Br        1 UNK         0.0000 
     33 H33         1.7201   55.8143   30.5956 H         1 UNK         0.0000 
     34 H34         1.1507   54.9393   29.1859 H         1 UNK         0.0000 
     35 H35         1.6028   54.0544   30.6376 H         1 UNK         0.0000 
     36 H36         4.0032   54.8956   30.3252 H         1 UNK         0.0000 
     37 H37         3.5056   55.6848   28.8639 H         1 UNK         0.0000 
     38 H38         3.5318   52.6776   29.4519 H         1 UNK         0.0000 
     39 H39         4.6902   53.4688   28.4633 H         1 UNK         0.0000 
     40 H40         1.4495   51.9103   28.5875 H         1 UNK         0.0000 
     41 H41         3.9886   55.5782   25.4909 H         1 UNK         0.0000 
     42 H42         4.5363   55.1813   27.0750 H         1 UNK         0.0000 
     43 H43         5.8483   52.8966   23.6815 H         1 UNK         0.0000 
     44 H44         4.6062   54.1487   23.4943 H         1 UNK         0.0000 
     45 H45         7.5087   54.2916   23.2474 H         1 UNK         0.0000 
     46 H46         6.3068   55.4291   22.6509 H         1 UNK         0.0000 
     47 H47         7.8948   56.0969   24.7632 H         1 UNK         0.0000 
     48 H48         6.2133   56.5799   24.7886 H         1 UNK         0.0000 
     49 H49        -2.6424   49.7672   25.4946 H         1 UNK         0.0000 
     50 H50        -1.6964   49.4915   26.9184 H         1 UNK         0.0000 
     51 H51         0.9936   49.6193   23.4967 H         1 UNK         0.0000 
     52 H52         2.4281   48.6578   21.7505 H         1 UNK         0.0000 
     53 H53         3.6324   50.1366   20.1723 H         1 UNK         0.0000 
     54 H54         1.8930   53.5665   22.0113 H         1 UNK         0.0000 
@<TRIPOS>BOND
     1    1    2 1    
     2    1   33 1    
     3    1   34 1    
     4    1   35 1    
     5    2    3 1    
     6    2   36 1    
     7    2   37 1    
     8    3    4 1    
     9    3   38 1    
    10    3   39 1    
    11    4   10 ar   
    12    4    5 ar   
    13    5    6 ar   
    14    5   40 1    
    15    6   22 1    
    16    6    7 ar   
    17    7    8 ar   
    18    7   18 1    
    19    8    9 2    
    20    8   10 ar   
    21   10   11 1    
    22   11   12 1    
    23   11   41 1    
    24   11   42 1    
    25   12   13 1    
    26   12   17 1    
    27   12   14 1    
    28   14   15 1    
    29   14   43 1    
    30   14   44 1    
    31   15   16 1    
    32   15   45 1    
    33   15   46 1    
    34   16   17 1    
    35   16   47 1    
    36   16   48 1    
    37   18   19 1    
    38   18   20 1    
    39   18   26 1    
    40   20   21 2    
    41   20   24 1    
    42   21   22 1    
    43   21   23 1    
    44   23   49 1    
    45   23   50 1    
    46   24   25 3    
    47   26   31 ar   
    48   26   27 ar   
    49   27   28 ar   
    50   27   51 1    
    51   28   29 ar   
    52   28   52 1    
    53   29   30 ar   
    54   29   53 1    
    55   30   31 ar   
    56   30   32 1    
    57   31   54 1    
@<TRIPOS>SUBSTRUCTURE
     1 UNK         1 GROUP             0       ****    0 ROOT    
