@<TRIPOS>MOLECULE
ZINC00493301_4767
33   34    1
SMALL
USER_CHARGES


@<TRIPOS>ATOM
      1 C1          0.3435   49.6377   19.2878 C.3       1 UNK         0.0000 
      2 C2          0.3882   50.6690   20.4102 C.2       1 UNK         0.0000 
      3 C3         -0.7851   51.0808   21.0638 C.2       1 UNK         0.0000 
      4 S4         -0.4362   52.0958   22.4160 S.3       1 UNK         0.0000 
      5 C5          1.2710   52.0244   22.1134 C.2       1 UNK         0.0000 
      6 C6          1.5707   51.2515   20.9786 C.2       1 UNK         0.0000 
      7 C7          2.9497   51.0415   20.5286 C.2       1 UNK         0.0000 
      8 O8          3.9298   51.2967   21.2300 O.2       1 UNK         0.0000 
      9 N9          3.1044   50.6129   19.2817 N.am      1 UNK         0.0000 
     10 N10         2.2086   52.6636   22.9230 N.am      1 UNK         0.0000 
     11 C11         2.0208   53.4318   24.0134 C.2       1 UNK         0.0000 
     12 O12         0.9219   53.7181   24.4817 O.2       1 UNK         0.0000 
     13 C13         3.2866   53.8918   24.6985 C.ar      1 UNK         0.0000 
     14 C14         3.2852   54.0760   26.0880 C.ar      1 UNK         0.0000 
     15 C15         4.4602   54.4028   26.7567 C.ar      1 UNK         0.0000 
     16 C16         5.6411   54.5610   26.0387 C.ar      1 UNK         0.0000 
     17 C17         5.6520   54.4327   24.6523 C.ar      1 UNK         0.0000 
     18 C18         4.4781   54.0967   23.9819 C.ar      1 UNK         0.0000 
     19 Cl19        7.1044   54.8967   26.8817 Cl        1 UNK         0.0000 
     20 C20        -2.2311   50.7375   20.7725 C.3       1 UNK         0.0000 
     21 H21        -0.5648   49.0363   19.2960 H         1 UNK         0.0000 
     22 H22         0.4342   50.0969   18.3032 H         1 UNK         0.0000 
     23 H23         1.1460   48.9051   19.3770 H         1 UNK         0.0000 
     24 H24         2.3094   50.4026   18.7015 H         1 UNK         0.0000 
     25 H25         4.0462   50.4967   18.8728 H         1 UNK         0.0000 
     26 H26         3.1646   52.4968   22.6385 H         1 UNK         0.0000 
     27 H27         2.3811   53.9295   26.6632 H         1 UNK         0.0000 
     28 H28         4.4591   54.5122   27.8313 H         1 UNK         0.0000 
     29 H29         6.5714   54.5657   24.1002 H         1 UNK         0.0000 
     30 H30         4.5147   53.9816   22.9074 H         1 UNK         0.0000 
     31 H31        -2.3759   50.3042   19.7835 H         1 UNK         0.0000 
     32 H32        -2.6234   50.0237   21.4972 H         1 UNK         0.0000 
     33 H33        -2.8692   51.6200   20.8172 H         1 UNK         0.0000 
@<TRIPOS>BOND
     1    1    2 1    
     2    1   21 1    
     3    1   22 1    
     4    1   23 1    
     5    2    6 1    
     6    2    3 2    
     7    3    4 1    
     8    3   20 1    
     9    4    5 1    
    10    5    6 2    
    11    5   10 am   BACKBONE|DICT|INTERRES
    12    6    7 1    
    13    7    8 2    
    14    7    9 am   BACKBONE|DICT|INTERRES
    15    9   24 1    
    16    9   25 1    
    17   10   11 am   BACKBONE|DICT|INTERRES
    18   10   26 1    
    19   11   12 2    
    20   11   13 1    
    21   13   18 ar   
    22   13   14 ar   
    23   14   15 ar   
    24   14   27 1    
    25   15   16 ar   
    26   15   28 1    
    27   16   17 ar   
    28   16   19 1    
    29   17   18 ar   
    30   17   29 1    
    31   18   30 1    
    32   20   31 1    
    33   20   32 1    
    34   20   33 1    
@<TRIPOS>SUBSTRUCTURE
     1 UNK         1 GROUP             0       ****    0 ROOT    
