@<TRIPOS>MOLECULE
ZINC16448595_2863
66   68    1
SMALL
USER_CHARGES


@<TRIPOS>ATOM
      1 C1          0.6878   51.0954   21.7308 C.3       1 UNK         0.0000 
      2 C2          1.9082   51.5753   22.5328 C.3       1 UNK         0.0000 
      3 C3          2.4702   52.9526   22.0920 C.3       1 UNK         0.0000 
      4 H4          1.6427   53.6677   22.0629 H         1 UNK         0.0000 
      5 C5          3.1054   52.8975   20.6909 C.3       1 UNK         0.0000 
      6 N6          3.4575   53.4606   23.0433 N.am      1 UNK         0.0000 
      7 C7          3.1730   53.9637   24.2577 C.2       1 UNK         0.0000 
      8 O8          2.0147   54.0968   24.6548 O.2       1 UNK         0.0000 
      9 C9          4.3622   54.2583   25.1632 C.ar      1 UNK         0.0000 
     10 C10         5.5776   54.6633   24.5859 C.ar      1 UNK         0.0000 
     11 C11         6.7040   54.8962   25.3658 C.ar      1 UNK         0.0000 
     12 C12         6.6390   54.7344   26.7455 C.ar      1 UNK         0.0000 
     13 C13         5.4481   54.3448   27.3475 C.ar      1 UNK         0.0000 
     14 C14         4.3024   54.0977   26.5742 C.ar      1 UNK         0.0000 
     15 N15         3.0883   53.6681   27.1481 N.am      1 UNK         0.0000 
     16 C16         2.7821   53.1913   28.3747 C.2       1 UNK         0.0000 
     17 O17         3.5544   53.1580   29.3363 O.2       1 UNK         0.0000 
     18 C18         1.3646   52.6762   28.5137 C.ar      1 UNK         0.0000 
     19 C19         0.8024   52.5049   29.7844 C.ar      1 UNK         0.0000 
     20 C20        -0.4953   52.0220   29.9257 C.ar      1 UNK         0.0000 
     21 C21        -1.2706   51.6957   28.8092 C.ar      1 UNK         0.0000 
     22 C22        -0.7280   51.8778   27.5253 C.ar      1 UNK         0.0000 
     23 C23         0.5843   52.3445   27.3932 C.ar      1 UNK         0.0000 
     24 S24        -1.6818   51.6049   26.0221 S.o2      1 UNK         0.0000 
     25 O25        -2.8490   52.4911   26.0972 O.2       1 UNK         0.0000 
     26 O26        -0.7620   51.6860   24.8810 O.2       1 UNK         0.0000 
     27 N27        -2.2922   49.9407   26.0819 N.pl3     1 UNK         0.0000 
     28 C28        -2.2805   49.0993   24.9625 C.ar      1 UNK         0.0000 
     29 C29        -1.7017   47.8392   25.1294 C.ar      1 UNK         0.0000 
     30 C30        -1.7023   46.9150   24.0870 C.ar      1 UNK         0.0000 
     31 C31        -2.2555   47.2500   22.8518 C.ar      1 UNK         0.0000 
     32 C32        -2.8392   48.5068   22.6778 C.ar      1 UNK         0.0000 
     33 C33        -2.8772   49.4307   23.7289 C.ar      1 UNK         0.0000 
     34 C34        -3.6243   50.7398   23.5057 C.3       1 UNK         0.0000 
     35 C35        -2.2205   46.2598   21.7024 C.3       1 UNK         0.0000 
     36 C36        -2.6636   51.1143   29.0394 C.3       1 UNK         0.0000 
     37 H37         0.3024   50.1580   22.1340 H         1 UNK         0.0000 
     38 H38         0.9315   50.9191   20.6811 H         1 UNK         0.0000 
     39 H39        -0.1228   51.8234   21.7759 H         1 UNK         0.0000 
     40 H40         1.6073   51.6225   23.5808 H         1 UNK         0.0000 
     41 H41         2.6952   50.8207   22.4896 H         1 UNK         0.0000 
     42 H42         2.3783   52.5972   19.9371 H         1 UNK         0.0000 
     43 H43         3.4957   53.8701   20.3890 H         1 UNK         0.0000 
     44 H44         3.9168   52.1702   20.6459 H         1 UNK         0.0000 
     45 H45         4.4206   53.4219   22.7504 H         1 UNK         0.0000 
     46 H46         5.6659   54.8027   23.5181 H         1 UNK         0.0000 
     47 H47         7.6204   55.1989   24.8816 H         1 UNK         0.0000 
     48 H48         7.5048   54.9118   27.3650 H         1 UNK         0.0000 
     49 H49         5.4458   54.2502   28.4216 H         1 UNK         0.0000 
     50 H50         2.3370   53.6606   26.4695 H         1 UNK         0.0000 
     51 H51         1.3665   52.7349   30.6786 H         1 UNK         0.0000 
     52 H52        -0.8943   51.8807   30.9197 H         1 UNK         0.0000 
     53 H53         0.9813   52.4576   26.3947 H         1 UNK         0.0000 
     54 H54        -1.9844   49.4632   26.9277 H         1 UNK         0.0000 
     55 H55        -1.2696   47.5667   26.0835 H         1 UNK         0.0000 
     56 H56        -1.2947   45.9322   24.2547 H         1 UNK         0.0000 
     57 H57        -3.2856   48.7541   21.7244 H         1 UNK         0.0000 
     58 H58        -4.3387   50.6607   22.6854 H         1 UNK         0.0000 
     59 H59        -4.2064   51.0026   24.3892 H         1 UNK         0.0000 
     60 H60        -2.9294   51.5527   23.2985 H         1 UNK         0.0000 
     61 H61        -2.1241   46.7803   20.7491 H         1 UNK         0.0000 
     62 H62        -1.3587   45.5950   21.7768 H         1 UNK         0.0000 
     63 H63        -3.1351   45.6652   21.6803 H         1 UNK         0.0000 
     64 H64        -2.8507   50.8968   30.0928 H         1 UNK         0.0000 
     65 H65        -3.4431   51.7730   28.6587 H         1 UNK         0.0000 
     66 H66        -2.7914   50.1585   28.5397 H         1 UNK         0.0000 
@<TRIPOS>BOND
     1    1    2 1    
     2    1   37 1    
     3    1   38 1    
     4    1   39 1    
     5    2    3 1    
     6    2   40 1    
     7    2   41 1    
     8    3    4 1    
     9    3    5 1    
    10    3    6 1    
    11    5   42 1    
    12    5   43 1    
    13    5   44 1    
    14    6    7 am   BACKBONE|DICT|INTERRES
    15    6   45 1    
    16    7    8 2    
    17    7    9 1    
    18    9   14 ar   
    19    9   10 ar   
    20   10   11 ar   
    21   10   46 1    
    22   11   12 ar   
    23   11   47 1    
    24   12   13 ar   
    25   12   48 1    
    26   13   14 ar   
    27   13   49 1    
    28   14   15 1    
    29   15   16 am   BACKBONE|DICT|INTERRES
    30   15   50 1    
    31   16   17 2    
    32   16   18 1    
    33   18   23 ar   
    34   18   19 ar   
    35   19   20 ar   
    36   19   51 1    
    37   20   21 ar   
    38   20   52 1    
    39   21   22 ar   
    40   21   36 1    
    41   22   23 ar   
    42   22   24 1    
    43   23   53 1    
    44   24   25 2    
    45   24   26 2    
    46   24   27 1    
    47   27   28 1    
    48   27   54 1    
    49   28   33 ar   
    50   28   29 ar   
    51   29   30 ar   
    52   29   55 1    
    53   30   31 ar   
    54   30   56 1    
    55   31   32 ar   
    56   31   35 1    
    57   32   33 ar   
    58   32   57 1    
    59   33   34 1    
    60   34   58 1    
    61   34   59 1    
    62   34   60 1    
    63   35   61 1    
    64   35   62 1    
    65   35   63 1    
    66   36   64 1    
    67   36   65 1    
    68   36   66 1    
@<TRIPOS>SUBSTRUCTURE
     1 UNK         1 GROUP             0       ****    0 ROOT    
