@<TRIPOS>MOLECULE
ZINC01886585_5771
74   77    1
SMALL
USER_CHARGES


@<TRIPOS>ATOM
      1 C1          0.3158   54.1615   30.1675 C.3       1 UNK         0.0000 
      2 C2          0.3801   52.6332   30.0370 C.3       1 UNK         0.0000 
      3 O3         -0.3744   52.1760   28.9185 O.3       1 UNK         0.0000 
      4 C4          0.1116   52.3014   27.6305 C.ar      1 UNK         0.0000 
      5 C5          1.3545   52.8434   27.2880 C.ar      1 UNK         0.0000 
      6 C6          1.7560   52.8771   25.9566 C.ar      1 UNK         0.0000 
      7 C7          0.9229   52.3852   24.9357 C.ar      1 UNK         0.0000 
      8 C8         -0.3303   51.8422   25.2585 C.ar      1 UNK         0.0000 
      9 C9         -0.7066   51.8137   26.6143 C.ar      1 UNK         0.0000 
     10 C10        -1.1667   51.2441   24.1597 C.2       1 UNK         0.0000 
     11 C11        -0.5240   50.8475   23.0178 C.2       1 UNK         0.0000 
     12 C12         1.0491   50.9203   22.9068 C.3       1 UNK         0.0000 
     13 N13         1.4414   52.1976   23.6263 N.am      1 UNK         0.0000 
     14 C14         1.9063   53.3261   22.9990 C.2       1 UNK         0.0000 
     15 O15         1.5044   54.4589   23.2823 O.2       1 UNK         0.0000 
     16 C16         3.0621   53.2274   21.9826 C.3       1 UNK         0.0000 
     17 C17         4.1308   54.3420   22.0816 C.3       1 UNK         0.0000 
     18 C18         4.9707   54.2521   23.3730 C.3       1 UNK         0.0000 
     19 C19         5.0345   54.3300   20.8359 C.3       1 UNK         0.0000 
     20 C20         1.4981   50.7659   21.4123 C.3       1 UNK         0.0000 
     21 C21         1.6005   49.6967   23.6767 C.3       1 UNK         0.0000 
     22 S22        -1.3809   50.1144   21.6082 S.3       1 UNK         0.0000 
     23 C23        -3.0933   50.4206   21.9299 C.2       1 UNK         0.0000 
     24 C24        -3.5277   50.8983   23.1111 C.2       1 UNK         0.0000 
     25 C25        -2.7115   51.2032   24.3590 C.3       1 UNK         0.0000 
     26 S26        -3.1915   49.8797   25.5046 S.3       1 UNK         0.0000 
     27 C27        -4.5855   50.7646   26.1584 C.2       1 UNK         0.0000 
     28 C28        -4.6756   52.0931   25.9301 C.2       1 UNK         0.0000 
     29 S29        -3.3450   52.7966   24.9769 S.3       1 UNK         0.0000 
     30 C30        -5.7532   52.9242   26.4813 C.2       1 UNK         0.0000 
     31 O31        -5.7894   54.1484   26.3249 O.2       1 UNK         0.0000 
     32 O32        -6.6886   52.2236   27.1793 O.3       1 UNK         0.0000 
     33 C33        -7.7383   52.8680   27.8919 C.3       1 UNK         0.0000 
     34 C34        -7.2620   53.2967   29.2871 C.3       1 UNK         0.0000 
     35 C35        -4.0441   50.0953   20.8385 C.2       1 UNK         0.0000 
     36 O36        -3.6716   49.6689   19.7423 O.2       1 UNK         0.0000 
     37 O37        -5.3558   50.3056   21.1369 O.3       1 UNK         0.0000 
     38 C38        -6.3779   50.0534   20.1810 C.3       1 UNK         0.0000 
     39 C39        -7.7157   50.5631   20.7286 C.3       1 UNK         0.0000 
     40 H40         0.7030   54.4904   31.1318 H         1 UNK         0.0000 
     41 H41        -0.7158   54.4970   30.0879 H         1 UNK         0.0000 
     42 H42         0.8843   54.6682   29.3887 H         1 UNK         0.0000 
     43 H43         1.4088   52.2688   30.0116 H         1 UNK         0.0000 
     44 H44        -0.0699   52.1856   30.9248 H         1 UNK         0.0000 
     45 H45         2.0364   53.2110   28.0378 H         1 UNK         0.0000 
     46 H46         2.7440   53.2453   25.7220 H         1 UNK         0.0000 
     47 H47        -1.6431   51.3912   26.9331 H         1 UNK         0.0000 
     48 H48         3.5977   52.2909   22.1134 H         1 UNK         0.0000 
     49 H49         2.6357   53.2297   20.9790 H         1 UNK         0.0000 
     50 H50         3.6122   55.2969   22.0816 H         1 UNK         0.0000 
     51 H51         5.4862   53.2945   23.4488 H         1 UNK         0.0000 
     52 H52         5.7327   55.0315   23.4096 H         1 UNK         0.0000 
     53 H53         4.3507   54.3667   24.2613 H         1 UNK         0.0000 
     54 H54         5.5083   53.3572   20.7011 H         1 UNK         0.0000 
     55 H55         4.4576   54.5395   19.9339 H         1 UNK         0.0000 
     56 H56         5.8197   55.0830   20.9024 H         1 UNK         0.0000 
     57 H57         1.1756   49.8192   20.9809 H         1 UNK         0.0000 
     58 H58         1.1093   51.5577   20.7725 H         1 UNK         0.0000 
     59 H59         2.5768   50.7105   21.2956 H         1 UNK         0.0000 
     60 H60         1.2805   48.7626   23.2158 H         1 UNK         0.0000 
     61 H61         2.6915   49.6965   23.6811 H         1 UNK         0.0000 
     62 H62         1.2750   49.6576   24.7165 H         1 UNK         0.0000 
     63 H63        -4.5934   51.0233   23.2451 H         1 UNK         0.0000 
     64 H64        -5.2919   50.1907   26.7430 H         1 UNK         0.0000 
     65 H65        -8.1341   53.7193   27.3343 H         1 UNK         0.0000 
     66 H66        -8.5575   52.1551   27.9937 H         1 UNK         0.0000 
     67 H67        -8.0899   53.6957   29.8716 H         1 UNK         0.0000 
     68 H68        -6.8458   52.4528   29.8382 H         1 UNK         0.0000 
     69 H69        -6.4965   54.0705   29.2196 H         1 UNK         0.0000 
     70 H70        -6.1498   50.5569   19.2392 H         1 UNK         0.0000 
     71 H71        -6.4342   48.9834   19.9750 H         1 UNK         0.0000 
     72 H72        -8.5233   50.3491   20.0314 H         1 UNK         0.0000 
     73 H73        -7.9637   50.0900   21.6787 H         1 UNK         0.0000 
     74 H74        -7.6954   51.6424   20.8861 H         1 UNK         0.0000 
@<TRIPOS>BOND
     1    1    2 1    
     2    1   40 1    
     3    1   41 1    
     4    1   42 1    
     5    2    3 1    
     6    2   43 1    
     7    2   44 1    
     8    3    4 1    
     9    4    9 ar   
    10    4    5 ar   
    11    5    6 ar   
    12    5   45 1    
    13    6    7 ar   
    14    6   46 1    
    15    7   13 1    
    16    7    8 ar   
    17    8    9 ar   
    18    8   10 1    
    19    9   47 1    
    20   10   25 1    
    21   10   11 2    
    22   11   12 1    
    23   11   22 1    
    24   12   13 1    
    25   12   20 1    
    26   12   21 1    
    27   13   14 am   BACKBONE|DICT|INTERRES
    28   14   15 2    
    29   14   16 1    
    30   16   17 1    
    31   16   48 1    
    32   16   49 1    
    33   17   18 1    
    34   17   19 1    
    35   17   50 1    
    36   18   51 1    
    37   18   52 1    
    38   18   53 1    
    39   19   54 1    
    40   19   55 1    
    41   19   56 1    
    42   20   57 1    
    43   20   58 1    
    44   20   59 1    
    45   21   60 1    
    46   21   61 1    
    47   21   62 1    
    48   22   23 1    
    49   23   24 2    
    50   23   35 1    
    51   24   25 1    
    52   24   63 1    
    53   25   29 1    
    54   25   26 1    
    55   26   27 1    
    56   27   28 2    
    57   27   64 1    
    58   28   29 1    
    59   28   30 1    
    60   30   31 2    
    61   30   32 1    
    62   32   33 1    
    63   33   34 1    
    64   33   65 1    
    65   33   66 1    
    66   34   67 1    
    67   34   68 1    
    68   34   69 1    
    69   35   36 2    
    70   35   37 1    
    71   37   38 1    
    72   38   39 1    
    73   38   70 1    
    74   38   71 1    
    75   39   72 1    
    76   39   73 1    
    77   39   74 1    
@<TRIPOS>SUBSTRUCTURE
     1 UNK         1 GROUP             0       ****    0 ROOT    
