@<TRIPOS>MOLECULE
ZINC36050041_4635
65   69    1
SMALL
USER_CHARGES


@<TRIPOS>ATOM
      1 C1         -0.0176   53.0280   30.4853 C.3       1 UNK         0.0000 
      2 C2         -0.6686   51.8197   29.7935 C.3       1 UNK         0.0000 
      3 O3         -0.6770   51.9589   28.3810 O.3       1 UNK         0.0000 
      4 C4          0.4041   51.6530   27.6308 C.2       1 UNK         0.0000 
      5 O5          1.4955   51.2967   28.0817 O.2       1 UNK         0.0000 
      6 C6          0.1468   51.8272   26.2020 C.2       1 UNK         0.0000 
      7 C7          0.9178   52.5882   25.3484 C.2       1 UNK         0.0000 
      8 N8          0.6030   52.6633   24.0118 N.2       1 UNK         0.0000 
      9 C9         -0.1404   51.7606   23.4962 C.2       1 UNK         0.0000 
     10 N10        -0.8144   50.7593   24.1848 N.pl3     1 UNK         0.0000 
     11 C11        -0.9954   50.9215   25.6506 C.3       1 UNK         0.0000 
     12 H12        -0.8709   49.9227   26.0766 H         1 UNK         0.0000 
     13 C13        -2.4196   51.3787   25.9986 C.ar      1 UNK         0.0000 
     14 C14        -2.9479   52.5567   25.4564 C.ar      1 UNK         0.0000 
     15 C15        -4.2485   52.9552   25.7629 C.ar      1 UNK         0.0000 
     16 C16        -5.0326   52.1794   26.6169 C.ar      1 UNK         0.0000 
     17 C17        -4.5169   51.0031   27.1672 C.ar      1 UNK         0.0000 
     18 C18        -3.2136   50.6086   26.8561 C.ar      1 UNK         0.0000 
     19 C19        -5.3545   50.1647   28.1147 C.3       1 UNK         0.0000 
     20 C20        -1.4618   49.8214   23.4000 C.2       1 UNK         0.0000 
     21 C21        -1.4842   50.1949   22.1063 C.2       1 UNK         0.0000 
     22 S22        -0.6083   51.6939   21.7875 S.3       1 UNK         0.0000 
     23 C23        -2.1070   48.6226   23.9256 C.2       1 UNK         0.0000 
     24 C24        -3.1941   47.9951   23.4406 C.2       1 UNK         0.0000 
     25 O25        -3.9281   48.2620   22.4184 O.co2     1 UNK         0.0000 
     26 N26        -3.6622   46.8667   24.0737 N.pl3     1 UNK         0.0000 
     27 C27        -5.0419   46.6084   24.4723 C.3       1 UNK         0.0000 
     28 C28        -5.1858   45.1595   24.8981 C.ar      1 UNK         0.0000 
     29 C29        -4.7996   44.7392   26.1759 C.ar      1 UNK         0.0000 
     30 C30        -4.9158   43.3900   26.5175 C.ar      1 UNK         0.0000 
     31 C31        -5.4376   42.5019   25.5769 C.ar      1 UNK         0.0000 
     32 N32        -5.8276   42.8914   24.3366 N.ar      1 UNK         0.0000 
     33 C33        -5.7053   44.2057   24.0166 C.ar      1 UNK         0.0000 
     34 C34         2.1171   53.4428   25.7068 C.ar      1 UNK         0.0000 
     35 C35         3.1228   53.6790   24.7488 C.ar      1 UNK         0.0000 
     36 C36         4.3001   54.3470   25.0718 C.ar      1 UNK         0.0000 
     37 C37         4.4968   54.7987   26.3697 C.ar      1 UNK         0.0000 
     38 C38         3.5044   54.6287   27.3280 C.ar      1 UNK         0.0000 
     39 C39         2.3179   53.9867   26.9888 C.ar      1 UNK         0.0000 
     40 H40        -0.0975   52.9382   31.5692 H         1 UNK         0.0000 
     41 H41         1.0412   53.1011   30.2374 H         1 UNK         0.0000 
     42 H42        -0.4954   53.9609   30.1871 H         1 UNK         0.0000 
     43 H43        -1.6956   51.6972   30.1277 H         1 UNK         0.0000 
     44 H44        -0.1715   50.8971   30.0673 H         1 UNK         0.0000 
     45 H45        -2.3493   53.1645   24.7939 H         1 UNK         0.0000 
     46 H46        -4.6483   53.8632   25.3369 H         1 UNK         0.0000 
     47 H47        -6.0393   52.4939   26.8495 H         1 UNK         0.0000 
     48 H48        -2.8191   49.6967   27.2813 H         1 UNK         0.0000 
     49 H49        -5.8678   49.3709   27.5711 H         1 UNK         0.0000 
     50 H50        -4.7256   49.7076   28.8810 H         1 UNK         0.0000 
     51 H51        -6.0924   50.7750   28.6369 H         1 UNK         0.0000 
     52 H52        -1.9570   49.6557   21.2990 H         1 UNK         0.0000 
     53 H53        -1.6490   48.1941   24.8059 H         1 UNK         0.0000 
     54 H54        -3.0381   46.5408   24.7936 H         1 UNK         0.0000 
     55 H55        -5.7389   46.8578   23.6712 H         1 UNK         0.0000 
     56 H56        -5.2951   47.2594   25.3103 H         1 UNK         0.0000 
     57 H57        -4.3934   45.4425   26.8899 H         1 UNK         0.0000 
     58 H58        -4.6047   43.0389   27.4910 H         1 UNK         0.0000 
     59 H59        -5.5450   41.4532   25.8115 H         1 UNK         0.0000 
     60 H60        -6.0207   44.4862   23.0219 H         1 UNK         0.0000 
     61 H61         3.0226   53.2982   23.7427 H         1 UNK         0.0000 
     62 H62         5.0659   54.4891   24.3236 H         1 UNK         0.0000 
     63 H63         5.4182   55.2969   26.6324 H         1 UNK         0.0000 
     64 H64         3.6476   55.0079   28.3290 H         1 UNK         0.0000 
     65 H65         1.5653   53.9167   27.7563 H         1 UNK         0.0000 
@<TRIPOS>BOND
     1    1    2 1    
     2    1   40 1    
     3    1   41 1    
     4    1   42 1    
     5    2    3 1    
     6    2   43 1    
     7    2   44 1    
     8    3    4 1    
     9    4    5 2    
    10    4    6 1    
    11    6   11 1    
    12    6    7 2    
    13    7    8 1    
    14    7   34 1    
    15    8    9 2    
    16    9   22 1    
    17    9   10 1    
    18   10   11 1    
    19   10   20 1    
    20   11   12 1    
    21   11   13 1    
    22   13   18 ar   
    23   13   14 ar   
    24   14   15 ar   
    25   14   45 1    
    26   15   16 ar   
    27   15   46 1    
    28   16   17 ar   
    29   16   47 1    
    30   17   18 ar   
    31   17   19 1    
    32   18   48 1    
    33   19   49 1    
    34   19   50 1    
    35   19   51 1    
    36   20   21 2    
    37   20   23 1    
    38   21   22 1    
    39   21   52 1    
    40   23   24 2    
    41   23   53 1    
    42   24   25 1    
    43   24   26 1    
    44   26   27 1    
    45   26   54 1    
    46   27   28 1    
    47   27   55 1    
    48   27   56 1    
    49   28   33 ar   
    50   28   29 ar   
    51   29   30 ar   
    52   29   57 1    
    53   30   31 ar   
    54   30   58 1    
    55   31   32 ar   
    56   31   59 1    
    57   32   33 ar   
    58   33   60 1    
    59   34   39 ar   
    60   34   35 ar   
    61   35   36 ar   
    62   35   61 1    
    63   36   37 ar   
    64   36   62 1    
    65   37   38 ar   
    66   37   63 1    
    67   38   39 ar   
    68   38   64 1    
    69   39   65 1    
@<TRIPOS>SUBSTRUCTURE
     1 UNK         1 GROUP             0       ****    0 ROOT    
