@<TRIPOS>MOLECULE
ZINC12899684_1523
49   52    1
SMALL
USER_CHARGES


@<TRIPOS>ATOM
      1 C1         -4.3838   52.6553   24.4813 C.3       1 UNK         0.0000 
      2 C2         -4.3923   51.2954   25.2324 C.3       1 UNK         0.0000 
      3 C3         -2.9631   50.9785   25.6499 C.2       1 UNK         0.0000 
      4 O4         -2.0142   50.7732   24.8886 O.2       1 UNK         0.0000 
      5 N5         -2.9574   51.0749   26.9984 N.am      1 UNK         0.0000 
      6 C6         -4.1713   51.2965   27.5600 C.2       1 UNK         0.0000 
      7 O7         -4.4930   51.2489   28.7459 O.2       1 UNK         0.0000 
      8 N8         -4.9970   51.4863   26.5277 N.am      1 UNK         0.0000 
      9 N9         -1.8124   50.8968   27.7819 N.am      1 UNK         0.0000 
     10 C10        -0.8637   51.8495   27.8760 C.2       1 UNK         0.0000 
     11 O11        -0.8950   52.8967   27.2437 O.2       1 UNK         0.0000 
     12 C12         0.3093   51.5853   28.8390 C.3       1 UNK         0.0000 
     13 H13         0.1571   50.6048   29.2817 H         1 UNK         0.0000 
     14 C14         0.4110   52.6612   29.9207 C.3       1 UNK         0.0000 
     15 C15         1.5642   53.5847   29.5237 C.2       1 UNK         0.0000 
     16 O16         1.8321   54.6490   30.0818 O.2       1 UNK         0.0000 
     17 N17         2.2023   53.0046   28.4724 N.am      1 UNK         0.0000 
     18 C18         1.6429   51.6963   28.1208 C.3       1 UNK         0.0000 
     19 C19         3.3784   53.5075   27.8849 C.ar      1 UNK         0.0000 
     20 C20         4.5028   53.8001   28.6721 C.ar      1 UNK         0.0000 
     21 C21         5.6727   54.2760   28.0806 C.ar      1 UNK         0.0000 
     22 C22         5.7265   54.4786   26.7022 C.ar      1 UNK         0.0000 
     23 C23         4.6084   54.2051   25.9153 C.ar      1 UNK         0.0000 
     24 C24         3.4369   53.7193   26.4986 C.ar      1 UNK         0.0000 
     25 F25         2.3665   53.4681   25.7085 F         1 UNK         0.0000 
     26 C26        -5.0193   50.1202   24.4405 C.ar      1 UNK         0.0000 
     27 C27        -4.9681   50.0947   23.0383 C.ar      1 UNK         0.0000 
     28 C28        -5.5050   49.0267   22.3250 C.ar      1 UNK         0.0000 
     29 C29        -6.0863   47.9627   23.0077 C.ar      1 UNK         0.0000 
     30 C30        -6.1264   47.9548   24.3986 C.ar      1 UNK         0.0000 
     31 C31        -5.5894   49.0236   25.1102 C.ar      1 UNK         0.0000 
     32 H32        -3.7052   52.6551   23.6272 H         1 UNK         0.0000 
     33 H33        -5.3788   52.9026   24.1086 H         1 UNK         0.0000 
     34 H34        -4.0670   53.4805   25.1226 H         1 UNK         0.0000 
     35 H35        -5.8380   52.0352   26.6166 H         1 UNK         0.0000 
     36 H36        -1.7199   49.9457   28.1442 H         1 UNK         0.0000 
     37 H37         0.5511   52.2345   30.9151 H         1 UNK         0.0000 
     38 H38        -0.4826   53.2856   29.9880 H         1 UNK         0.0000 
     39 H39         1.5722   51.5042   27.0489 H         1 UNK         0.0000 
     40 H40         2.3175   50.9244   28.4910 H         1 UNK         0.0000 
     41 H41         4.4760   53.6473   29.7407 H         1 UNK         0.0000 
     42 H42         6.5348   54.4964   28.6938 H         1 UNK         0.0000 
     43 H43         6.6316   54.8474   26.2442 H         1 UNK         0.0000 
     44 H44         4.6474   54.3623   24.8473 H         1 UNK         0.0000 
     45 H45        -4.5071   50.8960   22.4835 H         1 UNK         0.0000 
     46 H46        -5.4667   49.0222   21.2455 H         1 UNK         0.0000 
     47 H47        -6.5028   47.1337   22.4546 H         1 UNK         0.0000 
     48 H48        -6.5696   47.1224   24.9255 H         1 UNK         0.0000 
     49 H49        -5.6200   48.9880   26.1895 H         1 UNK         0.0000 
@<TRIPOS>BOND
     1    1    2 1    
     2    1   32 1    
     3    1   33 1    
     4    1   34 1    
     5    2    8 1    
     6    2    3 1    
     7    2   26 1    
     8    3    4 2    
     9    3    5 am   BACKBONE|DICT|INTERRES
    10    5    6 am   BACKBONE|DICT|INTERRES
    11    5    9 1    
    12    6    7 2    
    13    6    8 am   BACKBONE|DICT|INTERRES
    14    8   35 1    
    15    9   10 am   BACKBONE|DICT|INTERRES
    16    9   36 1    
    17   10   11 2    
    18   10   12 1    
    19   12   13 1    
    20   12   18 1    
    21   12   14 1    
    22   14   15 1    
    23   14   37 1    
    24   14   38 1    
    25   15   16 2    
    26   15   17 am   BACKBONE|DICT|INTERRES
    27   17   18 1    
    28   17   19 1    
    29   18   39 1    
    30   18   40 1    
    31   19   24 ar   
    32   19   20 ar   
    33   20   21 ar   
    34   20   41 1    
    35   21   22 ar   
    36   21   42 1    
    37   22   23 ar   
    38   22   43 1    
    39   23   24 ar   
    40   23   44 1    
    41   24   25 1    
    42   26   31 ar   
    43   26   27 ar   
    44   27   28 ar   
    45   27   45 1    
    46   28   29 ar   
    47   28   46 1    
    48   29   30 ar   
    49   29   47 1    
    50   30   31 ar   
    51   30   48 1    
    52   31   49 1    
@<TRIPOS>SUBSTRUCTURE
     1 UNK         1 GROUP             0       ****    0 ROOT    
