ZINC39582255_1203
                    3D
 Schrodinger Suite 2024-2.
 60 63  0  0  1  0            999 V2000
    1.3105   49.4363   17.9676 C   0  0  0  0  0  0
    0.4329   49.5320   19.2113 C   0  0  0  0  0  0
   -0.2755   48.3975   19.6109 C   0  0  0  0  0  0
   -1.0716   48.4289   20.7488 C   0  0  0  0  0  0
   -1.1545   49.5929   21.5055 C   0  0  0  0  0  0
   -0.4579   50.7537   21.1362 C   0  0  0  0  0  0
    0.3427   50.7196   19.9664 C   0  0  0  0  0  0
    1.0862   51.9683   19.4762 C   0  0  0  0  0  0
   -0.4745   51.8704   21.9746 N   0  0  0  0  0  0
    0.7732   52.2073   22.6761 C   0  0  0  0  0  0
    0.8579   51.4975   24.0418 C   0  0  0  0  0  0
   -0.1800   52.0563   24.9193 N   0  0  0  0  0  0
   -1.4864   51.7197   24.3342 C   0  0  0  0  0  0
   -1.6148   52.1990   22.8592 C   0  0  0  0  0  0
   -0.1072   51.5473   26.3071 C   0  0  0  0  0  0
    1.1049   52.0970   27.0978 C   0  0  0  0  0  0
    1.4113   51.5467   28.1566 O   0  0  0  0  0  0
    1.7966   53.1278   26.5615 N   0  0  0  0  0  0
    3.0008   53.6177   26.9763 C   0  0  0  0  0  0
    4.0386   54.0361   26.2315 C   0  0  0  0  0  0
    4.2301   54.0969   24.7748 C   0  0  0  0  0  0
    5.4039   54.4967   24.2449 C   0  0  0  0  0  0
    6.4578   54.8964   25.1682 C   0  0  0  0  0  0
    6.2957   54.8598   26.5186 C   0  0  0  0  0  0
    5.0912   54.4134   27.0728 C   0  0  0  0  0  0
    4.7532   54.2758   28.3386 N   0  3  0  0  0  0
    3.3940   53.6912   28.4417 C   0  0  1  0  0  0
    3.4897   52.7078   28.9034 H   0  0  0  0  0  0
    2.4776   54.5719   29.3022 C   0  0  0  0  0  0
    1.8915   54.0863   30.2674 O   0  0  0  0  0  0
    2.3757   55.8473   28.8816 O   0  0  0  0  0  0
    1.6571   56.8036   29.6445 C   0  0  0  0  0  0
    5.6982   54.4968   22.2947 Br  0  0  0  0  0  0
    0.8879   50.0204   17.1498 H   0  0  0  0  0  0
    2.3082   49.8280   18.1711 H   0  0  0  0  0  0
    1.4441   48.4079   17.6299 H   0  0  0  0  0  0
   -0.2100   47.4839   19.0379 H   0  0  0  0  0  0
   -1.6127   47.5454   21.0542 H   0  0  0  0  0  0
   -1.7569   49.5724   22.4001 H   0  0  0  0  0  0
    2.1511   51.8932   19.6977 H   0  0  0  0  0  0
    0.9805   52.0827   18.3976 H   0  0  0  0  0  0
    0.6989   52.8924   19.9031 H   0  0  0  0  0  0
    1.6359   51.9040   22.0830 H   0  0  0  0  0  0
    0.8549   53.2887   22.7993 H   0  0  0  0  0  0
    1.8505   51.6972   24.4425 H   0  0  0  0  0  0
    0.7729   50.4136   23.9337 H   0  0  0  0  0  0
   -1.6143   50.6359   24.3511 H   0  0  0  0  0  0
   -2.2911   52.1684   24.9188 H   0  0  0  0  0  0
   -2.5519   51.8425   22.4295 H   0  0  0  0  0  0
   -1.6863   53.2869   22.8817 H   0  0  0  0  0  0
   -0.0777   50.4544   26.3165 H   0  0  0  0  0  0
   -0.9984   51.8473   26.8618 H   0  0  0  0  0  0
    1.4431   53.4669   25.6784 H   0  0  0  0  0  0
    3.4523   53.7906   24.0899 H   0  0  0  0  0  0
    7.3973   55.2320   24.7505 H   0  0  0  0  0  0
    7.1058   55.1689   27.1623 H   0  0  0  0  0  0
    1.5041   57.6970   29.0433 H   0  0  0  0  0  0
    0.6831   56.4284   29.9544 H   0  0  0  0  0  0
    2.2132   57.0879   30.5386 H   0  0  0  0  0  0
    5.3521   54.4904   29.1327 H   0  0  0  0  0  0
  1  2  1  0  0  0
  1 34  1  0  0  0
  1 35  1  0  0  0
  1 36  1  0  0  0
  2  7  2  0  0  0
  2  3  1  0  0  0
  3  4  2  0  0  0
  3 37  1  0  0  0
  4  5  1  0  0  0
  4 38  1  0  0  0
  5  6  2  0  0  0
  5 39  1  0  0  0
  6  7  1  0  0  0
  6  9  1  0  0  0
  7  8  1  0  0  0
  8 40  1  0  0  0
  8 41  1  0  0  0
  8 42  1  0  0  0
  9 14  1  0  0  0
  9 10  1  0  0  0
 10 11  1  0  0  0
 10 43  1  0  0  0
 10 44  1  0  0  0
 11 12  1  0  0  0
 11 45  1  0  0  0
 11 46  1  0  0  0
 12 13  1  0  0  0
 12 15  1  0  0  0
 13 14  1  0  0  0
 13 47  1  0  0  0
 13 48  1  0  0  0
 14 49  1  0  0  0
 14 50  1  0  0  0
 15 16  1  0  0  0
 15 51  1  0  0  0
 15 52  1  0  0  0
 16 17  2  0  0  0
 16 18  1  0  0  0
 18 19  1  0  0  0
 18 53  1  0  0  0
 19 27  1  0  0  0
 19 20  2  0  0  0
 20 25  1  0  0  0
 20 21  1  0  0  0
 21 22  2  0  0  0
 21 54  1  0  0  0
 22 23  1  0  0  0
 22 33  1  0  0  0
 23 24  2  0  0  0
 23 55  1  0  0  0
 24 25  1  0  0  0
 24 56  1  0  0  0
 25 26  2  0  0  0
 26 27  1  0  0  0
 26 60  1  0  0  0
 27 28  1  0  0  0
 27 29  1  0  0  0
 29 30  2  0  0  0
 29 31  1  0  0  0
 31 32  1  0  0  0
 32 57  1  0  0  0
 32 58  1  0  0  0
 32 59  1  0  0  0
M  CHG  1  26   1
M  END
> <i_i_glide_confnum>
16

> <i_i_glide_lignum>
1204

> <i_i_glide_posenum>
398

> <i_i_glide_rotatable_bonds>
7

> <i_m_Source_File_Index>
3896

> <b_m_subgroup_collapsed>
0

> <r_i_docking_score>
-5.448

> <r_i_glide_ecoul>
-2.05618

> <r_i_glide_eff_state_penalty>
0

> <r_i_glide_einternal>
3.87465

> <r_i_glide_emodel>
-59.9509

> <r_i_glide_energy>
-45.5697

> <r_i_glide_erotb>
0.489268

> <r_i_glide_esite>
0

> <r_i_glide_evdw>
-43.5135

> <r_i_glide_gscore>
-5.448

> <r_i_glide_hbond>
-0.267513

> <r_i_glide_ligand_efficiency>
-0.17025

> <r_i_glide_ligand_efficiency_ln>
-1.21996

> <r_i_glide_ligand_efficiency_sa>
-0.54051

> <r_i_glide_lipo>
-2.72545

> <r_i_glide_metal>
0

> <r_i_glide_rewards>
-0.4602

> <s_i_glide_gridfile>
wee1_glide-grid

> <s_m_Source_File>
wee1_decoys_glide_SP.sdf

> <s_m_Source_Path>
/Users/zhangxujun/Desktop

> <s_m_entry_id>
4171

> <s_m_entry_name>
wee1_decoys_glide_SP.3896

> <s_m_subgroup_title>
wee1_decoys_glide_SP

> <s_m_subgroupid>
wee1_decoys_glide_SP


$$$$
