ZINC01474310_925
                    3D
 Schrodinger Suite 2024-2.
 53 55  0  0  1  0            999 V2000
    2.4055   52.8851   23.0880 C   0  0  0  0  0  0
    3.0178   54.2799   23.2936 C   0  0  0  0  0  0
    4.4686   54.2051   23.4679 N   0  0  0  0  0  0
    5.2336   54.1716   24.6279 C   0  0  0  0  0  0
    6.5090   54.1576   24.3040 N   0  0  0  0  0  0
    6.6083   54.1199   22.9221 N   0  0  0  0  0  0
    5.3920   54.1213   22.4470 C   0  0  0  0  0  0
    4.9997   54.0946   20.7256 S   0  0  0  0  0  0
    5.9018   55.5898   20.1981 C   0  0  0  0  0  0
    7.2307   55.2831   19.5022 C   0  0  0  0  0  0
    8.2547   55.8455   19.8947 O   0  0  0  0  0  0
    7.1783   54.4016   18.4812 N   0  0  0  0  0  0
    8.2708   53.9820   17.8119 N   0  0  0  0  0  0
    8.0090   53.0698   16.9616 C   0  0  0  0  0  0
    9.0285   52.4078   16.1328 C   0  0  0  0  0  0
   10.4015   52.6281   16.3102 C   0  0  0  0  0  0
   11.3624   51.9888   15.5055 C   0  0  0  0  0  0
   10.9271   51.1185   14.4929 C   0  0  0  0  0  0
    9.5594   50.8833   14.3137 C   0  0  0  0  0  0
    8.6272   51.5206   15.1302 C   0  0  0  0  0  0
    8.9277   49.6968   12.9635 Br  0  0  0  0  0  0
   11.8504   50.4969   13.6831 O   0  0  0  0  0  0
   12.7269   52.1800   15.6524 O   0  0  0  0  0  0
   13.2129   52.9941   16.7133 C   0  0  0  0  0  0
    4.7721   54.1242   26.0655 C   0  0  0  0  0  0
    3.4915   53.6963   26.4377 C   0  0  0  0  0  0
    3.1492   53.5421   27.7770 C   0  0  0  0  0  0
    4.0891   53.8069   28.7698 C   0  0  0  0  0  0
    5.3554   54.2761   28.4227 C   0  0  0  0  0  0
    5.6932   54.4314   27.0801 C   0  0  0  0  0  0
    3.7306   53.5710   30.2237 C   0  0  0  0  0  0
    1.3220   52.9517   22.9913 H   0  0  0  0  0  0
    2.7870   52.4153   22.1801 H   0  0  0  0  0  0
    2.6218   52.2113   23.9151 H   0  0  0  0  0  0
    2.5784   54.8177   24.1319 H   0  0  0  0  0  0
    2.8128   54.8968   22.4190 H   0  0  0  0  0  0
    6.0618   56.2604   21.0449 H   0  0  0  0  0  0
    5.2790   56.1336   19.4883 H   0  0  0  0  0  0
    6.3084   53.9604   18.2196 H   0  0  0  0  0  0
    6.9952   52.7096   16.7864 H   0  0  0  0  0  0
   10.7155   53.3021   17.0926 H   0  0  0  0  0  0
    7.5773   51.3174   14.9679 H   0  0  0  0  0  0
   11.5046   50.0101   12.9239 H   0  0  0  0  0  0
   14.3028   52.9908   16.6990 H   0  0  0  0  0  0
   12.8822   54.0289   16.6110 H   0  0  0  0  0  0
   12.8948   52.6097   17.6825 H   0  0  0  0  0  0
    2.7547   53.4053   25.7131 H   0  0  0  0  0  0
    2.1680   53.1729   28.0362 H   0  0  0  0  0  0
    6.0918   54.4959   29.1853 H   0  0  0  0  0  0
    6.6920   54.7602   26.8357 H   0  0  0  0  0  0
    2.6734   53.7794   30.3948 H   0  0  0  0  0  0
    3.9285   52.5345   30.4986 H   0  0  0  0  0  0
    4.3042   54.2234   30.8812 H   0  0  0  0  0  0
  1  2  1  0  0  0
  1 32  1  0  0  0
  1 33  1  0  0  0
  1 34  1  0  0  0
  2  3  1  0  0  0
  2 35  1  0  0  0
  2 36  1  0  0  0
  3  7  1  0  0  0
  3  4  1  0  0  0
  4  5  2  0  0  0
  4 25  1  0  0  0
  5  6  1  0  0  0
  6  7  2  0  0  0
  7  8  1  0  0  0
  8  9  1  0  0  0
  9 10  1  0  0  0
  9 37  1  0  0  0
  9 38  1  0  0  0
 10 11  2  0  0  0
 10 12  1  0  0  0
 12 13  1  0  0  0
 12 39  1  0  0  0
 13 14  2  0  0  0
 14 15  1  0  0  0
 14 40  1  0  0  0
 15 20  2  0  0  0
 15 16  1  0  0  0
 16 17  2  0  0  0
 16 41  1  0  0  0
 17 18  1  0  0  0
 17 23  1  0  0  0
 18 19  2  0  0  0
 18 22  1  0  0  0
 19 20  1  0  0  0
 19 21  1  0  0  0
 20 42  1  0  0  0
 22 43  1  0  0  0
 23 24  1  0  0  0
 24 44  1  0  0  0
 24 45  1  0  0  0
 24 46  1  0  0  0
 25 30  2  0  0  0
 25 26  1  0  0  0
 26 27  2  0  0  0
 26 47  1  0  0  0
 27 28  1  0  0  0
 27 48  1  0  0  0
 28 29  2  0  0  0
 28 31  1  0  0  0
 29 30  1  0  0  0
 29 49  1  0  0  0
 30 50  1  0  0  0
 31 51  1  0  0  0
 31 52  1  0  0  0
 31 53  1  0  0  0
M  END
> <i_i_glide_confnum>
152

> <i_i_glide_lignum>
926

> <i_i_glide_posenum>
191

> <i_i_glide_rotatable_bonds>
10

> <i_m_Source_File_Index>
4188

> <b_m_subgroup_collapsed>
0

> <r_i_docking_score>
-4.94903

> <r_i_glide_ecoul>
-1.21297

> <r_i_glide_eff_state_penalty>
0

> <r_i_glide_einternal>
5.69988

> <r_i_glide_emodel>
-59.3618

> <r_i_glide_energy>
-45.5175

> <r_i_glide_erotb>
0.562552

> <r_i_glide_esite>
0

> <r_i_glide_evdw>
-44.3045

> <r_i_glide_gscore>
-4.94903

> <r_i_glide_hbond>
0

> <r_i_glide_ligand_efficiency>
-0.159646

> <r_i_glide_ligand_efficiency_ln>
-1.11616

> <r_i_glide_ligand_efficiency_sa>
-0.501509

> <r_i_glide_lipo>
-2.03967

> <r_i_glide_metal>
0

> <r_i_glide_rewards>
-1.07474

> <s_i_glide_gridfile>
wee1_glide-grid

> <s_m_Source_File>
wee1_decoys_glide_SP.sdf

> <s_m_Source_Path>
/Users/zhangxujun/Desktop

> <s_m_entry_id>
4463

> <s_m_entry_name>
wee1_decoys_glide_SP.4188

> <s_m_subgroup_title>
wee1_decoys_glide_SP

> <s_m_subgroupid>
wee1_decoys_glide_SP


$$$$
