@<TRIPOS>MOLECULE
ZINC20569904_5636
42   45    1
SMALL
USER_CHARGES


@<TRIPOS>ATOM
      1 C1          1.5265   49.2908   20.5278 C.ar      1 UNK         0.0000 
      2 C2          0.7850   49.4320   21.6944 C.ar      1 UNK         0.0000 
      3 C3          1.0492   50.4893   22.5621 C.ar      1 UNK         0.0000 
      4 C4          2.0468   51.4401   22.2884 C.ar      1 UNK         0.0000 
      5 C5          2.8077   51.2675   21.1034 C.ar      1 UNK         0.0000 
      6 C6          2.5334   50.2036   20.2324 C.ar      1 UNK         0.0000 
      7 C7          3.9261   52.2077   20.7365 C.2       1 UNK         0.0000 
      8 O8          5.0252   52.0945   21.2827 O.2       1 UNK         0.0000 
      9 N9          3.5875   53.1316   19.8103 N.am      1 UNK         0.0000 
     10 C10         4.3543   54.1895   19.3463 C.2       1 UNK         0.0000 
     11 N11         3.9047   54.9557   18.3927 N.2       1 UNK         0.0000 
     12 C12         4.7637   55.9780   18.1223 C.ar      1 UNK         0.0000 
     13 C13         4.5463   56.9874   17.1713 C.ar      1 UNK         0.0000 
     14 C14         5.5286   57.9714   17.0108 C.ar      1 UNK         0.0000 
     15 C15         6.7092   57.9487   17.7553 C.ar      1 UNK         0.0000 
     16 C16         6.9428   56.9600   18.7079 C.ar      1 UNK         0.0000 
     17 C17         5.9547   55.9868   18.8972 C.ar      1 UNK         0.0000 
     18 S18         5.9044   54.6562   20.0317 S.3       1 UNK         0.0000 
     19 F19         7.6501   58.8982   17.5529 F         1 UNK         0.0000 
     20 N20         2.3043   52.4958   23.1338 N.2       1 UNK         0.0000 
     21 S21         1.2189   53.3586   23.8505 S.o2      1 UNK         0.0000 
     22 O22         1.5044   54.7840   23.6818 O.2       1 UNK         0.0000 
     23 O23        -0.1722   52.9206   23.6789 O.2       1 UNK         0.0000 
     24 C24         1.6134   53.0317   25.5746 C.ar      1 UNK         0.0000 
     25 C25         2.6950   53.6962   26.1594 C.ar      1 UNK         0.0000 
     26 C26         2.9946   53.4920   27.5032 C.ar      1 UNK         0.0000 
     27 C27         2.2168   52.6164   28.2577 C.ar      1 UNK         0.0000 
     28 C28         1.1446   51.9386   27.6771 C.ar      1 UNK         0.0000 
     29 C29         0.8453   52.1409   26.3322 C.ar      1 UNK         0.0000 
     30 Cl30        2.5897   52.3793   29.9273 Cl        1 UNK         0.0000 
     31 H31         1.3292   48.4718   19.8531 H         1 UNK         0.0000 
     32 H32         0.0063   48.7226   21.9321 H         1 UNK         0.0000 
     33 H33         0.4695   50.5588   23.4698 H         1 UNK         0.0000 
     34 H34         3.1066   50.0726   19.3228 H         1 UNK         0.0000 
     35 H35         2.6726   53.0522   19.3984 H         1 UNK         0.0000 
     36 H36         3.6403   57.0118   16.5832 H         1 UNK         0.0000 
     37 H37         5.3802   58.7691   16.2967 H         1 UNK         0.0000 
     38 H38         7.8610   56.9493   19.2745 H         1 UNK         0.0000 
     39 H39         3.2939   54.3785   25.5706 H         1 UNK         0.0000 
     40 H40         3.8267   54.0107   27.9546 H         1 UNK         0.0000 
     41 H41         0.5480   51.2570   28.2656 H         1 UNK         0.0000 
     42 H42         0.0099   51.6188   25.8861 H         1 UNK         0.0000 
@<TRIPOS>BOND
     1    1    6 ar   
     2    1    2 ar   
     3    1   31 1    
     4    2    3 ar   
     5    2   32 1    
     6    3    4 ar   
     7    3   33 1    
     8    4    5 ar   
     9    4   20 1    
    10    5    6 ar   
    11    5    7 1    
    12    6   34 1    
    13    7    8 2    
    14    7    9 am   BACKBONE|DICT|INTERRES
    15    9   10 am   BACKBONE|DICT|INTERRES
    16    9   35 1    
    17   10   18 1    
    18   10   11 2    
    19   11   12 1    
    20   12   17 ar   
    21   12   13 ar   
    22   13   14 ar   
    23   13   36 1    
    24   14   15 ar   
    25   14   37 1    
    26   15   16 ar   
    27   15   19 1    
    28   16   17 ar   
    29   16   38 1    
    30   17   18 1    
    31   20   21 1    
    32   21   22 2    
    33   21   23 2    
    34   21   24 1    
    35   24   29 ar   
    36   24   25 ar   
    37   25   26 ar   
    38   25   39 1    
    39   26   27 ar   
    40   26   40 1    
    41   27   28 ar   
    42   27   30 1    
    43   28   29 ar   
    44   28   41 1    
    45   29   42 1    
@<TRIPOS>SUBSTRUCTURE
     1 UNK         1 GROUP             0       ****    0 ROOT    
