@<TRIPOS>MOLECULE
ZINC14642634_4021
60   62    1
SMALL
USER_CHARGES


@<TRIPOS>ATOM
      1 C1          2.3885   53.7835   23.0122 C.3       1 UNK         0.0000 
      2 C2          3.8767   54.0881   23.0746 C.ar      1 UNK         0.0000 
      3 C3          4.4635   54.0968   24.3417 C.ar      1 UNK         0.0000 
      4 C4          5.7863   54.4859   24.5025 C.ar      1 UNK         0.0000 
      5 C5          6.5178   54.8969   23.3961 C.ar      1 UNK         0.0000 
      6 C6          5.9575   54.8947   22.1166 C.ar      1 UNK         0.0000 
      7 C7          4.6407   54.4313   21.9352 C.ar      1 UNK         0.0000 
      8 O8          4.0574   54.4966   20.6820 O.3       1 UNK         0.0000 
      9 C9          4.1232   53.4089   19.7388 C.3       1 UNK         0.0000 
     10 H10         3.4238   53.7145   18.9577 H         1 UNK         0.0000 
     11 C11         5.4818   53.2644   19.0222 C.3       1 UNK         0.0000 
     12 C12         3.5606   52.1103   20.3522 C.2       1 UNK         0.0000 
     13 O13         4.3142   51.2969   20.8868 O.2       1 UNK         0.0000 
     14 N14         2.2147   52.0232   20.3042 N.am      1 UNK         0.0000 
     15 C15         1.3428   51.1325   20.9428 C.ar      1 UNK         0.0000 
     16 C16        -0.0176   51.4048   20.7816 C.ar      1 UNK         0.0000 
     17 C17        -0.9705   50.6297   21.4348 C.ar      1 UNK         0.0000 
     18 C18        -0.5627   49.5729   22.2489 C.ar      1 UNK         0.0000 
     19 C19         0.7943   49.2974   22.4105 C.ar      1 UNK         0.0000 
     20 C20         1.7485   50.0653   21.7557 C.ar      1 UNK         0.0000 
     21 S21        -1.7747   48.5647   23.0985 S.o2      1 UNK         0.0000 
     22 O22        -3.0942   48.9837   22.6107 O.2       1 UNK         0.0000 
     23 O23        -1.3207   47.1767   22.9592 O.2       1 UNK         0.0000 
     24 N24        -1.6346   49.0254   24.8052 N.pl3     1 UNK         0.0000 
     25 C25        -2.2296   50.3126   25.2588 C.3       1 UNK         0.0000 
     26 C26        -1.1495   51.3718   25.5591 C.3       1 UNK         0.0000 
     27 C27        -0.1098   50.8245   26.5614 C.3       1 UNK         0.0000 
     28 C28         0.5471   49.5721   25.9465 C.3       1 UNK         0.0000 
     29 C29        -0.4938   48.4903   25.5992 C.3       1 UNK         0.0000 
     30 C30         0.9375   51.8874   26.9366 C.3       1 UNK         0.0000 
     31 C31         6.7428   55.5588   20.9922 C.3       1 UNK         0.0000 
     32 Br32        6.5676   54.5234   26.2383 Br        1 UNK         0.0000 
     33 H33         1.9357   54.1073   22.0804 H         1 UNK         0.0000 
     34 H34         2.2076   52.7185   23.1634 H         1 UNK         0.0000 
     35 H35         1.8633   54.3207   23.8040 H         1 UNK         0.0000 
     36 H36         3.8856   53.8202   25.2121 H         1 UNK         0.0000 
     37 H37         7.5044   55.2856   23.5476 H         1 UNK         0.0000 
     38 H38         5.4299   52.4981   18.2487 H         1 UNK         0.0000 
     39 H39         5.7603   54.1935   18.5269 H         1 UNK         0.0000 
     40 H40         6.2966   52.9870   19.6816 H         1 UNK         0.0000 
     41 H41         1.7556   52.7743   19.8110 H         1 UNK         0.0000 
     42 H42        -0.3457   52.2279   20.1642 H         1 UNK         0.0000 
     43 H43        -2.0206   50.8528   21.3071 H         1 UNK         0.0000 
     44 H44         1.1199   48.5052   23.0632 H         1 UNK         0.0000 
     45 H45         2.7858   49.8211   21.9167 H         1 UNK         0.0000 
     46 H46        -2.9061   50.6788   24.4863 H         1 UNK         0.0000 
     47 H47        -2.8473   50.1066   26.1347 H         1 UNK         0.0000 
     48 H48        -0.6607   51.6976   24.6380 H         1 UNK         0.0000 
     49 H49        -1.6133   52.2746   25.9581 H         1 UNK         0.0000 
     50 H50        -0.6404   50.5154   27.4655 H         1 UNK         0.0000 
     51 H51         1.2973   49.1581   26.6208 H         1 UNK         0.0000 
     52 H52         1.1044   49.8541   25.0553 H         1 UNK         0.0000 
     53 H53        -0.8957   47.9940   26.4809 H         1 UNK         0.0000 
     54 H54        -0.0061   47.7002   25.0302 H         1 UNK         0.0000 
     55 H55         1.4963   52.2247   26.0632 H         1 UNK         0.0000 
     56 H56         0.4686   52.7613   27.3914 H         1 UNK         0.0000 
     57 H57         1.6543   51.4912   27.6563 H         1 UNK         0.0000 
     58 H58         6.0845   55.9419   20.2150 H         1 UNK         0.0000 
     59 H59         7.2862   56.4230   21.3746 H         1 UNK         0.0000 
     60 H60         7.4805   54.8953   20.5528 H         1 UNK         0.0000 
@<TRIPOS>BOND
     1    1    2 1    
     2    1   33 1    
     3    1   34 1    
     4    1   35 1    
     5    2    7 ar   
     6    2    3 ar   
     7    3    4 ar   
     8    3   36 1    
     9    4    5 ar   
    10    4   32 1    
    11    5    6 ar   
    12    5   37 1    
    13    6    7 ar   
    14    6   31 1    
    15    7    8 1    
    16    8    9 1    
    17    9   10 1    
    18    9   11 1    
    19    9   12 1    
    20   11   38 1    
    21   11   39 1    
    22   11   40 1    
    23   12   13 2    
    24   12   14 am   BACKBONE|DICT|INTERRES
    25   14   15 1    
    26   14   41 1    
    27   15   20 ar   
    28   15   16 ar   
    29   16   17 ar   
    30   16   42 1    
    31   17   18 ar   
    32   17   43 1    
    33   18   19 ar   
    34   18   21 1    
    35   19   20 ar   
    36   19   44 1    
    37   20   45 1    
    38   21   22 2    
    39   21   23 2    
    40   21   24 1    
    41   24   29 1    
    42   24   25 1    
    43   25   26 1    
    44   25   46 1    
    45   25   47 1    
    46   26   27 1    
    47   26   48 1    
    48   26   49 1    
    49   27   28 1    
    50   27   30 1    
    51   27   50 1    
    52   28   29 1    
    53   28   51 1    
    54   28   52 1    
    55   29   53 1    
    56   29   54 1    
    57   30   55 1    
    58   30   56 1    
    59   30   57 1    
    60   31   58 1    
    61   31   59 1    
    62   31   60 1    
@<TRIPOS>SUBSTRUCTURE
     1 UNK         1 GROUP             0       ****    0 ROOT    
