@<TRIPOS>MOLECULE
ZINC36630733_443
55   57    1
SMALL
USER_CHARGES


@<TRIPOS>ATOM
      1 C1          2.8501   50.4258   19.9532 C.3       1 UNK         0.0000 
      2 C2          2.6543   51.7164   19.1283 C.3       1 UNK         0.0000 
      3 C3          1.1582   52.0792   19.0513 C.3       1 UNK         0.0000 
      4 C4          3.5497   52.9386   19.5442 C.3       1 UNK         0.0000 
      5 H5          3.0650   53.8344   19.1540 H         1 UNK         0.0000 
      6 C6          3.5868   53.1897   21.0911 C.2       1 UNK         0.0000 
      7 O7          2.5997   52.8967   21.7713 O.2       1 UNK         0.0000 
      8 N8          4.7091   53.7515   21.6009 N.am      1 UNK         0.0000 
      9 C9          4.9610   54.0405   22.9339 C.2       1 UNK         0.0000 
     10 N10         4.1117   53.9642   23.9285 N.2       1 UNK         0.0000 
     11 C11         4.6599   54.1836   25.1128 C.2       1 UNK         0.0000 
     12 C12         6.0137   54.5363   25.0405 C.2       1 UNK         0.0000 
     13 S13         6.5631   54.4976   23.3890 S.3       1 UNK         0.0000 
     14 C14         3.8383   53.9829   26.3546 C.ar      1 UNK         0.0000 
     15 C15         4.4380   54.0152   27.6196 C.ar      1 UNK         0.0000 
     16 C16         3.6917   53.7341   28.7618 C.ar      1 UNK         0.0000 
     17 C17         2.3300   53.4214   28.6467 C.ar      1 UNK         0.0000 
     18 C18         1.7187   53.4287   27.3966 C.ar      1 UNK         0.0000 
     19 C19         2.4689   53.6961   26.2592 C.ar      1 UNK         0.0000 
     20 N20         1.5049   53.1053   29.7353 N.am      1 UNK         0.0000 
     21 C21         1.8547   52.4967   30.8816 C.2       1 UNK         0.0000 
     22 O22         2.9870   52.0967   31.1566 O.2       1 UNK         0.0000 
     23 C23         0.7184   52.2700   31.8666 C.3       1 UNK         0.0000 
     24 N24         4.8534   52.8967   18.8502 N.am      1 UNK         0.0000 
     25 C25         5.6617   53.9595   18.6423 C.2       1 UNK         0.0000 
     26 O26         5.3938   55.0892   19.0561 O.2       1 UNK         0.0000 
     27 C27         6.9782   53.7069   17.9504 C.ar      1 UNK         0.0000 
     28 C28         7.1137   52.6995   16.9863 C.ar      1 UNK         0.0000 
     29 C29         8.3492   52.4564   16.3921 C.ar      1 UNK         0.0000 
     30 C30         9.4522   53.2298   16.7464 C.ar      1 UNK         0.0000 
     31 C31         9.3261   54.2535   17.6817 C.ar      1 UNK         0.0000 
     32 C32         8.0907   54.4970   18.2760 C.ar      1 UNK         0.0000 
     33 Cl33       10.9865   52.9183   16.0203 Cl        1 UNK         0.0000 
     34 H34         2.4048   50.4910   20.9453 H         1 UNK         0.0000 
     35 H35         2.3956   49.5718   19.4507 H         1 UNK         0.0000 
     36 H36         3.9058   50.2029   20.0787 H         1 UNK         0.0000 
     37 H37         2.9378   51.4480   18.1075 H         1 UNK         0.0000 
     38 H38         0.7599   52.3752   20.0215 H         1 UNK         0.0000 
     39 H39         0.9905   52.9068   18.3612 H         1 UNK         0.0000 
     40 H40         0.5683   51.2339   18.6967 H         1 UNK         0.0000 
     41 H41         5.4396   53.9745   20.9409 H         1 UNK         0.0000 
     42 H42         6.6988   54.7585   25.8433 H         1 UNK         0.0000 
     43 H43         5.4903   54.2300   27.7292 H         1 UNK         0.0000 
     44 H44         4.1828   53.7548   29.7226 H         1 UNK         0.0000 
     45 H45         0.6690   53.1949   27.2909 H         1 UNK         0.0000 
     46 H46         1.9739   53.6624   25.2992 H         1 UNK         0.0000 
     47 H47         0.5168   53.2333   29.5820 H         1 UNK         0.0000 
     48 H48         0.3220   53.2175   32.2297 H         1 UNK         0.0000 
     49 H49        -0.0919   51.7144   31.3917 H         1 UNK         0.0000 
     50 H50         1.0582   51.6969   32.7291 H         1 UNK         0.0000 
     51 H51         5.1058   51.9715   18.4843 H         1 UNK         0.0000 
     52 H52         6.2666   52.0954   16.6960 H         1 UNK         0.0000 
     53 H53         8.4510   51.6668   15.6624 H         1 UNK         0.0000 
     54 H54        10.1848   54.8509   17.9536 H         1 UNK         0.0000 
     55 H55         8.0118   55.2885   19.0082 H         1 UNK         0.0000 
@<TRIPOS>BOND
     1    1    2 1    
     2    1   34 1    
     3    1   35 1    
     4    1   36 1    
     5    2    3 1    
     6    2    4 1    
     7    2   37 1    
     8    3   38 1    
     9    3   39 1    
    10    3   40 1    
    11    4    5 1    
    12    4    6 1    
    13    4   24 1    
    14    6    7 2    
    15    6    8 am   BACKBONE|DICT|INTERRES
    16    8    9 am   BACKBONE|DICT|INTERRES
    17    8   41 1    
    18    9   13 1    
    19    9   10 2    
    20   10   11 1    
    21   11   12 2    
    22   11   14 1    
    23   12   13 1    
    24   12   42 1    
    25   14   19 ar   
    26   14   15 ar   
    27   15   16 ar   
    28   15   43 1    
    29   16   17 ar   
    30   16   44 1    
    31   17   18 ar   
    32   17   20 1    
    33   18   19 ar   
    34   18   45 1    
    35   19   46 1    
    36   20   21 am   BACKBONE|DICT|INTERRES
    37   20   47 1    
    38   21   22 2    
    39   21   23 1    
    40   23   48 1    
    41   23   49 1    
    42   23   50 1    
    43   24   25 am   BACKBONE|DICT|INTERRES
    44   24   51 1    
    45   25   26 2    
    46   25   27 1    
    47   27   32 ar   
    48   27   28 ar   
    49   28   29 ar   
    50   28   52 1    
    51   29   30 ar   
    52   29   53 1    
    53   30   31 ar   
    54   30   33 1    
    55   31   32 ar   
    56   31   54 1    
    57   32   55 1    
@<TRIPOS>SUBSTRUCTURE
     1 UNK         1 GROUP             0       ****    0 ROOT    
