@<TRIPOS>MOLECULE
ZINC39659773_177
73   76    1
SMALL
USER_CHARGES


@<TRIPOS>ATOM
      1 C1          5.8927   54.4990   21.1023 C.3       1 UNK         0.0000 
      2 O2          6.3181   54.4873   22.4631 O.3       1 UNK         0.0000 
      3 C3          5.3752   54.3225   23.4559 C.ar      1 UNK         0.0000 
      4 C4          3.9995   54.2292   23.2205 C.ar      1 UNK         0.0000 
      5 C5          3.1144   54.0969   24.2783 C.ar      1 UNK         0.0000 
      6 C6          3.5614   53.9779   25.6021 C.ar      1 UNK         0.0000 
      7 C7          4.9511   54.0959   25.8526 C.ar      1 UNK         0.0000 
      8 C8          5.8320   54.2738   24.7688 C.ar      1 UNK         0.0000 
      9 O9          5.4030   53.9808   27.1585 O.3       1 UNK         0.0000 
     10 C10         6.7952   54.0588   27.4530 C.3       1 UNK         0.0000 
     11 C11         2.5783   53.7896   26.7536 C.2       1 UNK         0.0000 
     12 O12         2.8172   54.3445   27.8296 O.2       1 UNK         0.0000 
     13 N13         1.4531   53.0316   26.6076 N.am      1 UNK         0.0000 
     14 C14         0.5033   52.8948   27.7150 C.3       1 UNK         0.0000 
     15 C15        -0.7920   52.3973   27.0387 C.3       1 UNK         0.0000 
     16 H16        -1.3175   53.2962   26.7227 H         1 UNK         0.0000 
     17 C17        -0.2769   51.5205   25.8602 C.3       1 UNK         0.0000 
     18 C18         0.9807   52.3040   25.4216 C.3       1 UNK         0.0000 
     19 C19        -1.3409   51.3676   24.7384 C.3       1 UNK         0.0000 
     20 C20        -0.8015   50.5929   23.5214 C.3       1 UNK         0.0000 
     21 N21        -0.4150   49.1785   24.0054 N.4       1 UNK         0.0000 
     22 C22         0.6210   49.1888   25.1483 C.3       1 UNK         0.0000 
     23 C23         0.0880   50.0694   26.2974 C.3       1 UNK         0.0000 
     24 C24        -1.6697   51.6966   28.1089 C.2       1 UNK         0.0000 
     25 O25        -1.2980   51.5698   29.2773 O.2       1 UNK         0.0000 
     26 N26        -2.8430   51.2206   27.6531 N.am      1 UNK         0.0000 
     27 C27        -3.7967   50.3559   28.3580 C.3       1 UNK         0.0000 
     28 C28        -4.9708   51.1510   28.9826 C.3       1 UNK         0.0000 
     29 C29        -5.8779   51.9437   28.0083 C.3       1 UNK         0.0000 
     30 C30        -7.2418   51.2953   27.6869 C.3       1 UNK         0.0000 
     31 C31        -7.2569   49.7825   27.3793 C.3       1 UNK         0.0000 
     32 C32        -6.4777   49.3155   26.1317 C.3       1 UNK         0.0000 
     33 C33        -4.9473   49.5265   26.1273 C.3       1 UNK         0.0000 
     34 C34        -4.2135   49.1730   27.4448 C.3       1 UNK         0.0000 
     35 H35         6.7531   54.6223   20.4447 H         1 UNK         0.0000 
     36 H36         5.4078   53.5579   20.8285 H         1 UNK         0.0000 
     37 H37         5.2053   55.3221   20.8999 H         1 UNK         0.0000 
     38 H38         3.5932   54.3026   22.2235 H         1 UNK         0.0000 
     39 H39         2.0698   54.1338   24.0264 H         1 UNK         0.0000 
     40 H40         6.8962   54.3551   24.9253 H         1 UNK         0.0000 
     41 H41         6.9467   53.9071   28.5225 H         1 UNK         0.0000 
     42 H42         7.3600   53.2858   26.9305 H         1 UNK         0.0000 
     43 H43         7.1967   55.0406   27.2005 H         1 UNK         0.0000 
     44 H44         0.3316   53.8189   28.2681 H         1 UNK         0.0000 
     45 H45         0.9210   52.1251   28.3676 H         1 UNK         0.0000 
     46 H46         1.7215   51.7098   24.8837 H         1 UNK         0.0000 
     47 H47         0.5959   53.0535   24.7327 H         1 UNK         0.0000 
     48 H48        -2.2493   50.8920   25.1058 H         1 UNK         0.0000 
     49 H49        -1.6511   52.3582   24.4001 H         1 UNK         0.0000 
     50 H50        -1.5629   50.4573   22.7508 H         1 UNK         0.0000 
     51 H51         0.0844   51.0419   23.0719 H         1 UNK         0.0000 
     52 H52        -1.2476   48.7113   24.3419 H         1 UNK         0.0000 
     53 H53         0.7566   48.1514   25.4509 H         1 UNK         0.0000 
     54 H54         1.5361   49.5455   24.6936 H         1 UNK         0.0000 
     55 H55         0.8338   50.0965   27.0940 H         1 UNK         0.0000 
     56 H56        -0.7723   49.5750   26.7368 H         1 UNK         0.0000 
     57 H57        -3.0745   51.4076   26.6927 H         1 UNK         0.0000 
     58 H58        -3.2887   49.8869   29.2041 H         1 UNK         0.0000 
     59 H59        -4.5353   51.8605   29.6819 H         1 UNK         0.0000 
     60 H60        -5.5686   50.4960   29.6166 H         1 UNK         0.0000 
     61 H61        -5.3456   52.1891   27.0913 H         1 UNK         0.0000 
     62 H62        -6.0971   52.9142   28.4546 H         1 UNK         0.0000 
     63 H63        -7.7064   51.8362   26.8590 H         1 UNK         0.0000 
     64 H64        -7.9023   51.4615   28.5411 H         1 UNK         0.0000 
     65 H65        -8.2983   49.4860   27.2500 H         1 UNK         0.0000 
     66 H66        -6.9268   49.2248   28.2541 H         1 UNK         0.0000 
     67 H67        -6.9067   49.7881   25.2471 H         1 UNK         0.0000 
     68 H68        -6.6716   48.2488   26.0069 H         1 UNK         0.0000 
     69 H69        -4.7113   50.5406   25.8086 H         1 UNK         0.0000 
     70 H70        -4.5403   48.9033   25.3296 H         1 UNK         0.0000 
     71 H71        -4.7781   48.4410   28.0190 H         1 UNK         0.0000 
     72 H72        -3.2957   48.6394   27.1806 H         1 UNK         0.0000 
     73 H73        -0.0625   48.6308   23.2313 H         1 UNK         0.0000 
@<TRIPOS>BOND
     1    1    2 1    
     2    1   35 1    
     3    1   36 1    
     4    1   37 1    
     5    2    3 1    
     6    3    8 ar   
     7    3    4 ar   
     8    4    5 ar   
     9    4   38 1    
    10    5    6 ar   
    11    5   39 1    
    12    6    7 ar   
    13    6   11 1    
    14    7    8 ar   
    15    7    9 1    
    16    8   40 1    
    17    9   10 1    
    18   10   41 1    
    19   10   42 1    
    20   10   43 1    
    21   11   12 2    
    22   11   13 am   BACKBONE|DICT|INTERRES
    23   13   18 1    
    24   13   14 1    
    25   14   15 1    
    26   14   44 1    
    27   14   45 1    
    28   15   16 1    
    29   15   17 1    
    30   15   24 1    
    31   17   23 1    
    32   17   18 1    
    33   17   19 1    
    34   18   46 1    
    35   18   47 1    
    36   19   20 1    
    37   19   48 1    
    38   19   49 1    
    39   20   21 1    
    40   20   50 1    
    41   20   51 1    
    42   21   22 1    
    43   21   52 1    
    44   21   73 1    
    45   22   23 1    
    46   22   53 1    
    47   22   54 1    
    48   23   55 1    
    49   23   56 1    
    50   24   25 2    
    51   24   26 am   BACKBONE|DICT|INTERRES
    52   26   27 1    
    53   26   57 1    
    54   27   34 1    
    55   27   28 1    
    56   27   58 1    
    57   28   29 1    
    58   28   59 1    
    59   28   60 1    
    60   29   30 1    
    61   29   61 1    
    62   29   62 1    
    63   30   31 1    
    64   30   63 1    
    65   30   64 1    
    66   31   32 1    
    67   31   65 1    
    68   31   66 1    
    69   32   33 1    
    70   32   67 1    
    71   32   68 1    
    72   33   34 1    
    73   33   69 1    
    74   33   70 1    
    75   34   71 1    
    76   34   72 1    
@<TRIPOS>SUBSTRUCTURE
     1 UNK         1 GROUP             0       ****    0 ROOT    
