@<TRIPOS>MOLECULE
ZINC12557557_2752
48   51    1
SMALL
USER_CHARGES


@<TRIPOS>ATOM
      1 C1          5.0523   52.2876   21.0476 C.3       1 UNK         0.0000 
      2 C2          4.7680   53.7938   21.1644 C.3       1 UNK         0.0000 
      3 H3          4.6327   54.1568   20.1403 H         1 UNK         0.0000 
      4 C4          5.9011   54.6421   21.7836 C.3       1 UNK         0.0000 
      5 C5          6.1719   54.3091   23.2740 C.3       1 UNK         0.0000 
      6 C6          4.8471   54.1754   24.0338 C.2       1 UNK         0.0000 
      7 C7          3.6249   54.0122   23.3804 C.2       1 UNK         0.0000 
      8 S8          2.2452   53.8490   24.4210 S.3       1 UNK         0.0000 
      9 C9          3.2845   54.0147   25.8068 C.ar      1 UNK         0.0000 
     10 C10         4.6575   54.1765   25.4545 C.ar      1 UNK         0.0000 
     11 C11         5.5332   54.3072   26.5611 C.ar      1 UNK         0.0000 
     12 N12         5.0835   54.2530   27.8401 N.ar      1 UNK         0.0000 
     13 C13         3.7537   54.0717   28.0179 C.ar      1 UNK         0.0000 
     14 N14         2.8125   53.9810   27.0485 N.ar      1 UNK         0.0000 
     15 S15         3.2130   53.8838   29.6841 S.3       1 UNK         0.0000 
     16 C16         1.4138   53.5453   29.6803 C.3       1 UNK         0.0000 
     17 C17         1.1043   52.2313   28.9528 C.2       1 UNK         0.0000 
     18 O18         1.9068   51.2976   28.8824 O.2       1 UNK         0.0000 
     19 O19        -0.1150   52.2634   28.3752 O.3       1 UNK         0.0000 
     20 C20        -0.5193   51.2471   27.4627 C.3       1 UNK         0.0000 
     21 H21        -0.2311   50.2621   27.8382 H         1 UNK         0.0000 
     22 C22        -2.0553   51.3320   27.3895 C.3       1 UNK         0.0000 
     23 C23        -2.4871   50.4961   26.1769 C.3       1 UNK         0.0000 
     24 S24        -1.1861   50.8244   24.8696 S.o2      1 UNK         0.0000 
     25 O25        -1.6403   51.8790   23.9572 O.2       1 UNK         0.0000 
     26 O26        -0.6962   49.5469   24.3455 O.2       1 UNK         0.0000 
     27 C27         0.0476   51.5556   26.0686 C.3       1 UNK         0.0000 
     28 N28         6.9051   54.4896   26.4126 N.pl3     1 UNK         0.0000 
     29 C29         3.4414   54.0836   21.8856 C.3       1 UNK         0.0000 
     30 H30         5.3182   51.8548   22.0136 H         1 UNK         0.0000 
     31 H31         4.1846   51.7476   20.6622 H         1 UNK         0.0000 
     32 H32         5.8647   52.0972   20.3486 H         1 UNK         0.0000 
     33 H33         6.8213   54.4994   21.2183 H         1 UNK         0.0000 
     34 H34         5.6524   55.6979   21.6828 H         1 UNK         0.0000 
     35 H35         6.7849   55.1013   23.7006 H         1 UNK         0.0000 
     36 H36         6.7513   53.3884   23.3597 H         1 UNK         0.0000 
     37 H37         0.8848   54.3625   29.1911 H         1 UNK         0.0000 
     38 H38         1.0507   53.4663   30.7037 H         1 UNK         0.0000 
     39 H39        -2.3913   52.3643   27.2783 H         1 UNK         0.0000 
     40 H40        -2.5100   50.9261   28.2965 H         1 UNK         0.0000 
     41 H41        -3.4931   50.6305   25.7830 H         1 UNK         0.0000 
     42 H42        -2.3868   49.4450   26.4688 H         1 UNK         0.0000 
     43 H43         1.0789   51.2931   25.8505 H         1 UNK         0.0000 
     44 H44        -0.0553   52.6285   25.9098 H         1 UNK         0.0000 
     45 H45         7.3098   54.4527   25.4888 H         1 UNK         0.0000 
     46 H46         7.4660   54.5327   27.2506 H         1 UNK         0.0000 
     47 H47         2.6503   53.4147   21.5422 H         1 UNK         0.0000 
     48 H48         3.1040   55.0930   21.6685 H         1 UNK         0.0000 
@<TRIPOS>BOND
     1    1    2 1    
     2    1   30 1    
     3    1   31 1    
     4    1   32 1    
     5    2    3 1    
     6    2   29 1    
     7    2    4 1    
     8    4    5 1    
     9    4   33 1    
    10    4   34 1    
    11    5    6 1    
    12    5   35 1    
    13    5   36 1    
    14    6   10 1    
    15    6    7 2    
    16    7    8 1    
    17    7   29 1    
    18    8    9 1    
    19    9   14 ar   
    20    9   10 ar   
    21   10   11 ar   
    22   11   12 ar   
    23   11   28 1    
    24   12   13 ar   
    25   13   14 ar   
    26   13   15 1    
    27   15   16 1    
    28   16   17 1    
    29   16   37 1    
    30   16   38 1    
    31   17   18 2    
    32   17   19 1    
    33   19   20 1    
    34   20   21 1    
    35   20   27 1    
    36   20   22 1    
    37   22   23 1    
    38   22   39 1    
    39   22   40 1    
    40   23   24 1    
    41   23   41 1    
    42   23   42 1    
    43   24   25 2    
    44   24   26 2    
    45   24   27 1    
    46   27   43 1    
    47   27   44 1    
    48   28   45 1    
    49   28   46 1    
    50   29   47 1    
    51   29   48 1    
@<TRIPOS>SUBSTRUCTURE
     1 UNK         1 GROUP             0       ****    0 ROOT    
