@<TRIPOS>MOLECULE
ZINC05736328_2660
46   48    1
SMALL
USER_CHARGES


@<TRIPOS>ATOM
      1 C1         -2.8695   50.1397   25.0224 C.3       1 UNK         0.0000 
      2 C2         -1.6309   50.8520   24.5126 C.ar      1 UNK         0.0000 
      3 C3         -0.5223   50.1002   24.1174 C.ar      1 UNK         0.0000 
      4 C4          0.6308   50.7417   23.6740 C.ar      1 UNK         0.0000 
      5 C5          0.6722   52.1366   23.6463 C.ar      1 UNK         0.0000 
      6 C6         -0.4400   52.8952   24.0213 C.ar      1 UNK         0.0000 
      7 C7         -1.5938   52.2472   24.4563 C.ar      1 UNK         0.0000 
      8 N8          1.8563   52.7908   23.2721 N.pl3     1 UNK         0.0000 
      9 C9          2.7804   53.4595   24.0691 C.ar      1 UNK         0.0000 
     10 N10         3.7170   53.9731   23.3005 N.2       1 UNK         0.0000 
     11 N11         3.4599   53.6106   21.9881 N.2       1 UNK         0.0000 
     12 C12         2.3667   52.8939   21.9914 C.ar      1 UNK         0.0000 
     13 S13         1.6487   52.2189   20.5246 S.3       1 UNK         0.0000 
     14 C14         2.7969   50.8248   20.2544 C.3       1 UNK         0.0000 
     15 C15         2.0693   49.4900   20.0556 C.2       1 UNK         0.0000 
     16 O16         1.3415   49.0743   20.9603 O.2       1 UNK         0.0000 
     17 N17         2.3033   48.8490   18.8836 N.am      1 UNK         0.0000 
     18 C18         1.7888   47.6650   18.4805 C.2       1 UNK         0.0000 
     19 O19         0.9740   46.9757   19.1020 O.2       1 UNK         0.0000 
     20 N20         2.3046   47.2968   17.2987 N.am      1 UNK         0.0000 
     21 C21         2.0061   46.0642   16.5786 C.3       1 UNK         0.0000 
     22 C22         2.8419   53.5421   25.5846 C.ar      1 UNK         0.0000 
     23 C23         3.9460   54.1835   26.1703 C.ar      1 UNK         0.0000 
     24 C24         4.1204   54.2030   27.5513 C.ar      1 UNK         0.0000 
     25 C25         3.1810   53.5919   28.3730 C.ar      1 UNK         0.0000 
     26 C26         2.0661   52.9703   27.8224 C.ar      1 UNK         0.0000 
     27 C27         1.9013   52.9443   26.4406 C.ar      1 UNK         0.0000 
     28 Cl28        3.4117   53.5880   30.0809 Cl        1 UNK         0.0000 
     29 H29        -2.6012   49.4596   25.8326 H         1 UNK         0.0000 
     30 H30        -3.6169   50.8338   25.4070 H         1 UNK         0.0000 
     31 H31        -3.3210   49.5428   24.2288 H         1 UNK         0.0000 
     32 H32        -0.5495   49.0214   24.1583 H         1 UNK         0.0000 
     33 H33         1.4876   50.1526   23.3805 H         1 UNK         0.0000 
     34 H34        -0.4050   53.9752   23.9941 H         1 UNK         0.0000 
     35 H35        -2.4505   52.8309   24.7601 H         1 UNK         0.0000 
     36 H36         3.4673   50.7113   21.1063 H         1 UNK         0.0000 
     37 H37         3.4241   51.0659   19.3928 H         1 UNK         0.0000 
     38 H38         2.9522   49.2952   18.2442 H         1 UNK         0.0000 
     39 H39         2.9996   47.9135   16.8806 H         1 UNK         0.0000 
     40 H40         1.3855   46.2810   15.7087 H         1 UNK         0.0000 
     41 H41         1.4870   45.3310   17.1968 H         1 UNK         0.0000 
     42 H42         2.9364   45.6163   16.2272 H         1 UNK         0.0000 
     43 H43         4.7020   54.6509   25.5567 H         1 UNK         0.0000 
     44 H44         4.9873   54.6843   27.9803 H         1 UNK         0.0000 
     45 H45         1.3397   52.4875   28.4608 H         1 UNK         0.0000 
     46 H46         1.0449   52.4098   26.0742 H         1 UNK         0.0000 
@<TRIPOS>BOND
     1    1    2 1    
     2    1   29 1    
     3    1   30 1    
     4    1   31 1    
     5    2    7 ar   
     6    2    3 ar   
     7    3    4 ar   
     8    3   32 1    
     9    4    5 ar   
    10    4   33 1    
    11    5    6 ar   
    12    5    8 1    
    13    6    7 ar   
    14    6   34 1    
    15    7   35 1    
    16    8   12 ar   
    17    8    9 ar   
    18    9   10 ar   
    19    9   22 1    
    20   10   11 ar   
    21   11   12 ar   
    22   12   13 1    
    23   13   14 1    
    24   14   15 1    
    25   14   36 1    
    26   14   37 1    
    27   15   16 2    
    28   15   17 am   BACKBONE|DICT|INTERRES
    29   17   18 am   BACKBONE|DICT|INTERRES
    30   17   38 1    
    31   18   19 2    
    32   18   20 am   BACKBONE|DICT|INTERRES
    33   20   21 1    
    34   20   39 1    
    35   21   40 1    
    36   21   41 1    
    37   21   42 1    
    38   22   27 ar   
    39   22   23 ar   
    40   23   24 ar   
    41   23   43 1    
    42   24   25 ar   
    43   24   44 1    
    44   25   26 ar   
    45   25   28 1    
    46   26   27 ar   
    47   26   45 1    
    48   27   46 1    
@<TRIPOS>SUBSTRUCTURE
     1 UNK         1 GROUP             0       ****    0 ROOT    
