@<TRIPOS>MOLECULE
ZINC64055351_299
52   56    1
SMALL
USER_CHARGES


@<TRIPOS>ATOM
      1 C1          1.5670   53.3674   27.4583 C.ar      1 UNK         0.0000 
      2 C2          2.6570   54.1720   27.7644 C.ar      1 UNK         0.0000 
      3 C3          3.5782   54.4964   26.7724 C.ar      1 UNK         0.0000 
      4 C4          3.4353   54.0252   25.4540 C.ar      1 UNK         0.0000 
      5 C5          2.3103   53.2283   25.1737 C.ar      1 UNK         0.0000 
      6 C6          1.3902   52.8968   26.1636 C.ar      1 UNK         0.0000 
      7 C7          4.4551   54.3453   24.3859 C.ar      1 UNK         0.0000 
      8 C8          5.7037   54.8976   24.7126 C.ar      1 UNK         0.0000 
      9 C9          6.6350   55.2190   23.7307 C.ar      1 UNK         0.0000 
     10 C10         6.3665   54.9691   22.3854 C.ar      1 UNK         0.0000 
     11 C11         5.1400   54.3855   22.0405 C.ar      1 UNK         0.0000 
     12 C12         4.1986   54.0965   23.0253 C.ar      1 UNK         0.0000 
     13 N13         7.3808   55.2967   21.4576 N.am      1 UNK         0.0000 
     14 C14         7.2764   55.4196   20.1130 C.2       1 UNK         0.0000 
     15 O15         6.2052   55.4829   19.5101 O.2       1 UNK         0.0000 
     16 C16         8.6050   55.4789   19.3343 C.3       1 UNK         0.0000 
     17 S17         8.4777   55.3461   17.5086 S.3       1 UNK         0.0000 
     18 C18         7.8132   53.6555   17.2886 C.3       1 UNK         0.0000 
     19 H19         7.3249   53.3776   18.2232 H         1 UNK         0.0000 
     20 N20         6.8533   53.5851   16.2391 N.pl3     1 UNK         0.0000 
     21 N21         7.4242   52.8567   15.1990 N.2       1 UNK         0.0000 
     22 C22         8.4934   52.3676   15.6818 C.2       1 UNK         0.0000 
     23 O23         8.7920   52.7363   16.9695 O.3       1 UNK         0.0000 
     24 C24         9.3748   51.4907   14.9396 C.2       1 UNK         0.0000 
     25 C25        10.5612   50.9872   15.3453 C.2       1 UNK         0.0000 
     26 C26        11.3443   51.1476   16.5778 C.2       1 UNK         0.0000 
     27 C27        12.5242   50.5174   16.7477 C.2       1 UNK         0.0000 
     28 C28        13.0110   49.6794   15.6613 C.2       1 UNK         0.0000 
     29 C29        12.3170   49.5347   14.5028 C.2       1 UNK         0.0000 
     30 C30        11.0901   50.1850   14.3275 C.2       1 UNK         0.0000 
     31 N31        10.3044   50.1723   13.2818 N.pl3     1 UNK         0.0000 
     32 C32         9.0989   50.9849   13.5347 C.3       1 UNK         0.0000 
     33 H33         0.8505   53.1101   28.2258 H         1 UNK         0.0000 
     34 H34         2.7895   54.5443   28.7690 H         1 UNK         0.0000 
     35 H35         4.4012   55.1301   27.0613 H         1 UNK         0.0000 
     36 H36         2.1410   52.8148   24.1929 H         1 UNK         0.0000 
     37 H37         0.5424   52.2700   25.9253 H         1 UNK         0.0000 
     38 H38         5.9809   55.1059   25.7337 H         1 UNK         0.0000 
     39 H39         7.5517   55.6896   24.0333 H         1 UNK         0.0000 
     40 H40         4.8901   54.1486   21.0175 H         1 UNK         0.0000 
     41 H41         3.2631   53.6767   22.6935 H         1 UNK         0.0000 
     42 H42         8.2972   55.4119   21.8657 H         1 UNK         0.0000 
     43 H43         9.0984   56.4235   19.5640 H         1 UNK         0.0000 
     44 H44         9.2720   54.6890   19.6782 H         1 UNK         0.0000 
     45 H45         6.4413   54.4281   15.8604 H         1 UNK         0.0000 
     46 H46        11.0004   51.7914   17.3698 H         1 UNK         0.0000 
     47 H47        13.0987   50.6498   17.6528 H         1 UNK         0.0000 
     48 H48        13.9543   49.1630   15.7743 H         1 UNK         0.0000 
     49 H49        12.7254   48.9082   13.7183 H         1 UNK         0.0000 
     50 H50         8.2244   50.3347   13.4613 H         1 UNK         0.0000 
     51 H51         9.0513   51.7743   12.7820 H         1 UNK         0.0000 
     52 H52        10.5355   49.6964   12.3991 H         1 UNK         0.0000 
@<TRIPOS>BOND
     1    1    6 ar   
     2    1    2 ar   
     3    1   33 1    
     4    2    3 ar   
     5    2   34 1    
     6    3    4 ar   
     7    3   35 1    
     8    4    5 ar   
     9    4    7 1    
    10    5    6 ar   
    11    5   36 1    
    12    6   37 1    
    13    7   12 ar   
    14    7    8 ar   
    15    8    9 ar   
    16    8   38 1    
    17    9   10 ar   
    18    9   39 1    
    19   10   11 ar   
    20   10   13 1    
    21   11   12 ar   
    22   11   40 1    
    23   12   41 1    
    24   13   14 am   BACKBONE|DICT|INTERRES
    25   13   42 1    
    26   14   15 2    
    27   14   16 1    
    28   16   17 1    
    29   16   43 1    
    30   16   44 1    
    31   17   18 1    
    32   18   19 1    
    33   18   23 1    
    34   18   20 1    
    35   20   21 1    
    36   20   45 1    
    37   21   22 2    
    38   22   23 1    
    39   22   24 1    
    40   24   32 1    
    41   24   25 2    
    42   25   30 1    
    43   25   26 1    
    44   26   27 2    
    45   26   46 1    
    46   27   28 1    
    47   27   47 1    
    48   28   29 2    
    49   28   48 1    
    50   29   30 1    
    51   29   49 1    
    52   30   31 2    
    53   31   32 1    
    54   31   52 1    
    55   32   50 1    
    56   32   51 1    
@<TRIPOS>SUBSTRUCTURE
     1 UNK         1 GROUP             0       ****    0 ROOT    
