@<TRIPOS>MOLECULE
ZINC20214186_844
65   68    1
SMALL
USER_CHARGES


@<TRIPOS>ATOM
      1 C1          6.2823   55.4155   24.8274 C.3       1 UNK         0.0000 
      2 C2          6.6666   54.1849   23.9908 C.3       1 UNK         0.0000 
      3 O3          5.9907   54.1327   22.7371 O.3       1 UNK         0.0000 
      4 C4          6.3036   54.9388   21.6963 C.2       1 UNK         0.0000 
      5 O5          7.1813   55.8010   21.7622 O.2       1 UNK         0.0000 
      6 C6          5.5034   54.7354   20.4587 C.2       1 UNK         0.0000 
      7 C7          4.5815   53.7560   20.2378 C.2       1 UNK         0.0000 
      8 N8          3.9048   53.6988   19.0520 N.am      1 UNK         0.0000 
      9 C9          3.9041   54.6438   18.0841 C.2       1 UNK         0.0000 
     10 O10         3.2322   54.5542   17.0632 O.2       1 UNK         0.0000 
     11 N11         4.7296   55.6930   18.3219 N.am      1 UNK         0.0000 
     12 C12         5.8716   55.6640   19.2730 C.3       1 UNK         0.0000 
     13 H13         6.0408   56.6859   19.6202 H         1 UNK         0.0000 
     14 C14         7.1980   55.2790   18.5984 C.ar      1 UNK         0.0000 
     15 C15         7.3371   54.0401   17.9559 C.ar      1 UNK         0.0000 
     16 C16         8.5595   53.6754   17.3998 C.ar      1 UNK         0.0000 
     17 C17         9.6433   54.5457   17.4783 C.ar      1 UNK         0.0000 
     18 C18         9.5047   55.7916   18.0842 C.ar      1 UNK         0.0000 
     19 C19         8.2892   56.1547   18.6509 C.ar      1 UNK         0.0000 
     20 Cl20       11.1759   54.0702   16.8495 Cl        1 UNK         0.0000 
     21 C21         4.1151   52.6258   21.1647 C.3       1 UNK         0.0000 
     22 N22         2.8392   52.8956   21.8322 N.3       1 UNK         0.0000 
     23 C23         2.9915   53.7462   23.0165 C.3       1 UNK         0.0000 
     24 C24         1.6090   54.1114   23.5957 C.3       1 UNK         0.0000 
     25 N25         0.7483   52.9537   23.9092 N.pl3     1 UNK         0.0000 
     26 C26         0.7315   52.0224   22.7623 C.3       1 UNK         0.0000 
     27 C27         2.1296   51.6718   22.1939 C.3       1 UNK         0.0000 
     28 C28         0.5231   52.4932   25.2074 C.ar      1 UNK         0.0000 
     29 C29         1.5049   52.6683   26.1969 C.ar      1 UNK         0.0000 
     30 C30         1.3359   52.1761   27.4932 C.ar      1 UNK         0.0000 
     31 C31         0.1701   51.4859   27.8179 C.ar      1 UNK         0.0000 
     32 C32        -0.8216   51.3064   26.8601 C.ar      1 UNK         0.0000 
     33 C33        -0.6624   51.8052   25.5620 C.ar      1 UNK         0.0000 
     34 C34        -1.8340   51.6351   24.5999 C.3       1 UNK         0.0000 
     35 C35         2.4325   52.3589   28.5274 C.3       1 UNK         0.0000 
     36 H36         6.7305   55.3674   25.8210 H         1 UNK         0.0000 
     37 H37         6.6177   56.3371   24.3533 H         1 UNK         0.0000 
     38 H38         5.2021   55.4772   24.9572 H         1 UNK         0.0000 
     39 H39         6.3784   53.2975   24.5494 H         1 UNK         0.0000 
     40 H40         7.7445   54.1086   23.8490 H         1 UNK         0.0000 
     41 H41         3.2332   52.9625   18.8994 H         1 UNK         0.0000 
     42 H42         4.7912   56.3494   17.5576 H         1 UNK         0.0000 
     43 H43         6.5096   53.3470   17.9090 H         1 UNK         0.0000 
     44 H44         8.6703   52.7094   16.9289 H         1 UNK         0.0000 
     45 H45        10.3507   56.4599   18.1487 H         1 UNK         0.0000 
     46 H46         8.2083   57.1126   19.1452 H         1 UNK         0.0000 
     47 H47         4.0361   51.7272   20.5478 H         1 UNK         0.0000 
     48 H48         4.8819   52.3235   21.8748 H         1 UNK         0.0000 
     49 H49         3.5878   53.2396   23.7778 H         1 UNK         0.0000 
     50 H50         3.4888   54.6773   22.7445 H         1 UNK         0.0000 
     51 H51         1.1027   54.7340   22.8595 H         1 UNK         0.0000 
     52 H52         1.7432   54.7406   24.4749 H         1 UNK         0.0000 
     53 H53         0.1247   52.4752   21.9782 H         1 UNK         0.0000 
     54 H54         0.2460   51.0846   23.0278 H         1 UNK         0.0000 
     55 H55         1.9922   51.0448   21.3120 H         1 UNK         0.0000 
     56 H56         2.7033   51.1008   22.9244 H         1 UNK         0.0000 
     57 H57         2.4297   53.1712   25.9572 H         1 UNK         0.0000 
     58 H58         0.0264   51.0785   28.8099 H         1 UNK         0.0000 
     59 H59        -1.7160   50.7651   27.1366 H         1 UNK         0.0000 
     60 H60        -2.7818   51.6522   25.1393 H         1 UNK         0.0000 
     61 H61        -1.8854   52.4521   23.8794 H         1 UNK         0.0000 
     62 H62        -1.7624   50.6874   24.0667 H         1 UNK         0.0000 
     63 H63         2.2927   51.6991   29.3872 H         1 UNK         0.0000 
     64 H64         3.4040   52.1163   28.0946 H         1 UNK         0.0000 
     65 H65         2.4684   53.3938   28.8714 H         1 UNK         0.0000 
@<TRIPOS>BOND
     1    1    2 1    
     2    1   36 1    
     3    1   37 1    
     4    1   38 1    
     5    2    3 1    
     6    2   39 1    
     7    2   40 1    
     8    3    4 1    
     9    4    5 2    
    10    4    6 1    
    11    6   12 1    
    12    6    7 2    
    13    7    8 1    
    14    7   21 1    
    15    8    9 am   BACKBONE|DICT|INTERRES
    16    8   41 1    
    17    9   10 2    
    18    9   11 am   BACKBONE|DICT|INTERRES
    19   11   12 1    
    20   11   42 1    
    21   12   13 1    
    22   12   14 1    
    23   14   19 ar   
    24   14   15 ar   
    25   15   16 ar   
    26   15   43 1    
    27   16   17 ar   
    28   16   44 1    
    29   17   18 ar   
    30   17   20 1    
    31   18   19 ar   
    32   18   45 1    
    33   19   46 1    
    34   21   22 1    
    35   21   47 1    
    36   21   48 1    
    37   22   27 1    
    38   22   23 1    
    39   23   24 1    
    40   23   49 1    
    41   23   50 1    
    42   24   25 1    
    43   24   51 1    
    44   24   52 1    
    45   25   26 1    
    46   25   28 1    
    47   26   27 1    
    48   26   53 1    
    49   26   54 1    
    50   27   55 1    
    51   27   56 1    
    52   28   33 ar   
    53   28   29 ar   
    54   29   30 ar   
    55   29   57 1    
    56   30   31 ar   
    57   30   35 1    
    58   31   32 ar   
    59   31   58 1    
    60   32   33 ar   
    61   32   59 1    
    62   33   34 1    
    63   34   60 1    
    64   34   61 1    
    65   34   62 1    
    66   35   63 1    
    67   35   64 1    
    68   35   65 1    
@<TRIPOS>SUBSTRUCTURE
     1 UNK         1 GROUP             0       ****    0 ROOT    
