@<TRIPOS>MOLECULE
ZINC21226020_3931
45   48    1
SMALL
USER_CHARGES


@<TRIPOS>ATOM
      1 C1          0.0622   48.9906   24.5360 C.3       1 UNK         0.0000 
      2 C2         -0.8107   50.2316   24.2241 C.3       1 UNK         0.0000 
      3 H3         -1.8330   49.8791   24.0867 H         1 UNK         0.0000 
      4 C4         -0.9043   51.2605   25.3752 C.2       1 UNK         0.0000 
      5 O5         -1.3390   52.3913   25.1401 O.2       1 UNK         0.0000 
      6 N6         -0.5158   50.8677   26.6067 N.am      1 UNK         0.0000 
      7 C7         -0.2468   51.7105   27.6834 C.ar      1 UNK         0.0000 
      8 C8          0.4794   52.8973   27.5315 C.ar      1 UNK         0.0000 
      9 C9          0.6796   53.7180   28.6439 C.ar      1 UNK         0.0000 
     10 C10         0.1658   53.3227   29.8797 C.ar      1 UNK         0.0000 
     11 C11        -0.4955   52.0964   29.9565 C.ar      1 UNK         0.0000 
     12 N12        -0.7049   51.2974   28.8851 N.ar      1 UNK         0.0000 
     13 Cl13        0.3116   54.3319   31.2705 Cl        1 UNK         0.0000 
     14 S14        -0.3379   50.9599   22.6060 S.3       1 UNK         0.0000 
     15 C15         1.1604   51.9089   22.7159 C.ar      1 UNK         0.0000 
     16 N16         1.9076   51.9429   21.5869 N.ar      1 UNK         0.0000 
     17 C17         3.0790   52.6247   21.6301 C.ar      1 UNK         0.0000 
     18 C18         3.4896   53.3186   22.7959 C.ar      1 UNK         0.0000 
     19 C19         4.6622   54.0695   23.1360 C.2       1 UNK         0.0000 
     20 C20         4.6401   54.4965   24.4631 C.2       1 UNK         0.0000 
     21 S21         3.1631   54.0954   25.2998 S.3       1 UNK         0.0000 
     22 C22         2.5885   53.2291   23.8931 C.ar      1 UNK         0.0000 
     23 N23         1.4509   52.5317   23.8868 N.ar      1 UNK         0.0000 
     24 C24         5.7495   55.2940   25.1331 C.3       1 UNK         0.0000 
     25 C25         7.0624   55.0868   24.3571 C.3       1 UNK         0.0000 
     26 C26         6.8861   55.2507   22.8351 C.3       1 UNK         0.0000 
     27 C27         5.8569   54.2796   22.2213 C.3       1 UNK         0.0000 
     28 N28         3.8614   52.5650   20.4766 N.pl3     1 UNK         0.0000 
     29 H29        -0.2579   48.4678   25.4376 H         1 UNK         0.0000 
     30 H30         0.0151   48.2669   23.7215 H         1 UNK         0.0000 
     31 H31         1.1105   49.2645   24.6650 H         1 UNK         0.0000 
     32 H32        -0.5002   49.8776   26.8167 H         1 UNK         0.0000 
     33 H33         0.8562   53.1879   26.5651 H         1 UNK         0.0000 
     34 H34         1.2062   54.6550   28.5408 H         1 UNK         0.0000 
     35 H35        -0.8958   51.7280   30.8816 H         1 UNK         0.0000 
     36 H36         5.5041   56.3562   25.1491 H         1 UNK         0.0000 
     37 H37         5.8786   54.9952   26.1745 H         1 UNK         0.0000 
     38 H38         7.7940   55.8073   24.7196 H         1 UNK         0.0000 
     39 H39         7.4711   54.0967   24.5670 H         1 UNK         0.0000 
     40 H40         6.5931   56.2722   22.6119 H         1 UNK         0.0000 
     41 H41         7.8466   55.1182   22.3332 H         1 UNK         0.0000 
     42 H42         6.3044   53.3010   22.0821 H         1 UNK         0.0000 
     43 H43         5.5579   54.6424   21.2376 H         1 UNK         0.0000 
     44 H44         4.7399   53.0577   20.4322 H         1 UNK         0.0000 
     45 H45         3.5358   52.0256   19.6844 H         1 UNK         0.0000 
@<TRIPOS>BOND
     1    1    2 1    
     2    1   29 1    
     3    1   30 1    
     4    1   31 1    
     5    2    3 1    
     6    2    4 1    
     7    2   14 1    
     8    4    5 2    
     9    4    6 am   BACKBONE|DICT|INTERRES
    10    6    7 1    
    11    6   32 1    
    12    7   12 ar   
    13    7    8 ar   
    14    8    9 ar   
    15    8   33 1    
    16    9   10 ar   
    17    9   34 1    
    18   10   11 ar   
    19   10   13 1    
    20   11   12 ar   
    21   11   35 1    
    22   14   15 1    
    23   15   23 ar   
    24   15   16 ar   
    25   16   17 ar   
    26   17   18 ar   
    27   17   28 1    
    28   18   22 ar   
    29   18   19 1    
    30   19   27 1    
    31   19   20 2    
    32   20   21 1    
    33   20   24 1    
    34   21   22 1    
    35   22   23 ar   
    36   24   25 1    
    37   24   36 1    
    38   24   37 1    
    39   25   26 1    
    40   25   38 1    
    41   25   39 1    
    42   26   27 1    
    43   26   40 1    
    44   26   41 1    
    45   27   42 1    
    46   27   43 1    
    47   28   44 1    
    48   28   45 1    
@<TRIPOS>SUBSTRUCTURE
     1 UNK         1 GROUP             0       ****    0 ROOT    
