@<TRIPOS>MOLECULE
ZINC45254546_5111
71   75    1
SMALL
USER_CHARGES


@<TRIPOS>ATOM
      1 C1          4.5078   52.8246   16.0258 C.3       1 UNK         0.0000 
      2 C2          5.7793   53.6241   16.3429 C.3       1 UNK         0.0000 
      3 C3          6.4375   53.1525   17.6569 C.3       1 UNK         0.0000 
      4 N4          7.7348   53.9464   18.0049 N.4       1 UNK         0.0000 
      5 C5          7.4760   55.4498   18.3474 C.3       1 UNK         0.0000 
      6 C6          6.2542   55.7029   19.2710 C.3       1 UNK         0.0000 
      7 N7          6.2691   54.8959   20.4966 N.3       1 UNK         0.0000 
      8 C8          6.9455   55.5574   21.6275 C.3       1 UNK         0.0000 
      9 C9          6.7049   54.9230   23.0460 C.3       1 UNK         0.0000 
     10 N10         5.4660   54.1325   23.2584 N.pl3     1 UNK         0.0000 
     11 C11         5.1068   53.4253   22.0253 C.3       1 UNK         0.0000 
     12 C12         4.9384   54.4433   20.8902 C.3       1 UNK         0.0000 
     13 C13         4.7129   54.1133   24.4408 C.ar      1 UNK         0.0000 
     14 C14         5.2740   54.4970   25.6666 C.ar      1 UNK         0.0000 
     15 C15         4.5191   54.4966   26.8416 C.ar      1 UNK         0.0000 
     16 C16         3.1781   54.0967   26.8278 C.ar      1 UNK         0.0000 
     17 C17         2.6155   53.6968   25.6146 C.ar      1 UNK         0.0000 
     18 C18         3.3611   53.7258   24.4388 C.ar      1 UNK         0.0000 
     19 C19         2.3438   54.1251   28.0632 C.ar      1 UNK         0.0000 
     20 C20         1.5082   53.0470   28.3958 C.ar      1 UNK         0.0000 
     21 C21         0.7071   53.1265   29.5380 C.ar      1 UNK         0.0000 
     22 N22         0.6937   54.2112   30.3544 N.ar      1 UNK         0.0000 
     23 C23         1.5034   55.2512   30.0310 C.ar      1 UNK         0.0000 
     24 C24         2.3404   55.2413   28.9141 C.ar      1 UNK         0.0000 
     25 C25         8.8927   53.7350   16.9684 C.3       1 UNK         0.0000 
     26 H26         8.6239   54.3006   16.0731 H         1 UNK         0.0000 
     27 C27        10.2503   54.2683   17.5132 C.3       1 UNK         0.0000 
     28 C28        11.4009   54.2052   16.4705 C.3       1 UNK         0.0000 
     29 C29        11.3353   52.9047   15.6719 C.2       1 UNK         0.0000 
     30 C30        10.2352   52.0448   15.7074 C.2       1 UNK         0.0000 
     31 S31        10.5171   50.7053   14.6358 S.3       1 UNK         0.0000 
     32 C32        12.0314   51.4340   14.2200 C.2       1 UNK         0.0000 
     33 N33        12.3081   52.5464   14.8521 N.2       1 UNK         0.0000 
     34 N34        12.8338   50.8549   13.2800 N.pl3     1 UNK         0.0000 
     35 C35         9.0103   52.2300   16.5769 C.3       1 UNK         0.0000 
     36 H36         4.0500   53.1686   15.0952 H         1 UNK         0.0000 
     37 H37         4.7252   51.7629   15.9108 H         1 UNK         0.0000 
     38 H38         3.7650   52.9264   16.8154 H         1 UNK         0.0000 
     39 H39         5.5308   54.6802   16.4041 H         1 UNK         0.0000 
     40 H40         6.4736   53.5185   15.5094 H         1 UNK         0.0000 
     41 H41         6.7040   52.0980   17.6416 H         1 UNK         0.0000 
     42 H42         5.7634   53.2356   18.5009 H         1 UNK         0.0000 
     43 H43         8.3767   55.8168   18.8408 H         1 UNK         0.0000 
     44 H44         7.3639   55.9635   17.3923 H         1 UNK         0.0000 
     45 H45         6.1901   56.7648   19.5125 H         1 UNK         0.0000 
     46 H46         5.3508   55.5065   18.6918 H         1 UNK         0.0000 
     47 H47         8.0060   55.7351   21.4500 H         1 UNK         0.0000 
     48 H48         6.4256   56.5163   21.6915 H         1 UNK         0.0000 
     49 H49         6.8571   55.6811   23.8141 H         1 UNK         0.0000 
     50 H50         7.4997   54.1895   23.1908 H         1 UNK         0.0000 
     51 H51         4.1694   52.8906   22.1327 H         1 UNK         0.0000 
     52 H52         5.8300   52.6433   21.7949 H         1 UNK         0.0000 
     53 H53         4.2871   55.2580   21.1992 H         1 UNK         0.0000 
     54 H54         4.4585   53.9298   20.0555 H         1 UNK         0.0000 
     55 H55         6.3127   54.7862   25.7259 H         1 UNK         0.0000 
     56 H56         4.9873   54.7988   27.7675 H         1 UNK         0.0000 
     57 H57         1.5767   53.4023   25.5688 H         1 UNK         0.0000 
     58 H58         2.8474   53.4484   23.5325 H         1 UNK         0.0000 
     59 H59         1.4750   52.1617   27.7800 H         1 UNK         0.0000 
     60 H60         0.0511   52.3132   29.8140 H         1 UNK         0.0000 
     61 H61         1.4766   56.1052   30.6959 H         1 UNK         0.0000 
     62 H62         2.9610   56.0968   28.7088 H         1 UNK         0.0000 
     63 H63        10.1779   55.2874   17.8867 H         1 UNK         0.0000 
     64 H64        10.5237   53.6966   18.3992 H         1 UNK         0.0000 
     65 H65        12.3635   54.3158   16.9744 H         1 UNK         0.0000 
     66 H66        11.3024   55.0485   15.7871 H         1 UNK         0.0000 
     67 H67        13.7367   51.2397   13.0512 H         1 UNK         0.0000 
     68 H68        12.4807   50.1425   12.6355 H         1 UNK         0.0000 
     69 H69         8.1307   51.8668   16.0445 H         1 UNK         0.0000 
     70 H70         9.0976   51.6099   17.4711 H         1 UNK         0.0000 
     71 H71         8.0653   53.5446   18.8720 H         1 UNK         0.0000 
@<TRIPOS>BOND
     1    1    2 1    
     2    1   36 1    
     3    1   37 1    
     4    1   38 1    
     5    2    3 1    
     6    2   39 1    
     7    2   40 1    
     8    3    4 1    
     9    3   41 1    
    10    3   42 1    
    11    4    5 1    
    12    4   25 1    
    13    4   71 1    
    14    5    6 1    
    15    5   43 1    
    16    5   44 1    
    17    6    7 1    
    18    6   45 1    
    19    6   46 1    
    20    7   12 1    
    21    7    8 1    
    22    8    9 1    
    23    8   47 1    
    24    8   48 1    
    25    9   10 1    
    26    9   49 1    
    27    9   50 1    
    28   10   11 1    
    29   10   13 1    
    30   11   12 1    
    31   11   51 1    
    32   11   52 1    
    33   12   53 1    
    34   12   54 1    
    35   13   18 ar   
    36   13   14 ar   
    37   14   15 ar   
    38   14   55 1    
    39   15   16 ar   
    40   15   56 1    
    41   16   17 ar   
    42   16   19 1    
    43   17   18 ar   
    44   17   57 1    
    45   18   58 1    
    46   19   24 ar   
    47   19   20 ar   
    48   20   21 ar   
    49   20   59 1    
    50   21   22 ar   
    51   21   60 1    
    52   22   23 ar   
    53   23   24 ar   
    54   23   61 1    
    55   24   62 1    
    56   25   26 1    
    57   25   35 1    
    58   25   27 1    
    59   27   28 1    
    60   27   63 1    
    61   27   64 1    
    62   28   29 1    
    63   28   65 1    
    64   28   66 1    
    65   29   33 1    
    66   29   30 2    
    67   30   31 1    
    68   30   35 1    
    69   31   32 1    
    70   32   33 2    
    71   32   34 1    
    72   34   67 1    
    73   34   68 1    
    74   35   69 1    
    75   35   70 1    
@<TRIPOS>SUBSTRUCTURE
     1 UNK         1 GROUP             0       ****    0 ROOT    
