@<TRIPOS>MOLECULE
ZINC16611032_4484
57   59    1
SMALL
USER_CHARGES


@<TRIPOS>ATOM
      1 C1          6.8593   55.6953   22.9421 C.3       1 UNK         0.0000 
      2 C2          6.4837   54.2499   23.3197 C.3       1 UNK         0.0000 
      3 N3          5.0636   54.0974   23.7858 N.pl3     1 UNK         0.0000 
      4 C4          4.7082   54.0664   25.1419 C.2       1 UNK         0.0000 
      5 C5          3.3932   54.0019   25.5543 C.2       1 UNK         0.0000 
      6 C6          2.2357   53.8203   24.5022 C.3       1 UNK         0.0000 
      7 H7          1.4175   54.4966   24.7532 H         1 UNK         0.0000 
      8 N8          2.7993   54.2265   23.1967 N.pl3     1 UNK         0.0000 
      9 C9          4.0920   54.0687   22.7876 C.2       1 UNK         0.0000 
     10 S10         4.3044   53.8572   21.1387 S.2       1 UNK         0.0000 
     11 C11         1.5099   52.4455   24.4206 C.ar      1 UNK         0.0000 
     12 C12         1.9045   51.4653   23.4940 C.ar      1 UNK         0.0000 
     13 C13         1.3196   50.2035   23.4622 C.ar      1 UNK         0.0000 
     14 C14         0.2960   49.8948   24.3491 C.ar      1 UNK         0.0000 
     15 C15        -0.1803   50.8672   25.2256 C.ar      1 UNK         0.0000 
     16 C16         0.4122   52.1415   25.2453 C.ar      1 UNK         0.0000 
     17 N17        -1.2052   50.4714   26.0951 N.am      1 UNK         0.0000 
     18 C18        -2.1934   51.2228   26.6061 C.2       1 UNK         0.0000 
     19 O19        -2.4219   52.3951   26.3015 O.2       1 UNK         0.0000 
     20 N20        -2.8961   50.5046   27.5016 N.am      1 UNK         0.0000 
     21 C21        -4.0458   50.9143   28.1928 C.ar      1 UNK         0.0000 
     22 C22        -4.1777   50.4939   29.5174 C.ar      1 UNK         0.0000 
     23 C23        -5.2823   50.8909   30.2680 C.ar      1 UNK         0.0000 
     24 C24        -6.2579   51.6970   29.6862 C.ar      1 UNK         0.0000 
     25 C25        -6.1564   52.0843   28.3511 C.ar      1 UNK         0.0000 
     26 C26        -5.0499   51.6939   27.5996 C.ar      1 UNK         0.0000 
     27 Br27       -7.7297   52.2997   30.7314 Br        1 UNK         0.0000 
     28 C28         3.0044   54.0967   27.0028 C.2       1 UNK         0.0000 
     29 O29         3.7498   54.4964   27.8974 O.2       1 UNK         0.0000 
     30 O30         1.7139   53.8090   27.2609 O.3       1 UNK         0.0000 
     31 C31         1.1656   53.8352   28.5825 C.3       1 UNK         0.0000 
     32 C32         1.1042   55.2483   29.1945 C.3       1 UNK         0.0000 
     33 C33         5.9314   54.0772   26.0927 C.3       1 UNK         0.0000 
     34 H34         7.9038   55.7616   22.6464 H         1 UNK         0.0000 
     35 H35         6.7090   56.3623   23.7913 H         1 UNK         0.0000 
     36 H36         6.3044   56.0660   22.0826 H         1 UNK         0.0000 
     37 H37         6.6977   53.5917   22.4820 H         1 UNK         0.0000 
     38 H38         7.2252   53.9026   24.0301 H         1 UNK         0.0000 
     39 H39         2.1609   54.3128   22.4156 H         1 UNK         0.0000 
     40 H40         2.7051   51.6537   22.7978 H         1 UNK         0.0000 
     41 H41         1.6786   49.4587   22.7666 H         1 UNK         0.0000 
     42 H42        -0.1330   48.9020   24.3384 H         1 UNK         0.0000 
     43 H43         0.0205   52.8891   25.9161 H         1 UNK         0.0000 
     44 H44        -1.2195   49.4905   26.3390 H         1 UNK         0.0000 
     45 H45        -2.4677   49.6392   27.8338 H         1 UNK         0.0000 
     46 H46        -3.4145   49.8756   29.9753 H         1 UNK         0.0000 
     47 H47        -5.3692   50.5815   31.2999 H         1 UNK         0.0000 
     48 H48        -6.9227   52.7004   27.9032 H         1 UNK         0.0000 
     49 H49        -4.9711   52.0033   26.5670 H         1 UNK         0.0000 
     50 H50         0.1539   53.4344   28.5199 H         1 UNK         0.0000 
     51 H51         1.7239   53.1606   29.2348 H         1 UNK         0.0000 
     52 H52         0.4751   55.2591   30.0844 H         1 UNK         0.0000 
     53 H53         2.0891   55.6029   29.4967 H         1 UNK         0.0000 
     54 H54         0.7046   55.9700   28.4827 H         1 UNK         0.0000 
     55 H55         5.7522   53.8301   27.1332 H         1 UNK         0.0000 
     56 H56         6.6420   53.2970   25.8333 H         1 UNK         0.0000 
     57 H57         6.4371   55.0431   26.0633 H         1 UNK         0.0000 
@<TRIPOS>BOND
     1    1    2 1    
     2    1   34 1    
     3    1   35 1    
     4    1   36 1    
     5    2    3 1    
     6    2   37 1    
     7    2   38 1    
     8    3    9 1    
     9    3    4 1    
    10    4    5 2    
    11    4   33 1    
    12    5    6 1    
    13    5   28 1    
    14    6    7 1    
    15    6    8 1    
    16    6   11 1    
    17    8    9 1    
    18    8   39 1    
    19    9   10 2    
    20   11   16 ar   
    21   11   12 ar   
    22   12   13 ar   
    23   12   40 1    
    24   13   14 ar   
    25   13   41 1    
    26   14   15 ar   
    27   14   42 1    
    28   15   16 ar   
    29   15   17 1    
    30   16   43 1    
    31   17   18 am   BACKBONE|DICT|INTERRES
    32   17   44 1    
    33   18   19 2    
    34   18   20 am   BACKBONE|DICT|INTERRES
    35   20   21 1    
    36   20   45 1    
    37   21   26 ar   
    38   21   22 ar   
    39   22   23 ar   
    40   22   46 1    
    41   23   24 ar   
    42   23   47 1    
    43   24   25 ar   
    44   24   27 1    
    45   25   26 ar   
    46   25   48 1    
    47   26   49 1    
    48   28   29 2    
    49   28   30 1    
    50   30   31 1    
    51   31   32 1    
    52   31   50 1    
    53   31   51 1    
    54   32   52 1    
    55   32   53 1    
    56   32   54 1    
    57   33   55 1    
    58   33   56 1    
    59   33   57 1    
@<TRIPOS>SUBSTRUCTURE
     1 UNK         1 GROUP             0       ****    0 ROOT    
