@<TRIPOS>MOLECULE
ZINC36064710_5909
63   66    1
SMALL
USER_CHARGES


@<TRIPOS>ATOM
      1 C1         -2.3260   51.3094   28.3196 C.3       1 UNK         0.0000 
      2 C2         -0.9349   51.7475   28.8360 C.3       1 UNK         0.0000 
      3 C3          0.0840   52.1830   27.7660 C.2       1 UNK         0.0000 
      4 C4          0.8853   53.2981   27.7201 C.2       1 UNK         0.0000 
      5 C5          1.8329   53.5303   26.4767 C.3       1 UNK         0.0000 
      6 H6          1.5351   54.4928   26.0543 H         1 UNK         0.0000 
      7 N7          1.5060   52.5595   25.3665 N.pl3     1 UNK         0.0000 
      8 C8          1.8893   52.5745   24.0103 C.2       1 UNK         0.0000 
      9 C9          1.4999   51.4566   23.3671 C.2       1 UNK         0.0000 
     10 S10         0.6253   50.3140   24.3558 S.3       1 UNK         0.0000 
     11 C11         0.6981   51.4692   25.6917 C.2       1 UNK         0.0000 
     12 N12         0.0971   51.2408   26.7851 N.2       1 UNK         0.0000 
     13 C13         2.6363   53.6081   23.2959 C.2       1 UNK         0.0000 
     14 C14         3.5157   53.4204   22.2821 C.2       1 UNK         0.0000 
     15 O15         3.8928   52.3434   21.6828 O.co2     1 UNK         0.0000 
     16 N16         4.1692   54.4967   21.7276 N.pl3     1 UNK         0.0000 
     17 C17         5.5770   54.5706   21.3290 C.3       1 UNK         0.0000 
     18 C18         5.9565   55.9206   20.6857 C.3       1 UNK         0.0000 
     19 H19         5.5642   56.7447   21.2778 H         1 UNK         0.0000 
     20 C20         5.6507   56.0713   19.1953 C.3       1 UNK         0.0000 
     21 C21         6.9020   55.5999   18.4769 C.3       1 UNK         0.0000 
     22 C22         7.9732   55.5270   19.5646 C.3       1 UNK         0.0000 
     23 O23         7.3710   56.0957   20.7287 O.3       1 UNK         0.0000 
     24 C24         3.3528   53.7010   26.7893 C.ar      1 UNK         0.0000 
     25 C25         4.0801   54.5859   25.9759 C.ar      1 UNK         0.0000 
     26 C26         5.4451   54.8090   26.1507 C.ar      1 UNK         0.0000 
     27 C27         6.1056   54.1915   27.2049 C.ar      1 UNK         0.0000 
     28 C28         5.4048   53.3533   28.0645 C.ar      1 UNK         0.0000 
     29 C29         4.0435   53.0869   27.8663 C.ar      1 UNK         0.0000 
     30 C30         3.4054   52.0956   28.8329 C.3       1 UNK         0.0000 
     31 C31         6.1960   55.6966   25.1773 C.3       1 UNK         0.0000 
     32 C32         0.9401   54.2991   28.8212 C.2       1 UNK         0.0000 
     33 O33         0.5081   54.1034   29.9561 O.2       1 UNK         0.0000 
     34 O34         1.5609   55.4480   28.4781 O.3       1 UNK         0.0000 
     35 C35         1.7417   56.4940   29.4239 C.3       1 UNK         0.0000 
     36 H36        -2.9807   51.0348   29.1485 H         1 UNK         0.0000 
     37 H37        -2.8136   52.0959   27.7482 H         1 UNK         0.0000 
     38 H38        -2.2603   50.4422   27.6636 H         1 UNK         0.0000 
     39 H39        -0.4943   50.9106   29.3772 H         1 UNK         0.0000 
     40 H40        -1.1180   52.5060   29.5863 H         1 UNK         0.0000 
     41 H41         1.6813   51.2274   22.3278 H         1 UNK         0.0000 
     42 H42         2.4401   54.6253   23.5925 H         1 UNK         0.0000 
     43 H43         3.8684   55.3768   22.1142 H         1 UNK         0.0000 
     44 H44         5.8077   53.7477   20.6511 H         1 UNK         0.0000 
     45 H45         6.1807   54.4085   22.2190 H         1 UNK         0.0000 
     46 H46         5.4694   57.1230   18.9823 H         1 UNK         0.0000 
     47 H47         4.7366   55.5540   18.8998 H         1 UNK         0.0000 
     48 H48         7.1819   56.2920   17.6817 H         1 UNK         0.0000 
     49 H49         6.7498   54.6204   18.0258 H         1 UNK         0.0000 
     50 H50         8.8787   56.0769   19.3025 H         1 UNK         0.0000 
     51 H51         8.2666   54.4967   19.7678 H         1 UNK         0.0000 
     52 H52         3.5830   55.1289   25.1924 H         1 UNK         0.0000 
     53 H53         7.1602   54.3571   27.3637 H         1 UNK         0.0000 
     54 H54         5.9352   52.8943   28.8816 H         1 UNK         0.0000 
     55 H55         4.1531   51.4369   29.2797 H         1 UNK         0.0000 
     56 H56         2.8886   52.6016   29.6471 H         1 UNK         0.0000 
     57 H57         2.7067   51.4353   28.3183 H         1 UNK         0.0000 
     58 H58         7.2748   55.6021   25.2818 H         1 UNK         0.0000 
     59 H59         5.9487   55.4021   24.1586 H         1 UNK         0.0000 
     60 H60         5.9035   56.7393   25.2791 H         1 UNK         0.0000 
     61 H61         2.3035   57.2970   28.9527 H         1 UNK         0.0000 
     62 H62         0.7832   56.8947   29.7614 H         1 UNK         0.0000 
     63 H63         2.3028   56.1533   30.2949 H         1 UNK         0.0000 
@<TRIPOS>BOND
     1    1    2 1    
     2    1   36 1    
     3    1   37 1    
     4    1   38 1    
     5    2    3 1    
     6    2   39 1    
     7    2   40 1    
     8    3   12 1    
     9    3    4 2    
    10    4    5 1    
    11    4   32 1    
    12    5    6 1    
    13    5    7 1    
    14    5   24 1    
    15    7   11 1    
    16    7    8 1    
    17    8    9 2    
    18    8   13 1    
    19    9   10 1    
    20    9   41 1    
    21   10   11 1    
    22   11   12 2    
    23   13   14 2    
    24   13   42 1    
    25   14   15 1    
    26   14   16 1    
    27   16   17 1    
    28   16   43 1    
    29   17   18 1    
    30   17   44 1    
    31   17   45 1    
    32   18   19 1    
    33   18   23 1    
    34   18   20 1    
    35   20   21 1    
    36   20   46 1    
    37   20   47 1    
    38   21   22 1    
    39   21   48 1    
    40   21   49 1    
    41   22   23 1    
    42   22   50 1    
    43   22   51 1    
    44   24   29 ar   
    45   24   25 ar   
    46   25   26 ar   
    47   25   52 1    
    48   26   27 ar   
    49   26   31 1    
    50   27   28 ar   
    51   27   53 1    
    52   28   29 ar   
    53   28   54 1    
    54   29   30 1    
    55   30   55 1    
    56   30   56 1    
    57   30   57 1    
    58   31   58 1    
    59   31   59 1    
    60   31   60 1    
    61   32   33 2    
    62   32   34 1    
    63   34   35 1    
    64   35   61 1    
    65   35   62 1    
    66   35   63 1    
@<TRIPOS>SUBSTRUCTURE
     1 UNK         1 GROUP             0       ****    0 ROOT    
