ZINC30830808_937
                    3D
 Schrodinger Suite 2024-2.
 60 63  0  0  1  0            999 V2000
    1.6459   52.4967   31.0000 C   0  0  0  0  0  0
    2.8346   52.5150   30.2755 C   0  0  0  0  0  0
    2.7921   52.5404   28.8842 C   0  0  0  0  0  0
    1.5658   52.5337   28.2093 C   0  0  0  0  0  0
    0.3773   52.5148   28.9544 C   0  0  0  0  0  0
    0.4181   52.4984   30.3464 C   0  0  0  0  0  0
    1.5769   52.4850   26.7291 C   0  0  0  0  0  0
    0.4966   52.4065   25.9195 C   0  0  0  0  0  0
    0.5481   52.2382   24.4805 C   0  0  0  0  0  0
   -0.2241   51.4220   23.9758 O   0  0  0  0  0  0
    1.4308   52.9514   23.7219 N   0  0  0  0  0  0
    1.5821   52.6409   22.2922 C   0  0  0  0  0  0
    3.0852   52.5743   21.9452 C   0  0  0  0  0  0
    3.8940   53.7313   22.3778 N   0  0  0  0  0  0
    3.6126   54.0965   23.7786 C   0  0  0  0  0  0
    2.1168   54.1732   24.1554 C   0  0  0  0  0  0
    5.0228   54.1767   21.6791 C   0  0  0  0  0  0
    6.0778   54.8463   22.3258 C   0  0  0  0  0  0
    7.1258   55.4147   21.6033 C   0  0  0  0  0  0
    7.1530   55.2981   20.2154 C   0  0  0  0  0  0
    6.1691   54.5483   19.5661 C   0  0  0  0  0  0
    5.1021   54.0258   20.2864 C   0  0  0  0  0  0
    8.1849   55.9312   19.4978 N   0  0  0  0  0  0
    8.0943   56.6851   18.3604 C   0  0  0  0  0  0
    9.5283   57.2627   17.7272 S   0  0  0  0  0  0
    6.8216   56.8969   17.8851 N   0  0  0  0  0  0
    6.3261   57.5112   16.7835 C   0  0  0  0  0  0
    6.9805   58.1447   15.9528 O   0  0  0  0  0  0
    4.8268   57.3981   16.6428 C   0  0  0  0  0  0
    4.0950   58.4943   16.1754 C   0  0  0  0  0  0
    2.7083   58.4278   16.0781 C   0  0  0  0  0  0
    2.0442   57.2556   16.4325 C   0  0  0  0  0  0
    2.7602   56.1447   16.8708 C   0  0  0  0  0  0
    4.1464   56.2146   16.9727 C   0  0  0  0  0  0
    0.3214   57.1843   16.3489 Cl  0  0  0  0  0  0
    1.6702   52.4692   32.0807 H   0  0  0  0  0  0
    3.7848   52.5019   30.7891 H   0  0  0  0  0  0
    3.7212   52.5413   28.3316 H   0  0  0  0  0  0
   -0.5872   52.4893   28.4712 H   0  0  0  0  0  0
   -0.4968   52.4648   30.9215 H   0  0  0  0  0  0
    2.5605   52.4935   26.2791 H   0  0  0  0  0  0
   -0.5074   52.4080   26.3143 H   0  0  0  0  0  0
    1.1117   51.6973   22.0088 H   0  0  0  0  0  0
    1.1175   53.4276   21.6963 H   0  0  0  0  0  0
    3.1936   52.3369   20.8898 H   0  0  0  0  0  0
    3.5041   51.7204   22.4755 H   0  0  0  0  0  0
    4.0825   55.0403   24.0471 H   0  0  0  0  0  0
    4.0757   53.3161   24.3860 H   0  0  0  0  0  0
    1.6742   55.0104   23.6169 H   0  0  0  0  0  0
    1.9943   54.4081   25.2098 H   0  0  0  0  0  0
    6.0884   54.9620   23.3982 H   0  0  0  0  0  0
    7.9036   55.9537   22.1264 H   0  0  0  0  0  0
    6.2168   54.3794   18.5007 H   0  0  0  0  0  0
    4.3313   53.5241   19.7238 H   0  0  0  0  0  0
    9.1113   55.8402   19.8922 H   0  0  0  0  0  0
    6.1031   56.4809   18.4569 H   0  0  0  0  0  0
    4.5940   59.4189   15.9136 H   0  0  0  0  0  0
    2.1526   59.2946   15.7507 H   0  0  0  0  0  0
    2.2433   55.2351   17.1408 H   0  0  0  0  0  0
    4.6756   55.3346   17.3005 H   0  0  0  0  0  0
  1  6  2  0  0  0
  1  2  1  0  0  0
  1 36  1  0  0  0
  2  3  2  0  0  0
  2 37  1  0  0  0
  3  4  1  0  0  0
  3 38  1  0  0  0
  4  5  2  0  0  0
  4  7  1  0  0  0
  5  6  1  0  0  0
  5 39  1  0  0  0
  6 40  1  0  0  0
  7  8  2  0  0  0
  7 41  1  0  0  0
  8  9  1  0  0  0
  8 42  1  0  0  0
  9 10  2  0  0  0
  9 11  1  0  0  0
 11 16  1  0  0  0
 11 12  1  0  0  0
 12 13  1  0  0  0
 12 43  1  0  0  0
 12 44  1  0  0  0
 13 14  1  0  0  0
 13 45  1  0  0  0
 13 46  1  0  0  0
 14 15  1  0  0  0
 14 17  1  0  0  0
 15 16  1  0  0  0
 15 47  1  0  0  0
 15 48  1  0  0  0
 16 49  1  0  0  0
 16 50  1  0  0  0
 17 22  2  0  0  0
 17 18  1  0  0  0
 18 19  2  0  0  0
 18 51  1  0  0  0
 19 20  1  0  0  0
 19 52  1  0  0  0
 20 21  2  0  0  0
 20 23  1  0  0  0
 21 22  1  0  0  0
 21 53  1  0  0  0
 22 54  1  0  0  0
 23 24  1  0  0  0
 23 55  1  0  0  0
 24 25  2  0  0  0
 24 26  1  0  0  0
 26 27  1  0  0  0
 26 56  1  0  0  0
 27 28  2  0  0  0
 27 29  1  0  0  0
 29 34  2  0  0  0
 29 30  1  0  0  0
 30 31  2  0  0  0
 30 57  1  0  0  0
 31 32  1  0  0  0
 31 58  1  0  0  0
 32 33  2  0  0  0
 32 35  1  0  0  0
 33 34  1  0  0  0
 33 59  1  0  0  0
 34 60  1  0  0  0
M  END
> <i_i_glide_confnum>
175

> <i_i_glide_lignum>
938

> <i_i_glide_posenum>
285

> <i_i_glide_rotatable_bonds>
9

> <i_m_Source_File_Index>
4988

> <b_m_subgroup_collapsed>
0

> <r_i_docking_score>
-4.58261

> <r_i_glide_ecoul>
-2.33171

> <r_i_glide_eff_state_penalty>
0

> <r_i_glide_einternal>
12.9175

> <r_i_glide_emodel>
-55.6823

> <r_i_glide_energy>
-47.5825

> <r_i_glide_erotb>
0.561264

> <r_i_glide_esite>
-0.0137603

> <r_i_glide_evdw>
-45.2508

> <r_i_glide_gscore>
-4.58261

> <r_i_glide_hbond>
0

> <r_i_glide_ligand_efficiency>
-0.130932

> <r_i_glide_ligand_efficiency_ln>
-1.00599

> <r_i_glide_ligand_efficiency_sa>
-0.428287

> <r_i_glide_lipo>
-2.18579

> <r_i_glide_metal>
0

> <r_i_glide_rewards>
-0.33203

> <s_i_glide_gridfile>
wee1_glide-grid

> <s_m_Source_File>
wee1_decoys_glide_SP.sdf

> <s_m_Source_Path>
/Users/zhangxujun/Desktop

> <s_m_entry_id>
5263

> <s_m_entry_name>
wee1_decoys_glide_SP.4988

> <s_m_subgroup_title>
wee1_decoys_glide_SP

> <s_m_subgroupid>
wee1_decoys_glide_SP


$$$$
