ZINC23472937_3973
                    3D
 Schrodinger Suite 2024-2.
 52 56  0  0  1  0            999 V2000
   -1.0797   51.7085   29.3458 C   0  0  0  0  0  0
   -0.5808   51.5517   27.9002 C   0  0  2  0  0  0
   -0.6914   50.4967   27.6573 H   0  0  0  0  0  0
    0.9320   51.8001   27.7757 C   0  0  0  0  0  0
    1.7023   50.8967   28.0817 O   0  0  0  0  0  0
    1.4249   53.0181   27.4546 N   0  0  0  0  0  0
    1.9709   53.9181   28.4945 C   0  0  2  0  0  0
    1.1875   54.5882   28.8529 H   0  0  0  0  0  0
    3.0367   54.6876   27.7163 C   0  0  0  0  0  0
    3.1042   53.9374   26.4151 C   0  0  0  0  0  0
    2.1460   53.1109   26.3080 N   0  0  0  0  0  0
    4.0979   54.2142   25.3615 C   0  0  0  0  0  0
    3.7954   53.9052   24.0264 C   0  0  0  0  0  0
    4.7428   54.0967   23.0258 C   0  0  0  0  0  0
    5.9940   54.6106   23.3520 C   0  0  0  0  0  0
    6.3044   54.9361   24.6701 C   0  0  0  0  0  0
    5.3586   54.7412   25.6757 C   0  0  0  0  0  0
    7.1478   54.8968   22.1029 Cl  0  0  0  0  0  0
    2.5724   53.2096   29.7175 C   0  0  0  0  0  0
    3.8438   52.7747   30.0706 C   0  0  0  0  0  0
    3.7243   52.0967   31.2817 C   0  0  0  0  0  0
    2.3774   52.0967   31.5986 C   0  0  0  0  0  0
    1.6875   52.8042   30.6689 O   0  0  0  0  0  0
   -1.5768   52.4426   26.6563 S   0  0  0  0  0  0
   -1.5764   51.2341   25.3730 C   0  0  0  0  0  0
   -1.1238   51.4742   24.1684 N   0  0  0  0  0  0
   -1.3721   50.3459   23.3970 N   0  0  0  0  0  0
   -2.0413   49.4966   24.1400 C   0  0  0  0  0  0
   -2.2105   50.0070   25.4132 N   0  0  0  0  0  0
   -2.8956   49.4402   26.4817 N   0  0  0  0  0  0
   -2.4958   48.1957   23.6442 C   0  0  0  0  0  0
   -1.8504   47.3810   22.7159 C   0  0  0  0  0  0
   -2.5617   46.2213   22.3926 C   0  0  0  0  0  0
   -3.7706   46.1377   23.0656 C   0  0  0  0  0  0
   -4.0259   47.5001   24.1065 S   0  0  0  0  0  0
   -0.4956   51.1151   30.0476 H   0  0  0  0  0  0
   -1.0298   52.7443   29.6816 H   0  0  0  0  0  0
   -2.1093   51.3628   29.4365 H   0  0  0  0  0  0
    2.7044   55.6967   27.5185 H   0  0  0  0  0  0
    3.9971   54.7393   28.2276 H   0  0  0  0  0  0
    2.8307   53.4981   23.7555 H   0  0  0  0  0  0
    4.5020   53.8555   22.0004 H   0  0  0  0  0  0
    7.2774   55.3411   24.9031 H   0  0  0  0  0  0
    5.6280   54.9848   26.6928 H   0  0  0  0  0  0
    4.7503   52.9172   29.5014 H   0  0  0  0  0  0
    4.5217   51.6381   31.8474 H   0  0  0  0  0  0
    1.8008   51.7021   32.4247 H   0  0  0  0  0  0
   -2.2568   48.9966   27.1564 H   0  0  0  0  0  0
   -3.4450   50.1379   26.9585 H   0  0  0  0  0  0
   -0.8956   47.6330   22.2793 H   0  0  0  0  0  0
   -2.2112   45.4872   21.6818 H   0  0  0  0  0  0
   -4.5251   45.3689   22.9888 H   0  0  0  0  0  0
  1  2  1  0  0  0
  1 36  1  0  0  0
  1 37  1  0  0  0
  1 38  1  0  0  0
  2  3  1  0  0  0
  2  4  1  0  0  0
  2 24  1  0  0  0
  4  5  2  0  0  0
  4  6  1  0  0  0
  6 11  1  0  0  0
  6  7  1  0  0  0
  7  8  1  0  0  0
  7  9  1  0  0  0
  7 19  1  0  0  0
  9 10  1  0  0  0
  9 39  1  0  0  0
  9 40  1  0  0  0
 10 11  2  0  0  0
 10 12  1  0  0  0
 12 17  2  0  0  0
 12 13  1  0  0  0
 13 14  2  0  0  0
 13 41  1  0  0  0
 14 15  1  0  0  0
 14 42  1  0  0  0
 15 16  2  0  0  0
 15 18  1  0  0  0
 16 17  1  0  0  0
 16 43  1  0  0  0
 17 44  1  0  0  0
 19 23  1  0  0  0
 19 20  2  0  0  0
 20 21  1  0  0  0
 20 45  1  0  0  0
 21 22  2  0  0  0
 21 46  1  0  0  0
 22 23  1  0  0  0
 22 47  1  0  0  0
 24 25  1  0  0  0
 25 29  1  0  0  0
 25 26  2  0  0  0
 26 27  1  0  0  0
 27 28  2  0  0  0
 28 29  1  0  0  0
 28 31  1  0  0  0
 29 30  1  0  0  0
 30 48  1  0  0  0
 30 49  1  0  0  0
 31 35  1  0  0  0
 31 32  2  0  0  0
 32 33  1  0  0  0
 32 50  1  0  0  0
 33 34  2  0  0  0
 33 51  1  0  0  0
 34 35  1  0  0  0
 34 52  1  0  0  0
M  END
> <i_i_glide_confnum>
113

> <i_i_glide_lignum>
3974

> <i_i_glide_posenum>
262

> <i_i_glide_rotatable_bonds>
7

> <i_m_Source_File_Index>
1847

> <b_m_subgroup_collapsed>
0

> <r_i_docking_score>
-6.23239

> <r_i_glide_ecoul>
-8.04352

> <r_i_glide_eff_state_penalty>
0

> <r_i_glide_einternal>
14.0618

> <r_i_glide_emodel>
-58.6183

> <r_i_glide_energy>
-47.2052

> <r_i_glide_erotb>
0.573748

> <r_i_glide_esite>
-0.180143

> <r_i_glide_evdw>
-39.1616

> <r_i_glide_gscore>
-6.23239

> <r_i_glide_hbond>
-0.171956

> <r_i_glide_ligand_efficiency>
-0.18886

> <r_i_glide_ligand_efficiency_ln>
-1.38605

> <r_i_glide_ligand_efficiency_sa>
-0.605776

> <r_i_glide_lipo>
-2.48075

> <r_i_glide_metal>
0

> <r_i_glide_rewards>
-0.808674

> <s_i_glide_gridfile>
wee1_glide-grid

> <s_m_Source_File>
wee1_decoys_glide_SP.sdf

> <s_m_Source_Path>
/Users/zhangxujun/Desktop

> <s_m_entry_id>
2122

> <s_m_entry_name>
wee1_decoys_glide_SP.1847

> <s_m_subgroup_title>
wee1_decoys_glide_SP

> <s_m_subgroupid>
wee1_decoys_glide_SP


$$$$
