@<TRIPOS>MOLECULE
ZINC49504293_3286
63   67    1
SMALL
USER_CHARGES


@<TRIPOS>ATOM
      1 C1          1.1046   55.5986   30.4817 C.2       1 UNK         0.0000 
      2 C2          1.9083   55.3398   29.3708 C.2       1 UNK         0.0000 
      3 C3          1.8016   54.0226   28.9101 C.2       1 UNK         0.0000 
      4 S4          0.5869   53.1472   29.8048 S.3       1 UNK         0.0000 
      5 C5          0.3582   54.4933   30.8720 C.2       1 UNK         0.0000 
      6 C6          2.3730   53.4579   27.7016 C.2       1 UNK         0.0000 
      7 O7          1.6511   52.7382   27.0084 O.2       1 UNK         0.0000 
      8 N8          3.6416   53.8480   27.3393 N.am      1 UNK         0.0000 
      9 C9          4.5820   54.2219   28.4290 C.3       1 UNK         0.0000 
     10 C10         5.9588   53.6372   28.0704 C.3       1 UNK         0.0000 
     11 C11         6.4770   54.2617   26.7696 C.3       1 UNK         0.0000 
     12 C12         5.4344   54.1634   25.6611 C.ar      1 UNK         0.0000 
     13 C13         4.0591   53.9860   25.9668 C.ar      1 UNK         0.0000 
     14 C14         3.1449   53.9946   24.8926 C.ar      1 UNK         0.0000 
     15 C15         3.5621   54.0969   23.5729 C.ar      1 UNK         0.0000 
     16 C16         4.9119   54.2369   23.2770 C.ar      1 UNK         0.0000 
     17 C17         5.8413   54.2679   24.3243 C.ar      1 UNK         0.0000 
     18 N18         5.2435   54.3676   21.9207 N.am      1 UNK         0.0000 
     19 C19         6.2703   55.0679   21.3764 C.2       1 UNK         0.0000 
     20 O20         7.1050   55.6975   22.0295 O.2       1 UNK         0.0000 
     21 C21         6.2982   55.0798   19.8835 C.2       1 UNK         0.0000 
     22 O22         6.8142   56.0152   19.2688 O.2       1 UNK         0.0000 
     23 N23         5.7543   53.9997   19.2718 N.am      1 UNK         0.0000 
     24 C24         5.5994   53.8420   17.8240 C.3       1 UNK         0.0000 
     25 C25         4.2454   54.3683   17.3023 C.3       1 UNK         0.0000 
     26 H26         3.4326   53.8917   17.8516 H         1 UNK         0.0000 
     27 C27         4.0457   54.2181   15.7963 C.3       1 UNK         0.0000 
     28 O28         3.9387   55.5435   15.3259 O.3       1 UNK         0.0000 
     29 C29         3.8925   56.4621   16.3716 C.3       1 UNK         0.0000 
     30 O30         4.1716   55.7587   17.5366 O.3       1 UNK         0.0000 
     31 C31         2.4900   57.0711   16.4531 C.3       1 UNK         0.0000 
     32 C32         2.1585   57.8208   15.1439 C.3       1 UNK         0.0000 
     33 C33         3.2233   58.8904   14.8271 C.3       1 UNK         0.0000 
     34 C34         4.6580   58.3218   14.8487 C.3       1 UNK         0.0000 
     35 C35         4.9519   57.5431   16.1525 C.3       1 UNK         0.0000 
     36 H36         1.0795   56.5556   30.9862 H         1 UNK         0.0000 
     37 H37         2.5378   56.0901   28.9132 H         1 UNK         0.0000 
     38 H38        -0.3241   54.4118   31.7065 H         1 UNK         0.0000 
     39 H39         4.7021   55.2972   28.4248 H         1 UNK         0.0000 
     40 H40         4.2818   53.8825   29.4221 H         1 UNK         0.0000 
     41 H41         6.6665   53.8455   28.8759 H         1 UNK         0.0000 
     42 H42         5.9031   52.5499   27.9897 H         1 UNK         0.0000 
     43 H43         7.4173   53.7888   26.4782 H         1 UNK         0.0000 
     44 H44         6.7022   55.3145   26.9421 H         1 UNK         0.0000 
     45 H45         2.0794   53.9257   25.0459 H         1 UNK         0.0000 
     46 H46         2.8222   54.0983   22.7849 H         1 UNK         0.0000 
     47 H47         6.8940   54.3839   24.1122 H         1 UNK         0.0000 
     48 H48         4.5527   54.0089   21.2818 H         1 UNK         0.0000 
     49 H49         5.4084   53.2332   19.8267 H         1 UNK         0.0000 
     50 H50         5.6898   52.7793   17.5929 H         1 UNK         0.0000 
     51 H51         6.4208   54.3298   17.2920 H         1 UNK         0.0000 
     52 H52         4.9040   53.7247   15.3384 H         1 UNK         0.0000 
     53 H53         3.1400   53.6491   15.5857 H         1 UNK         0.0000 
     54 H54         2.4854   57.7977   17.2641 H         1 UNK         0.0000 
     55 H55         1.7619   56.2949   16.6862 H         1 UNK         0.0000 
     56 H56         1.1779   58.2913   15.2244 H         1 UNK         0.0000 
     57 H57         2.0878   57.1135   14.3165 H         1 UNK         0.0000 
     58 H58         3.1492   59.6847   15.5727 H         1 UNK         0.0000 
     59 H59         3.0184   59.3574   13.8633 H         1 UNK         0.0000 
     60 H60         5.3765   59.1360   14.7367 H         1 UNK         0.0000 
     61 H61         4.8056   57.6679   13.9875 H         1 UNK         0.0000 
     62 H62         5.9427   57.0890   16.1391 H         1 UNK         0.0000 
     63 H63         4.9193   58.2395   16.9939 H         1 UNK         0.0000 
@<TRIPOS>BOND
     1    1    5 2    
     2    1    2 1    
     3    1   36 1    
     4    2    3 2    
     5    2   37 1    
     6    3    4 1    
     7    3    6 1    
     8    4    5 1    
     9    5   38 1    
    10    6    7 2    
    11    6    8 am   BACKBONE|DICT|INTERRES
    12    8   13 1    
    13    8    9 1    
    14    9   10 1    
    15    9   39 1    
    16    9   40 1    
    17   10   11 1    
    18   10   41 1    
    19   10   42 1    
    20   11   12 1    
    21   11   43 1    
    22   11   44 1    
    23   12   17 ar   
    24   12   13 ar   
    25   13   14 ar   
    26   14   15 ar   
    27   14   45 1    
    28   15   16 ar   
    29   15   46 1    
    30   16   17 ar   
    31   16   18 1    
    32   17   47 1    
    33   18   19 am   BACKBONE|DICT|INTERRES
    34   18   48 1    
    35   19   20 2    
    36   19   21 1    
    37   21   22 2    
    38   21   23 am   BACKBONE|DICT|INTERRES
    39   23   24 1    
    40   23   49 1    
    41   24   25 1    
    42   24   50 1    
    43   24   51 1    
    44   25   26 1    
    45   25   30 1    
    46   25   27 1    
    47   27   28 1    
    48   27   52 1    
    49   27   53 1    
    50   28   29 1    
    51   29   35 1    
    52   29   30 1    
    53   29   31 1    
    54   31   32 1    
    55   31   54 1    
    56   31   55 1    
    57   32   33 1    
    58   32   56 1    
    59   32   57 1    
    60   33   34 1    
    61   33   58 1    
    62   33   59 1    
    63   34   35 1    
    64   34   60 1    
    65   34   61 1    
    66   35   62 1    
    67   35   63 1    
@<TRIPOS>SUBSTRUCTURE
     1 UNK         1 GROUP             0       ****    0 ROOT    
