@<TRIPOS>MOLECULE
ZINC35300773_4497
55   57    1
SMALL
USER_CHARGES


@<TRIPOS>ATOM
      1 C1          3.9380   57.7164   16.9609 C.3       1 UNK         0.0000 
      2 C2          4.1372   56.4872   17.8641 C.3       1 UNK         0.0000 
      3 C3          5.1651   55.4508   17.3317 C.3       1 UNK         0.0000 
      4 H4          6.1202   55.9726   17.2380 H         1 UNK         0.0000 
      5 C5          4.7694   54.9951   15.9071 C.3       1 UNK         0.0000 
      6 C6          5.3702   54.2246   18.2976 C.3       1 UNK         0.0000 
      7 H7          4.3972   53.7386   18.4064 H         1 UNK         0.0000 
      8 C8          5.8471   54.6896   19.7021 C.2       1 UNK         0.0000 
      9 O9          6.8643   55.3785   19.8125 O.2       1 UNK         0.0000 
     10 N10         5.0749   54.2840   20.7327 N.am      1 UNK         0.0000 
     11 C11         5.3374   54.4754   22.0831 C.2       1 UNK         0.0000 
     12 N12         6.4491   54.8941   22.6462 N.2       1 UNK         0.0000 
     13 N13         6.3693   54.8978   24.0359 N.2       1 UNK         0.0000 
     14 C14         5.1996   54.4972   24.4901 C.2       1 UNK         0.0000 
     15 S15         4.0751   54.0952   23.2123 S.3       1 UNK         0.0000 
     16 C16         4.8427   54.3760   25.9456 C.ar      1 UNK         0.0000 
     17 C17         5.8392   54.4955   26.9246 C.ar      1 UNK         0.0000 
     18 C18         5.5177   54.3956   28.2751 C.ar      1 UNK         0.0000 
     19 C19         4.1987   54.1721   28.6600 C.ar      1 UNK         0.0000 
     20 C20         3.1997   54.0436   27.6983 C.ar      1 UNK         0.0000 
     21 C21         3.5217   54.1439   26.3493 C.ar      1 UNK         0.0000 
     22 F22         3.8851   54.0884   29.9714 F         1 UNK         0.0000 
     23 N23         6.2439   53.1673   17.7544 N.am      1 UNK         0.0000 
     24 C24         7.4971   53.2720   17.2820 C.2       1 UNK         0.0000 
     25 O25         8.1552   54.3116   17.2928 O.2       1 UNK         0.0000 
     26 N26         7.9136   52.1020   16.7570 N.am      1 UNK         0.0000 
     27 C27         9.1643   51.8372   16.1675 C.ar      1 UNK         0.0000 
     28 C28         9.2042   50.9378   15.1021 C.ar      1 UNK         0.0000 
     29 C29        10.4149   50.6149   14.4898 C.ar      1 UNK         0.0000 
     30 C30        11.6022   51.1830   14.9553 C.ar      1 UNK         0.0000 
     31 C31        11.5859   52.0750   16.0334 C.ar      1 UNK         0.0000 
     32 C32        10.3616   52.4047   16.6290 C.ar      1 UNK         0.0000 
     33 C33        12.8917   52.6716   16.5601 C.3       1 UNK         0.0000 
     34 F34        13.7831   52.8278   15.5795 F         1 UNK         0.0000 
     35 F35        13.4090   51.8482   17.4721 F         1 UNK         0.0000 
     36 F36        12.6929   53.8614   17.1305 F         1 UNK         0.0000 
     37 H37         3.3574   58.4899   17.4628 H         1 UNK         0.0000 
     38 H38         4.8926   58.1590   16.6738 H         1 UNK         0.0000 
     39 H39         3.3924   57.4636   16.0516 H         1 UNK         0.0000 
     40 H40         3.1741   55.9976   18.0147 H         1 UNK         0.0000 
     41 H41         4.4452   56.8509   18.8445 H         1 UNK         0.0000 
     42 H42         3.7864   54.5254   15.9036 H         1 UNK         0.0000 
     43 H43         4.7476   55.8295   15.2080 H         1 UNK         0.0000 
     44 H44         5.4770   54.2800   15.4910 H         1 UNK         0.0000 
     45 H45         4.2302   53.7774   20.5105 H         1 UNK         0.0000 
     46 H46         6.8667   54.6718   26.6448 H         1 UNK         0.0000 
     47 H47         6.2904   54.4965   29.0242 H         1 UNK         0.0000 
     48 H48         2.1792   53.8683   28.0035 H         1 UNK         0.0000 
     49 H49         2.7276   54.0460   25.6218 H         1 UNK         0.0000 
     50 H50         5.8549   52.2330   17.8251 H         1 UNK         0.0000 
     51 H51         7.2318   51.3590   16.7014 H         1 UNK         0.0000 
     52 H52         8.2944   50.4949   14.7245 H         1 UNK         0.0000 
     53 H53        10.4412   49.9264   13.6560 H         1 UNK         0.0000 
     54 H54        12.5319   50.9155   14.4721 H         1 UNK         0.0000 
     55 H55        10.3433   53.0791   17.4725 H         1 UNK         0.0000 
@<TRIPOS>BOND
     1    1    2 1    
     2    1   37 1    
     3    1   38 1    
     4    1   39 1    
     5    2    3 1    
     6    2   40 1    
     7    2   41 1    
     8    3    4 1    
     9    3    5 1    
    10    3    6 1    
    11    5   42 1    
    12    5   43 1    
    13    5   44 1    
    14    6    7 1    
    15    6    8 1    
    16    6   23 1    
    17    8    9 2    
    18    8   10 am   BACKBONE|DICT|INTERRES
    19   10   11 am   BACKBONE|DICT|INTERRES
    20   10   45 1    
    21   11   15 1    
    22   11   12 2    
    23   12   13 1    
    24   13   14 2    
    25   14   15 1    
    26   14   16 1    
    27   16   21 ar   
    28   16   17 ar   
    29   17   18 ar   
    30   17   46 1    
    31   18   19 ar   
    32   18   47 1    
    33   19   20 ar   
    34   19   22 1    
    35   20   21 ar   
    36   20   48 1    
    37   21   49 1    
    38   23   24 am   BACKBONE|DICT|INTERRES
    39   23   50 1    
    40   24   25 2    
    41   24   26 am   BACKBONE|DICT|INTERRES
    42   26   27 1    
    43   26   51 1    
    44   27   32 ar   
    45   27   28 ar   
    46   28   29 ar   
    47   28   52 1    
    48   29   30 ar   
    49   29   53 1    
    50   30   31 ar   
    51   30   54 1    
    52   31   32 ar   
    53   31   33 1    
    54   32   55 1    
    55   33   34 1    
    56   33   35 1    
    57   33   36 1    
@<TRIPOS>SUBSTRUCTURE
     1 UNK         1 GROUP             0       ****    0 ROOT    
