ZINC65074748_810
                    3D
 Schrodinger Suite 2024-2.
 61 64  0  0  1  0            999 V2000
    3.6045   54.2468   28.0549 C   0  0  0  0  0  0
    4.2545   54.2789   26.6838 C   0  0  0  0  0  0
    5.6293   54.4745   26.5627 C   0  0  0  0  0  0
    6.2198   54.4964   25.3022 C   0  0  0  0  0  0
    5.4531   54.3199   24.1447 C   0  0  0  0  0  0
    4.0583   54.1097   24.2598 C   0  0  0  0  0  0
    3.4802   54.0960   25.5361 C   0  0  0  0  0  0
    2.9277   53.9428   22.8502 S   0  0  0  0  0  0
    3.5977   54.4968   21.6732 O   0  0  0  0  0  0
    1.6392   54.4967   23.2850 O   0  0  0  0  0  0
    2.7043   52.1962   22.6020 N   0  0  0  0  0  0
    3.6420   51.5086   21.6821 C   0  0  0  0  0  0
    3.1964   51.6567   20.2150 C   0  0  0  0  0  0
    1.7479   51.1320   19.9862 C   0  0  0  0  0  0
    0.8087   51.8388   21.0189 C   0  0  0  0  0  0
    1.3113   51.6997   22.4774 C   0  0  0  0  0  0
    1.3114   51.3712   18.5251 C   0  0  0  0  0  0
    1.2653   50.4011   17.5966 N   0  3  0  0  0  0
    1.5038   48.9875   17.8535 C   0  0  0  0  0  0
    2.2693   48.8718   19.1674 C   0  0  0  0  0  0
    1.6106   49.6759   20.1911 N   0  0  0  0  0  0
    1.0075   52.6310   18.1863 N   0  0  0  0  0  0
    0.5752   53.0763   16.8595 C   0  0  0  0  0  0
    0.2901   54.5609   16.8074 C   0  0  0  0  0  0
    1.3096   55.4581   16.4763 C   0  0  0  0  0  0
    1.0441   56.8246   16.4074 C   0  0  0  0  0  0
   -0.2391   57.2979   16.6739 C   0  0  0  0  0  0
   -1.2558   56.4093   17.0137 C   0  0  0  0  0  0
   -0.9945   55.0414   17.0771 C   0  0  0  0  0  0
   -2.4956   56.8730   17.2814 F   0  0  0  0  0  0
    2.0307   57.6891   16.0839 F   0  0  0  0  0  0
    6.1912   54.3694   22.8139 C   0  0  0  0  0  0
    4.3248   53.9835   28.8317 H   0  0  0  0  0  0
    3.1611   55.2149   28.2919 H   0  0  0  0  0  0
    2.8176   53.4911   28.0885 H   0  0  0  0  0  0
    6.2410   54.6126   27.4432 H   0  0  0  0  0  0
    7.2861   54.6503   25.2243 H   0  0  0  0  0  0
    2.4149   53.9464   25.6413 H   0  0  0  0  0  0
    3.5907   50.4497   21.9211 H   0  0  0  0  0  0
    4.6654   51.8133   21.8880 H   0  0  0  0  0  0
    3.9038   51.1467   19.5689 H   0  0  0  0  0  0
    3.2602   52.7018   19.9134 H   0  0  0  0  0  0
    0.7216   52.9008   20.7933 H   0  0  0  0  0  0
   -0.2031   51.4391   20.9357 H   0  0  0  0  0  0
    1.3175   50.6400   22.7353 H   0  0  0  0  0  0
    0.6768   52.1811   23.2229 H   0  0  0  0  0  0
    0.5337   48.4937   17.9130 H   0  0  0  0  0  0
    2.0647   48.5583   17.0226 H   0  0  0  0  0  0
    2.3086   47.8315   19.4938 H   0  0  0  0  0  0
    3.3118   49.1622   19.0324 H   0  0  0  0  0  0
    1.9934   49.4528   21.0988 H   0  0  0  0  0  0
    1.1072   53.3453   18.8983 H   0  0  0  0  0  0
   -0.3121   52.5047   16.5843 H   0  0  0  0  0  0
    1.3562   52.8092   16.1454 H   0  0  0  0  0  0
    2.3086   55.1037   16.2671 H   0  0  0  0  0  0
   -0.4375   58.3586   16.6268 H   0  0  0  0  0  0
   -1.7925   54.3601   17.3321 H   0  0  0  0  0  0
    7.2729   54.2994   22.9384 H   0  0  0  0  0  0
    5.9030   53.5382   22.1762 H   0  0  0  0  0  0
    5.9660   55.2956   22.2852 H   0  0  0  0  0  0
    0.9880   50.6725   16.6652 H   0  0  0  0  0  0
  1  2  1  0  0  0
  1 33  1  0  0  0
  1 34  1  0  0  0
  1 35  1  0  0  0
  2  7  2  0  0  0
  2  3  1  0  0  0
  3  4  2  0  0  0
  3 36  1  0  0  0
  4  5  1  0  0  0
  4 37  1  0  0  0
  5  6  2  0  0  0
  5 32  1  0  0  0
  6  7  1  0  0  0
  6  8  1  0  0  0
  7 38  1  0  0  0
  8  9  2  0  0  0
  8 10  2  0  0  0
  8 11  1  0  0  0
 11 16  1  0  0  0
 11 12  1  0  0  0
 12 13  1  0  0  0
 12 39  1  0  0  0
 12 40  1  0  0  0
 13 14  1  0  0  0
 13 41  1  0  0  0
 13 42  1  0  0  0
 14 21  1  0  0  0
 14 15  1  0  0  0
 14 17  1  0  0  0
 15 16  1  0  0  0
 15 43  1  0  0  0
 15 44  1  0  0  0
 16 45  1  0  0  0
 16 46  1  0  0  0
 17 18  2  0  0  0
 17 22  1  0  0  0
 18 19  1  0  0  0
 18 61  1  0  0  0
 19 20  1  0  0  0
 19 47  1  0  0  0
 19 48  1  0  0  0
 20 21  1  0  0  0
 20 49  1  0  0  0
 20 50  1  0  0  0
 21 51  1  0  0  0
 22 23  1  0  0  0
 22 52  1  0  0  0
 23 24  1  0  0  0
 23 53  1  0  0  0
 23 54  1  0  0  0
 24 29  2  0  0  0
 24 25  1  0  0  0
 25 26  2  0  0  0
 25 55  1  0  0  0
 26 27  1  0  0  0
 26 31  1  0  0  0
 27 28  2  0  0  0
 27 56  1  0  0  0
 28 29  1  0  0  0
 28 30  1  0  0  0
 29 57  1  0  0  0
 32 58  1  0  0  0
 32 59  1  0  0  0
 32 60  1  0  0  0
M  CHG  1  18   1
M  END
> <i_i_glide_confnum>
167

> <i_i_glide_lignum>
811

> <i_i_glide_posenum>
51

> <i_i_glide_rotatable_bonds>
5

> <i_m_Source_File_Index>
5530

> <b_m_subgroup_collapsed>
0

> <r_i_docking_score>
-4.4491

> <r_i_glide_ecoul>
-1.65353

> <r_i_glide_eff_state_penalty>
0

> <r_i_glide_einternal>
2.33631

> <r_i_glide_emodel>
-46.9662

> <r_i_glide_energy>
-37.5679

> <r_i_glide_erotb>
0.468902

> <r_i_glide_esite>
-0.180475

> <r_i_glide_evdw>
-35.9144

> <r_i_glide_gscore>
-4.4491

> <r_i_glide_hbond>
0

> <r_i_glide_ligand_efficiency>
-0.139034

> <r_i_glide_ligand_efficiency_ln>
-0.996274

> <r_i_glide_ligand_efficiency_sa>
-0.441406

> <r_i_glide_lipo>
-2.31846

> <r_i_glide_metal>
0

> <r_i_glide_rewards>
-0.375313

> <s_i_glide_gridfile>
wee1_glide-grid

> <s_m_Source_File>
wee1_decoys_glide_SP.sdf

> <s_m_Source_Path>
/Users/zhangxujun/Desktop

> <s_m_entry_id>
5805

> <s_m_entry_name>
wee1_decoys_glide_SP.5530

> <s_m_subgroup_title>
wee1_decoys_glide_SP

> <s_m_subgroupid>
wee1_decoys_glide_SP


$$$$
