ZINC59421778_5620
                    3D
 Schrodinger Suite 2024-2.
 48 52  0  0  1  0            999 V2000
   -2.6525   51.6790   26.3751 C   0  0  0  0  0  0
   -3.9383   51.2900   26.7443 C   0  0  0  0  0  0
   -4.2146   50.8978   28.0539 C   0  0  0  0  0  0
   -3.1767   50.8967   28.9951 C   0  0  0  0  0  0
   -1.8931   51.2967   28.6359 C   0  0  0  0  0  0
   -1.6276   51.6967   27.3227 C   0  0  0  0  0  0
   -0.3581   52.0969   26.8801 N   0  0  0  0  0  0
    0.6356   52.6955   27.5774 C   0  0  0  0  0  0
    0.6165   52.9208   28.7902 O   0  0  0  0  0  0
    1.7563   53.1031   26.7445 C   0  0  0  0  0  0
    1.7041   53.2967   25.3471 C   0  0  0  0  0  0
    2.9973   53.6967   24.9681 C   0  0  0  0  0  0
    3.5527   53.9673   23.7871 N   0  0  0  0  0  0
    4.8809   54.2793   23.7489 C   0  0  0  0  0  0
    5.6531   54.3674   24.9196 C   0  0  0  0  0  0
    5.0610   54.0965   26.1612 C   0  0  0  0  0  0
    3.7271   53.7556   26.1582 N   0  0  0  0  0  0
    2.9519   53.4237   27.2243 N   0  0  0  0  0  0
    5.8489   54.1173   27.4746 C   0  0  0  0  0  0
    7.0949   54.5571   27.2834 F   0  0  0  0  0  0
    5.2532   54.8967   28.3711 F   0  0  0  0  0  0
    5.9182   52.8966   27.9913 F   0  0  0  0  0  0
    5.4519   54.4967   22.3736 C   0  0  0  0  0  0
    4.7408   54.0971   21.2112 C   0  0  0  0  0  0
    5.2435   54.3041   19.9200 C   0  0  0  0  0  0
    6.4851   54.9117   19.8090 C   0  0  0  0  0  0
    7.1900   55.3007   20.9088 C   0  0  0  0  0  0
    6.7045   55.1223   22.1977 C   0  0  0  0  0  0
    8.3503   55.8856   20.5165 O   0  0  0  0  0  0
    8.4429   55.6603   19.1357 C   0  0  0  0  0  0
    7.1813   55.2381   18.6889 O   0  0  0  0  0  0
   -5.5197   50.5346   28.3283 O   0  0  0  0  0  0
   -5.9181   50.2369   29.6665 C   0  0  0  0  0  0
   -7.2285   50.0000   29.6439 F   0  0  0  0  0  0
   -5.7141   51.2753   30.4819 F   0  0  0  0  0  0
   -5.3182   49.1405   30.1329 F   0  0  0  0  0  0
   -2.4647   51.9729   25.3529 H   0  0  0  0  0  0
   -4.7291   51.2866   26.0092 H   0  0  0  0  0  0
   -3.3268   50.5618   30.0106 H   0  0  0  0  0  0
   -1.1137   51.2541   29.3818 H   0  0  0  0  0  0
   -0.1993   51.9966   25.8906 H   0  0  0  0  0  0
    0.8588   53.1566   24.6917 H   0  0  0  0  0  0
    6.7064   54.5938   24.8713 H   0  0  0  0  0  0
    3.7752   53.6198   21.2953 H   0  0  0  0  0  0
    4.6805   53.9950   19.0513 H   0  0  0  0  0  0
    7.2950   55.4715   23.0300 H   0  0  0  0  0  0
    9.1758   54.8728   18.9490 H   0  0  0  0  0  0
    8.7504   56.5704   18.6193 H   0  0  0  0  0  0
  1  6  2  0  0  0
  1  2  1  0  0  0
  1 37  1  0  0  0
  2  3  2  0  0  0
  2 38  1  0  0  0
  3  4  1  0  0  0
  3 32  1  0  0  0
  4  5  2  0  0  0
  4 39  1  0  0  0
  5  6  1  0  0  0
  5 40  1  0  0  0
  6  7  1  0  0  0
  7  8  1  0  0  0
  7 41  1  0  0  0
  8  9  2  0  0  0
  8 10  1  0  0  0
 10 18  2  0  0  0
 10 11  1  0  0  0
 11 12  2  0  0  0
 11 42  1  0  0  0
 12 17  1  0  0  0
 12 13  1  0  0  0
 13 14  2  0  0  0
 14 15  1  0  0  0
 14 23  1  0  0  0
 15 16  2  0  0  0
 15 43  1  0  0  0
 16 17  1  0  0  0
 16 19  1  0  0  0
 17 18  1  0  0  0
 19 20  1  0  0  0
 19 21  1  0  0  0
 19 22  1  0  0  0
 23 28  2  0  0  0
 23 24  1  0  0  0
 24 25  2  0  0  0
 24 44  1  0  0  0
 25 26  1  0  0  0
 25 45  1  0  0  0
 26 31  1  0  0  0
 26 27  2  0  0  0
 27 28  1  0  0  0
 27 29  1  0  0  0
 28 46  1  0  0  0
 29 30  1  0  0  0
 30 31  1  0  0  0
 30 47  1  0  0  0
 30 48  1  0  0  0
 32 33  1  0  0  0
 33 34  1  0  0  0
 33 35  1  0  0  0
 33 36  1  0  0  0
M  END
> <i_i_glide_confnum>
94

> <i_i_glide_lignum>
5621

> <i_i_glide_posenum>
290

> <i_i_glide_rotatable_bonds>
7

> <i_m_Source_File_Index>
599

> <b_m_subgroup_collapsed>
0

> <r_i_docking_score>
-6.09843

> <r_i_glide_ecoul>
-2.86288

> <r_i_glide_eff_state_penalty>
0

> <r_i_glide_einternal>
9.1127

> <r_i_glide_emodel>
-58.7196

> <r_i_glide_energy>
-46.3057

> <r_i_glide_erotb>
0.393275

> <r_i_glide_esite>
-0.11918

> <r_i_glide_evdw>
-43.4428

> <r_i_glide_gscore>
-6.09843

> <r_i_glide_hbond>
-0.00123955

> <r_i_glide_ligand_efficiency>
-0.169401

> <r_i_glide_ligand_efficiency_ln>
-1.33051

> <r_i_glide_ligand_efficiency_sa>
-0.559349

> <r_i_glide_lipo>
-2.16818

> <r_i_glide_metal>
0

> <r_i_glide_rewards>
-1.60153

> <s_i_glide_gridfile>
wee1_glide-grid

> <s_m_Source_File>
wee1_decoys_glide_SP.sdf

> <s_m_Source_Path>
/Users/zhangxujun/Desktop

> <s_m_entry_id>
874

> <s_m_entry_name>
wee1_decoys_glide_SP.599

> <s_m_subgroup_title>
wee1_decoys_glide_SP

> <s_m_subgroupid>
wee1_decoys_glide_SP


$$$$
