@<TRIPOS>MOLECULE
ZINC20193392_5097
68   71    1
SMALL
USER_CHARGES


@<TRIPOS>ATOM
      1 C1          1.6552   48.1034   20.1075 C.3       1 UNK         0.0000 
      2 C2          1.3712   49.1025   19.0066 C.2       1 UNK         0.0000 
      3 C3          1.0849   48.7148   17.6901 C.2       1 UNK         0.0000 
      4 S4          0.6710   50.0823   16.7137 S.3       1 UNK         0.0000 
      5 C5          0.8681   51.1532   18.0569 C.2       1 UNK         0.0000 
      6 C6          1.2984   50.5008   19.2214 C.2       1 UNK         0.0000 
      7 C7          1.6672   51.1677   20.5614 C.3       1 UNK         0.0000 
      8 H8          2.3443   50.4961   21.0957 H         1 UNK         0.0000 
      9 C9          0.4778   51.4135   21.5060 C.ar      1 UNK         0.0000 
     10 C10        -0.8033   51.6966   21.0202 C.ar      1 UNK         0.0000 
     11 C11        -1.8630   51.8961   21.9019 C.ar      1 UNK         0.0000 
     12 C12        -1.6617   51.8370   23.2793 C.ar      1 UNK         0.0000 
     13 C13        -0.3830   51.5406   23.7719 C.ar      1 UNK         0.0000 
     14 C14         0.6706   51.3185   22.8898 C.ar      1 UNK         0.0000 
     15 O15        -2.7661   52.0729   24.0739 O.3       1 UNK         0.0000 
     16 C16        -2.6339   51.9847   25.4917 C.3       1 UNK         0.0000 
     17 N17         2.6182   52.3876   20.3343 N.4       1 UNK         0.0000 
     18 C18         3.1186   53.0044   21.6618 C.3       1 UNK         0.0000 
     19 C19         4.0658   54.1818   21.3700 C.3       1 UNK         0.0000 
     20 N20         5.2078   53.8152   20.5295 N.3       1 UNK         0.0000 
     21 C21         4.7822   53.2162   19.2568 C.3       1 UNK         0.0000 
     22 C22         3.8629   51.9978   19.4893 C.3       1 UNK         0.0000 
     23 C23         6.1524   54.9401   20.3816 C.3       1 UNK         0.0000 
     24 C24         5.7998   56.0092   19.3201 C.3       1 UNK         0.0000 
     25 O25         6.5686   57.1757   19.5490 O.3       1 UNK         0.0000 
     26 N26         0.6861   52.5075   17.8381 N.am      1 UNK         0.0000 
     27 C27        -0.5009   53.0612   17.5014 C.2       1 UNK         0.0000 
     28 O28        -1.5606   52.4292   17.4686 O.2       1 UNK         0.0000 
     29 C29        -0.4866   54.5481   17.2224 C.ar      1 UNK         0.0000 
     30 C30        -1.6855   55.2782   17.2819 C.ar      1 UNK         0.0000 
     31 C31        -1.6922   56.6489   17.0341 C.ar      1 UNK         0.0000 
     32 C32        -0.5038   57.2966   16.7137 C.ar      1 UNK         0.0000 
     33 C33         0.6927   56.5878   16.6272 C.ar      1 UNK         0.0000 
     34 C34         0.6994   55.2186   16.8806 C.ar      1 UNK         0.0000 
     35 C35         1.0834   47.3287   17.0838 C.3       1 UNK         0.0000 
     36 H36         1.0931   48.3631   21.0041 H         1 UNK         0.0000 
     37 H37         1.3641   47.0849   19.8527 H         1 UNK         0.0000 
     38 H38         2.7052   48.1033   20.3949 H         1 UNK         0.0000 
     39 H39        -0.9970   51.7437   19.9608 H         1 UNK         0.0000 
     40 H40        -2.8529   52.0962   21.5208 H         1 UNK         0.0000 
     41 H41        -0.1934   51.4684   24.8307 H         1 UNK         0.0000 
     42 H42         1.6428   51.0738   23.2947 H         1 UNK         0.0000 
     43 H43        -3.6024   52.1727   25.9544 H         1 UNK         0.0000 
     44 H44        -2.2999   50.9910   25.8008 H         1 UNK         0.0000 
     45 H45        -1.9323   52.7285   25.8751 H         1 UNK         0.0000 
     46 H46         2.2285   53.3874   22.1645 H         1 UNK         0.0000 
     47 H47         3.5851   52.2209   22.2558 H         1 UNK         0.0000 
     48 H48         3.5036   54.8967   20.7888 H         1 UNK         0.0000 
     49 H49         4.3894   54.6403   22.3053 H         1 UNK         0.0000 
     50 H50         5.6429   52.9002   18.6655 H         1 UNK         0.0000 
     51 H51         4.2100   53.9559   18.6941 H         1 UNK         0.0000 
     52 H52         4.3683   51.1921   20.0234 H         1 UNK         0.0000 
     53 H53         3.5030   51.6406   18.5189 H         1 UNK         0.0000 
     54 H54         6.3199   55.4007   21.3577 H         1 UNK         0.0000 
     55 H55         7.1019   54.4963   20.0820 H         1 UNK         0.0000 
     56 H56         6.0496   55.6345   18.3245 H         1 UNK         0.0000 
     57 H57         4.7380   56.2478   19.2814 H         1 UNK         0.0000 
     58 H58         6.3818   57.8118   18.8510 H         1 UNK         0.0000 
     59 H59         1.4489   53.1339   18.0486 H         1 UNK         0.0000 
     60 H60        -2.6183   54.7854   17.5203 H         1 UNK         0.0000 
     61 H61        -2.6152   57.2082   17.0831 H         1 UNK         0.0000 
     62 H62        -0.5020   58.3615   16.5250 H         1 UNK         0.0000 
     63 H63         1.6064   57.1008   16.3712 H         1 UNK         0.0000 
     64 H64         1.6410   54.6923   16.7997 H         1 UNK         0.0000 
     65 H65         2.0046   46.7944   17.3223 H         1 UNK         0.0000 
     66 H66         0.2495   46.7305   17.4537 H         1 UNK         0.0000 
     67 H67         1.0062   47.3511   15.9956 H         1 UNK         0.0000 
     68 H68         2.1027   53.1135   19.8545 H         1 UNK         0.0000 
@<TRIPOS>BOND
     1    1    2 1    
     2    1   36 1    
     3    1   37 1    
     4    1   38 1    
     5    2    6 1    
     6    2    3 2    
     7    3    4 1    
     8    3   35 1    
     9    4    5 1    
    10    5    6 2    
    11    5   26 am   BACKBONE|DICT|INTERRES
    12    6    7 1    
    13    7    8 1    
    14    7    9 1    
    15    7   17 1    
    16    9   14 ar   
    17    9   10 ar   
    18   10   11 ar   
    19   10   39 1    
    20   11   12 ar   
    21   11   40 1    
    22   12   13 ar   
    23   12   15 1    
    24   13   14 ar   
    25   13   41 1    
    26   14   42 1    
    27   15   16 1    
    28   16   43 1    
    29   16   44 1    
    30   16   45 1    
    31   17   22 1    
    32   17   18 1    
    33   17   68 1    
    34   18   19 1    
    35   18   46 1    
    36   18   47 1    
    37   19   20 1    
    38   19   48 1    
    39   19   49 1    
    40   20   21 1    
    41   20   23 1    
    42   21   22 1    
    43   21   50 1    
    44   21   51 1    
    45   22   52 1    
    46   22   53 1    
    47   23   24 1    
    48   23   54 1    
    49   23   55 1    
    50   24   25 1    
    51   24   56 1    
    52   24   57 1    
    53   25   58 1    
    54   26   27 am   BACKBONE|DICT|INTERRES
    55   26   59 1    
    56   27   28 2    
    57   27   29 1    
    58   29   34 ar   
    59   29   30 ar   
    60   30   31 ar   
    61   30   60 1    
    62   31   32 ar   
    63   31   61 1    
    64   32   33 ar   
    65   32   62 1    
    66   33   34 ar   
    67   33   63 1    
    68   34   64 1    
    69   35   65 1    
    70   35   66 1    
    71   35   67 1    
@<TRIPOS>SUBSTRUCTURE
     1 UNK         1 GROUP             0       ****    0 ROOT    
