@<TRIPOS>MOLECULE
ZINC58131059_6207
61   62    1
SMALL
USER_CHARGES


@<TRIPOS>ATOM
      1 C1         -4.7525   49.1207   29.7634 C.3       1 UNK         0.0000 
      2 C2         -5.8428   48.3702   28.9779 C.3       1 UNK         0.0000 
      3 C3         -6.1914   48.9795   27.6026 C.3       1 UNK         0.0000 
      4 N4         -5.0341   49.0385   26.7044 N.am      1 UNK         0.0000 
      5 C5         -4.3390   50.1436   26.4007 C.2       1 UNK         0.0000 
      6 O6         -4.6466   51.2736   26.7899 O.2       1 UNK         0.0000 
      7 C7         -3.1057   49.9381   25.5069 C.3       1 UNK         0.0000 
      8 N8         -2.0279   51.0116   25.8173 N.4       1 UNK         0.0000 
      9 C9         -1.3255   50.6351   27.1415 C.3       1 UNK         0.0000 
     10 C10        -0.3778   51.7663   27.5319 C.3       1 UNK         0.0000 
     11 C11         0.6799   52.0013   26.4408 C.3       1 UNK         0.0000 
     12 C12         0.0736   52.1477   25.0235 C.3       1 UNK         0.0000 
     13 C13        -0.9805   51.0741   24.6812 C.3       1 UNK         0.0000 
     14 N14         1.6686   53.0207   26.7665 N.am      1 UNK         0.0000 
     15 C15         2.6249   52.9426   27.7184 C.2       1 UNK         0.0000 
     16 O16         2.7041   51.9773   28.4822 O.2       1 UNK         0.0000 
     17 C17         3.4934   54.2325   27.9497 C.3       1 UNK         0.0000 
     18 C18         4.7294   53.9251   28.8642 C.3       1 UNK         0.0000 
     19 C19         5.9363   53.2185   28.2165 C.3       1 UNK         0.0000 
     20 C20         6.3343   53.7971   26.8519 C.3       1 UNK         0.0000 
     21 C21         5.1295   53.8884   25.9095 C.3       1 UNK         0.0000 
     22 C22         4.0035   54.7081   26.5464 C.3       1 UNK         0.0000 
     23 N23         2.6833   55.2967   28.5866 N.am      1 UNK         0.0000 
     24 C24         1.9008   55.2248   29.6817 C.2       1 UNK         0.0000 
     25 O25         1.5768   54.1827   30.2428 O.2       1 UNK         0.0000 
     26 C26         1.4671   56.5499   30.2779 C.3       1 UNK         0.0000 
     27 H27        -4.5922   48.6702   30.7421 H         1 UNK         0.0000 
     28 H28        -5.0168   50.1683   29.9144 H         1 UNK         0.0000 
     29 H29        -3.7916   49.0897   29.2479 H         1 UNK         0.0000 
     30 H30        -5.5352   47.3300   28.8467 H         1 UNK         0.0000 
     31 H31        -6.7466   48.3373   29.5866 H         1 UNK         0.0000 
     32 H32        -6.9778   48.3944   27.1221 H         1 UNK         0.0000 
     33 H33        -6.6016   49.9814   27.7544 H         1 UNK         0.0000 
     34 H34        -4.7113   48.1523   26.3459 H         1 UNK         0.0000 
     35 H35        -2.6430   48.9541   25.6110 H         1 UNK         0.0000 
     36 H36        -3.3918   50.0896   24.4655 H         1 UNK         0.0000 
     37 H37        -2.0826   50.4972   27.9163 H         1 UNK         0.0000 
     38 H38        -0.7890   49.6995   26.9552 H         1 UNK         0.0000 
     39 H39        -0.9435   52.6809   27.7105 H         1 UNK         0.0000 
     40 H40         0.0991   51.5041   28.4789 H         1 UNK         0.0000 
     41 H41         1.2163   51.0543   26.4141 H         1 UNK         0.0000 
     42 H42         0.8719   52.1024   24.2799 H         1 UNK         0.0000 
     43 H43        -0.3951   53.1289   24.9203 H         1 UNK         0.0000 
     44 H44        -0.5383   50.0785   24.5838 H         1 UNK         0.0000 
     45 H45        -1.5110   51.3311   23.7610 H         1 UNK         0.0000 
     46 H46         1.6663   53.8415   26.1816 H         1 UNK         0.0000 
     47 H47         5.0926   54.8781   29.2559 H         1 UNK         0.0000 
     48 H48         4.4174   53.4411   29.7902 H         1 UNK         0.0000 
     49 H49         6.7949   53.2974   28.8828 H         1 UNK         0.0000 
     50 H50         5.7051   52.1604   28.1142 H         1 UNK         0.0000 
     51 H51         6.7673   54.7893   26.9906 H         1 UNK         0.0000 
     52 H52         7.1138   53.1858   26.3991 H         1 UNK         0.0000 
     53 H53         5.4311   54.3308   24.9585 H         1 UNK         0.0000 
     54 H54         4.7510   52.8999   25.6835 H         1 UNK         0.0000 
     55 H55         3.1888   54.9003   25.8468 H         1 UNK         0.0000 
     56 H56         4.4027   55.6968   26.6566 H         1 UNK         0.0000 
     57 H57         3.0085   56.2260   28.3753 H         1 UNK         0.0000 
     58 H58         0.5475   56.8932   29.8168 H         1 UNK         0.0000 
     59 H59         1.3036   56.4527   31.3509 H         1 UNK         0.0000 
     60 H60         2.2408   57.2969   30.1302 H         1 UNK         0.0000 
     61 H61        -2.5047   51.8990   25.9281 H         1 UNK         0.0000 
@<TRIPOS>BOND
     1    1    2 1    
     2    1   27 1    
     3    1   28 1    
     4    1   29 1    
     5    2    3 1    
     6    2   30 1    
     7    2   31 1    
     8    3    4 1    
     9    3   32 1    
    10    3   33 1    
    11    4    5 am   BACKBONE|DICT|INTERRES
    12    4   34 1    
    13    5    6 2    
    14    5    7 1    
    15    7    8 1    
    16    7   35 1    
    17    7   36 1    
    18    8   13 1    
    19    8    9 1    
    20    8   61 1    
    21    9   10 1    
    22    9   37 1    
    23    9   38 1    
    24   10   11 1    
    25   10   39 1    
    26   10   40 1    
    27   11   12 1    
    28   11   14 1    
    29   11   41 1    
    30   12   13 1    
    31   12   42 1    
    32   12   43 1    
    33   13   44 1    
    34   13   45 1    
    35   14   15 am   BACKBONE|DICT|INTERRES
    36   14   46 1    
    37   15   16 2    
    38   15   17 1    
    39   17   22 1    
    40   17   18 1    
    41   17   23 1    
    42   18   19 1    
    43   18   47 1    
    44   18   48 1    
    45   19   20 1    
    46   19   49 1    
    47   19   50 1    
    48   20   21 1    
    49   20   51 1    
    50   20   52 1    
    51   21   22 1    
    52   21   53 1    
    53   21   54 1    
    54   22   55 1    
    55   22   56 1    
    56   23   24 am   BACKBONE|DICT|INTERRES
    57   23   57 1    
    58   24   25 2    
    59   24   26 1    
    60   26   58 1    
    61   26   59 1    
    62   26   60 1    
@<TRIPOS>SUBSTRUCTURE
     1 UNK         1 GROUP             0       ****    0 ROOT    
