@<TRIPOS>MOLECULE
ZINC65266349_243
57   61    1
SMALL
USER_CHARGES


@<TRIPOS>ATOM
      1 C1          4.0877   52.6711   28.9481 C.3       1 UNK         0.0000 
      2 C2          2.6559   52.6363   29.4728 C.ar      1 UNK         0.0000 
      3 C3          2.4782   52.4967   30.8534 C.ar      1 UNK         0.0000 
      4 C4          1.2016   52.4954   31.4087 C.ar      1 UNK         0.0000 
      5 C5          0.0889   52.5963   30.5857 C.ar      1 UNK         0.0000 
      6 C6          0.2455   52.7125   29.2092 C.ar      1 UNK         0.0000 
      7 C7          1.5230   52.7221   28.6270 C.ar      1 UNK         0.0000 
      8 C8          1.6458   52.8274   27.1200 C.2       1 UNK         0.0000 
      9 O9          2.3589   53.7044   26.6329 O.2       1 UNK         0.0000 
     10 N10         0.9814   51.9241   26.3491 N.am      1 UNK         0.0000 
     11 C11         0.2713   50.7505   26.8672 C.3       1 UNK         0.0000 
     12 C12         0.2918   49.7847   25.6904 C.3       1 UNK         0.0000 
     13 C13         0.4075   50.6269   24.4137 C.3       1 UNK         0.0000 
     14 C14         1.1438   51.8963   24.8894 C.3       1 UNK         0.0000 
     15 C15        -0.9603   51.0863   23.8824 C.2       1 UNK         0.0000 
     16 N16        -1.0786   51.3820   22.5810 N.pl3     1 UNK         0.0000 
     17 C17        -0.0403   51.1666   21.6622 C.ar      1 UNK         0.0000 
     18 C18         1.0440   50.3796   22.0515 C.ar      1 UNK         0.0000 
     19 C19         2.0846   50.1760   21.1406 C.ar      1 UNK         0.0000 
     20 C20         1.9907   50.7270   19.8593 C.ar      1 UNK         0.0000 
     21 C21         0.8540   51.4776   19.5395 C.ar      1 UNK         0.0000 
     22 N22        -0.1601   51.7003   20.4189 N.ar      1 UNK         0.0000 
     23 N23         1.1232   49.8842   23.3613 N.pl3     1 UNK         0.0000 
     24 N24        -1.9915   51.2702   24.7174 N.pl3     1 UNK         0.0000 
     25 C25        -3.3255   51.8057   24.4067 C.3       1 UNK         0.0000 
     26 C26        -4.1421   51.9102   25.7171 C.3       1 UNK         0.0000 
     27 C27        -4.3298   53.4104   25.9813 C.3       1 UNK         0.0000 
     28 C28        -4.2953   54.0403   24.5907 C.3       1 UNK         0.0000 
     29 C29        -3.1914   53.2520   23.8845 C.3       1 UNK         0.0000 
     30 H30         4.3898   53.6965   28.7336 H         1 UNK         0.0000 
     31 H31         4.7982   52.2330   29.6496 H         1 UNK         0.0000 
     32 H32         4.1803   52.0975   28.0310 H         1 UNK         0.0000 
     33 H33         3.3323   52.4092   31.5092 H         1 UNK         0.0000 
     34 H34         1.0652   52.3977   32.4770 H         1 UNK         0.0000 
     35 H35        -0.8954   52.5668   31.0262 H         1 UNK         0.0000 
     36 H36        -0.6411   52.7890   28.5973 H         1 UNK         0.0000 
     37 H37         0.8105   50.2776   27.6820 H         1 UNK         0.0000 
     38 H38        -0.7638   50.9709   27.1283 H         1 UNK         0.0000 
     39 H39         1.1642   49.1359   25.7986 H         1 UNK         0.0000 
     40 H40        -0.5626   49.1077   25.6928 H         1 UNK         0.0000 
     41 H41         0.7190   52.7825   24.4152 H         1 UNK         0.0000 
     42 H42         2.2017   51.8145   24.6302 H         1 UNK         0.0000 
     43 H43         2.9529   49.5945   21.4116 H         1 UNK         0.0000 
     44 H44         2.7811   50.5734   19.1339 H         1 UNK         0.0000 
     45 H45         0.7495   51.9213   18.5595 H         1 UNK         0.0000 
     46 H46         1.9554   49.3852   23.6521 H         1 UNK         0.0000 
     47 H47        -1.8161   51.0422   25.6858 H         1 UNK         0.0000 
     48 H48        -3.8563   51.1720   23.6935 H         1 UNK         0.0000 
     49 H49        -5.1196   51.4464   25.5660 H         1 UNK         0.0000 
     50 H50        -3.6934   51.4038   26.5758 H         1 UNK         0.0000 
     51 H51        -5.2550   53.6256   26.5154 H         1 UNK         0.0000 
     52 H52        -3.5005   53.7977   26.5759 H         1 UNK         0.0000 
     53 H53        -5.2554   53.8975   24.0919 H         1 UNK         0.0000 
     54 H54        -4.0961   55.1141   24.6165 H         1 UNK         0.0000 
     55 H55        -2.2254   53.6932   24.1427 H         1 UNK         0.0000 
     56 H56        -3.2917   53.2989   22.8051 H         1 UNK         0.0000 
     57 H57        -1.9583   51.7677   22.2745 H         1 UNK         0.0000 
@<TRIPOS>BOND
     1    1    2 1    
     2    1   30 1    
     3    1   31 1    
     4    1   32 1    
     5    2    7 ar   
     6    2    3 ar   
     7    3    4 ar   
     8    3   33 1    
     9    4    5 ar   
    10    4   34 1    
    11    5    6 ar   
    12    5   35 1    
    13    6    7 ar   
    14    6   36 1    
    15    7    8 1    
    16    8    9 2    
    17    8   10 am   BACKBONE|DICT|INTERRES
    18   10   14 1    
    19   10   11 1    
    20   11   12 1    
    21   11   37 1    
    22   11   38 1    
    23   12   13 1    
    24   12   39 1    
    25   12   40 1    
    26   13   23 1    
    27   13   14 1    
    28   13   15 1    
    29   14   41 1    
    30   14   42 1    
    31   15   16 1    
    32   15   24 2    
    33   16   17 1    
    34   16   57 1    
    35   17   22 ar   
    36   17   18 ar   
    37   18   19 ar   
    38   18   23 1    
    39   19   20 ar   
    40   19   43 1    
    41   20   21 ar   
    42   20   44 1    
    43   21   22 ar   
    44   21   45 1    
    45   23   46 1    
    46   24   25 1    
    47   24   47 1    
    48   25   29 1    
    49   25   26 1    
    50   25   48 1    
    51   26   27 1    
    52   26   49 1    
    53   26   50 1    
    54   27   28 1    
    55   27   51 1    
    56   27   52 1    
    57   28   29 1    
    58   28   53 1    
    59   28   54 1    
    60   29   55 1    
    61   29   56 1    
@<TRIPOS>SUBSTRUCTURE
     1 UNK         1 GROUP             0       ****    0 ROOT    
