@<TRIPOS>MOLECULE
ZINC22534051_2308
61   64    1
SMALL
USER_CHARGES


@<TRIPOS>ATOM
      1 C1          3.8214   52.3927   14.5037 C.3       1 UNK         0.0000 
      2 C2          4.1304   53.0310   15.8491 C.ar      1 UNK         0.0000 
      3 C3          5.4694   53.2687   16.1756 C.ar      1 UNK         0.0000 
      4 C4          5.8229   53.7616   17.4279 C.ar      1 UNK         0.0000 
      5 C5          4.8406   54.0373   18.3839 C.ar      1 UNK         0.0000 
      6 C6          3.4943   53.8612   18.0337 C.ar      1 UNK         0.0000 
      7 C7          3.1283   53.3467   16.7864 C.ar      1 UNK         0.0000 
      8 S8          1.3742   53.0517   16.4874 S.o2      1 UNK         0.0000 
      9 O9          0.5855   53.7174   17.5306 O.2       1 UNK         0.0000 
     10 O10         1.0989   53.3356   15.0747 O.2       1 UNK         0.0000 
     11 N11         1.1666   51.3031   16.6886 N.pl3     1 UNK         0.0000 
     12 C12         1.2248   50.6111   17.9090 C.ar      1 UNK         0.0000 
     13 C13         1.4076   51.2300   19.1522 C.ar      1 UNK         0.0000 
     14 C14         1.4821   50.4711   20.3221 C.ar      1 UNK         0.0000 
     15 C15         1.3416   49.0841   20.2566 C.ar      1 UNK         0.0000 
     16 C16         1.1511   48.4543   19.0251 C.ar      1 UNK         0.0000 
     17 C17         1.1028   49.2209   17.8584 C.ar      1 UNK         0.0000 
     18 C18         0.9697   46.9520   18.9436 C.3       1 UNK         0.0000 
     19 C19         1.6919   51.1547   21.6598 C.3       1 UNK         0.0000 
     20 C20         5.2478   54.4618   19.7748 C.2       1 UNK         0.0000 
     21 O21         6.2949   55.0868   19.9560 O.2       1 UNK         0.0000 
     22 N22         4.4171   54.0575   20.7605 N.am      1 UNK         0.0000 
     23 C23         4.6127   54.1224   22.1473 C.ar      1 UNK         0.0000 
     24 C24         3.4715   54.0941   22.9430 C.ar      1 UNK         0.0000 
     25 C25         3.5846   54.1058   24.3295 C.ar      1 UNK         0.0000 
     26 C26         4.8443   54.1539   24.9513 C.ar      1 UNK         0.0000 
     27 C27         5.9885   54.1780   24.1340 C.ar      1 UNK         0.0000 
     28 C28         5.8747   54.1547   22.7504 C.ar      1 UNK         0.0000 
     29 N29         4.9151   54.1205   26.3752 N.am      1 UNK         0.0000 
     30 C30         3.7915   53.6464   27.2032 C.3       1 UNK         0.0000 
     31 C31         4.1640   53.9079   28.6417 C.3       1 UNK         0.0000 
     32 C32         5.6401   54.1788   28.5905 C.3       1 UNK         0.0000 
     33 C33         6.0027   54.4553   27.1367 C.2       1 UNK         0.0000 
     34 O34         7.1015   54.8960   26.7892 O.2       1 UNK         0.0000 
     35 H35         4.7155   51.9809   14.0304 H         1 UNK         0.0000 
     36 H36         3.1252   51.5614   14.6253 H         1 UNK         0.0000 
     37 H37         3.3708   53.1216   13.8295 H         1 UNK         0.0000 
     38 H38         6.2516   53.0319   15.4693 H         1 UNK         0.0000 
     39 H39         6.8709   53.8902   17.6615 H         1 UNK         0.0000 
     40 H40         2.7121   54.0957   18.7406 H         1 UNK         0.0000 
     41 H41         1.1860   50.7534   15.8447 H         1 UNK         0.0000 
     42 H42         1.5041   52.2983   19.2348 H         1 UNK         0.0000 
     43 H43         1.3876   48.4971   21.1635 H         1 UNK         0.0000 
     44 H44         0.9705   48.7287   16.9051 H         1 UNK         0.0000 
     45 H45         0.6332   46.5340   19.8932 H         1 UNK         0.0000 
     46 H46         0.2104   46.7010   18.2006 H         1 UNK         0.0000 
     47 H47         1.9041   46.4788   18.6430 H         1 UNK         0.0000 
     48 H48         1.2803   50.5613   22.4782 H         1 UNK         0.0000 
     49 H49         2.7545   51.3201   21.8430 H         1 UNK         0.0000 
     50 H50         1.1810   52.1183   21.6857 H         1 UNK         0.0000 
     51 H51         3.5430   53.6494   20.4675 H         1 UNK         0.0000 
     52 H52         2.4891   54.0689   22.4954 H         1 UNK         0.0000 
     53 H53         2.6704   54.0784   24.9021 H         1 UNK         0.0000 
     54 H54         6.9858   54.1743   24.5430 H         1 UNK         0.0000 
     55 H55         6.7775   54.1358   22.1621 H         1 UNK         0.0000 
     56 H56         2.8621   54.1694   26.9739 H         1 UNK         0.0000 
     57 H57         3.6281   52.5795   27.0413 H         1 UNK         0.0000 
     58 H58         3.9010   53.0787   29.3004 H         1 UNK         0.0000 
     59 H59         3.6408   54.7946   29.0023 H         1 UNK         0.0000 
     60 H60         6.2145   53.3001   28.8815 H         1 UNK         0.0000 
     61 H61         5.9043   55.0061   29.2449 H         1 UNK         0.0000 
@<TRIPOS>BOND
     1    1    2 1    
     2    1   35 1    
     3    1   36 1    
     4    1   37 1    
     5    2    7 ar   
     6    2    3 ar   
     7    3    4 ar   
     8    3   38 1    
     9    4    5 ar   
    10    4   39 1    
    11    5    6 ar   
    12    5   20 1    
    13    6    7 ar   
    14    6   40 1    
    15    7    8 1    
    16    8    9 2    
    17    8   10 2    
    18    8   11 1    
    19   11   12 1    
    20   11   41 1    
    21   12   17 ar   
    22   12   13 ar   
    23   13   14 ar   
    24   13   42 1    
    25   14   15 ar   
    26   14   19 1    
    27   15   16 ar   
    28   15   43 1    
    29   16   17 ar   
    30   16   18 1    
    31   17   44 1    
    32   18   45 1    
    33   18   46 1    
    34   18   47 1    
    35   19   48 1    
    36   19   49 1    
    37   19   50 1    
    38   20   21 2    
    39   20   22 am   BACKBONE|DICT|INTERRES
    40   22   23 1    
    41   22   51 1    
    42   23   28 ar   
    43   23   24 ar   
    44   24   25 ar   
    45   24   52 1    
    46   25   26 ar   
    47   25   53 1    
    48   26   27 ar   
    49   26   29 1    
    50   27   28 ar   
    51   27   54 1    
    52   28   55 1    
    53   29   33 am   BACKBONE|DICT|INTERRES
    54   29   30 1    
    55   30   31 1    
    56   30   56 1    
    57   30   57 1    
    58   31   32 1    
    59   31   58 1    
    60   31   59 1    
    61   32   33 1    
    62   32   60 1    
    63   32   61 1    
    64   33   34 2    
@<TRIPOS>SUBSTRUCTURE
     1 UNK         1 GROUP             0       ****    0 ROOT    
