@<TRIPOS>MOLECULE
ZINC16608660_5390
63   66    1
SMALL
USER_CHARGES


@<TRIPOS>ATOM
      1 C1         -4.6640   53.5020   26.0845 C.3       1 UNK         0.0000 
      2 C2         -5.3511   52.2129   26.5624 C.3       1 UNK         0.0000 
      3 C3         -4.4469   51.1663   27.2766 C.3       1 UNK         0.0000 
      4 H4         -4.0362   51.6433   28.1692 H         1 UNK         0.0000 
      5 C5         -5.3377   50.0329   27.8195 C.3       1 UNK         0.0000 
      6 C6         -3.2781   50.5443   26.4328 C.3       1 UNK         0.0000 
      7 H7         -2.9872   49.5783   26.8542 H         1 UNK         0.0000 
      8 C8         -2.0450   51.4840   26.4909 C.2       1 UNK         0.0000 
      9 O9         -1.8580   52.3166   25.5971 O.2       1 UNK         0.0000 
     10 N10        -1.2402   51.2942   27.5584 N.am      1 UNK         0.0000 
     11 C11        -0.0015   51.8756   27.7717 C.2       1 UNK         0.0000 
     12 N12         0.5733   51.8888   28.9484 N.2       1 UNK         0.0000 
     13 N13         1.8366   52.4722   28.9196 N.2       1 UNK         0.0000 
     14 C14         2.2029   52.8579   27.7159 C.2       1 UNK         0.0000 
     15 S15         1.0081   52.5065   26.4965 S.3       1 UNK         0.0000 
     16 C16         3.5193   53.4869   27.3695 C.ar      1 UNK         0.0000 
     17 C17         4.5321   53.6124   28.3467 C.ar      1 UNK         0.0000 
     18 C18         5.7847   54.1562   28.0312 C.ar      1 UNK         0.0000 
     19 C19         5.9963   54.5545   26.7172 C.ar      1 UNK         0.0000 
     20 C20         5.0269   54.4473   25.7648 C.ar      1 UNK         0.0000 
     21 C21         3.7717   53.9345   26.0567 C.ar      1 UNK         0.0000 
     22 O22         5.4970   54.9197   24.5810 O.3       1 UNK         0.0000 
     23 C23         6.8689   55.1211   24.7796 C.3       1 UNK         0.0000 
     24 O24         7.0944   55.1253   26.1632 O.3       1 UNK         0.0000 
     25 N25        -3.6730   50.3139   25.0140 N.pl3     1 UNK         0.0000 
     26 S26        -2.8237   49.1349   24.0152 S.o2      1 UNK         0.0000 
     27 O27        -3.6055   48.9926   22.7829 O.2       1 UNK         0.0000 
     28 O28        -2.5784   47.9441   24.8344 O.2       1 UNK         0.0000 
     29 C29        -1.2405   49.9319   23.5627 C.ar      1 UNK         0.0000 
     30 C30        -0.0031   49.5234   24.1202 C.ar      1 UNK         0.0000 
     31 C31         1.1896   50.0916   23.6614 C.ar      1 UNK         0.0000 
     32 C32         1.1903   51.0716   22.6754 C.ar      1 UNK         0.0000 
     33 C33        -0.0199   51.4964   22.1424 C.ar      1 UNK         0.0000 
     34 C34        -1.2287   50.9407   22.5685 C.ar      1 UNK         0.0000 
     35 C35        -2.4957   51.5149   21.9497 C.3       1 UNK         0.0000 
     36 C36         2.4961   51.6565   22.1696 C.3       1 UNK         0.0000 
     37 C37         0.1216   48.5042   25.2445 C.3       1 UNK         0.0000 
     38 H38        -5.3715   54.3307   26.0589 H         1 UNK         0.0000 
     39 H39        -3.8448   53.7955   26.7406 H         1 UNK         0.0000 
     40 H40        -4.2638   53.3847   25.0774 H         1 UNK         0.0000 
     41 H41        -5.8528   51.7450   25.7142 H         1 UNK         0.0000 
     42 H42        -6.1542   52.5021   27.2413 H         1 UNK         0.0000 
     43 H43        -5.8122   49.4796   27.0084 H         1 UNK         0.0000 
     44 H44        -4.7551   49.3213   28.4076 H         1 UNK         0.0000 
     45 H45        -6.1264   50.4178   28.4666 H         1 UNK         0.0000 
     46 H46        -1.5504   50.6314   28.2593 H         1 UNK         0.0000 
     47 H47         4.3547   53.2778   29.3581 H         1 UNK         0.0000 
     48 H48         6.5519   54.2574   28.7855 H         1 UNK         0.0000 
     49 H49         3.0284   53.8644   25.2774 H         1 UNK         0.0000 
     50 H50         7.1974   56.0570   24.3252 H         1 UNK         0.0000 
     51 H51         7.4249   54.2978   24.3251 H         1 UNK         0.0000 
     52 H52        -3.9581   51.1612   24.5189 H         1 UNK         0.0000 
     53 H53         2.1318   49.7567   24.0728 H         1 UNK         0.0000 
     54 H54        -0.0161   52.2662   21.3842 H         1 UNK         0.0000 
     55 H55        -2.8831   50.8529   21.1749 H         1 UNK         0.0000 
     56 H56        -3.2684   51.6630   22.7024 H         1 UNK         0.0000 
     57 H57        -2.3178   52.4963   21.5118 H         1 UNK         0.0000 
     58 H58         2.8629   52.4262   22.8504 H         1 UNK         0.0000 
     59 H59         2.3827   52.0868   21.1719 H         1 UNK         0.0000 
     60 H60         3.2544   50.8758   22.0830 H         1 UNK         0.0000 
     61 H61        -0.0936   47.5003   24.8807 H         1 UNK         0.0000 
     62 H62         1.1157   48.4963   25.6904 H         1 UNK         0.0000 
     63 H63        -0.5647   48.7320   26.0606 H         1 UNK         0.0000 
@<TRIPOS>BOND
     1    1    2 1    
     2    1   38 1    
     3    1   39 1    
     4    1   40 1    
     5    2    3 1    
     6    2   41 1    
     7    2   42 1    
     8    3    4 1    
     9    3    5 1    
    10    3    6 1    
    11    5   43 1    
    12    5   44 1    
    13    5   45 1    
    14    6    7 1    
    15    6    8 1    
    16    6   25 1    
    17    8    9 2    
    18    8   10 am   BACKBONE|DICT|INTERRES
    19   10   11 am   BACKBONE|DICT|INTERRES
    20   10   46 1    
    21   11   15 1    
    22   11   12 2    
    23   12   13 1    
    24   13   14 2    
    25   14   15 1    
    26   14   16 1    
    27   16   21 ar   
    28   16   17 ar   
    29   17   18 ar   
    30   17   47 1    
    31   18   19 ar   
    32   18   48 1    
    33   19   24 1    
    34   19   20 ar   
    35   20   21 ar   
    36   20   22 1    
    37   21   49 1    
    38   22   23 1    
    39   23   24 1    
    40   23   50 1    
    41   23   51 1    
    42   25   26 1    
    43   25   52 1    
    44   26   27 2    
    45   26   28 2    
    46   26   29 1    
    47   29   34 ar   
    48   29   30 ar   
    49   30   31 ar   
    50   30   37 1    
    51   31   32 ar   
    52   31   53 1    
    53   32   33 ar   
    54   32   36 1    
    55   33   34 ar   
    56   33   54 1    
    57   34   35 1    
    58   35   55 1    
    59   35   56 1    
    60   35   57 1    
    61   36   58 1    
    62   36   59 1    
    63   36   60 1    
    64   37   61 1    
    65   37   62 1    
    66   37   63 1    
@<TRIPOS>SUBSTRUCTURE
     1 UNK         1 GROUP             0       ****    0 ROOT    
