@<TRIPOS>MOLECULE
ZINC09381924_2394
48   51    1
SMALL
USER_CHARGES


@<TRIPOS>ATOM
      1 C1          5.3243   56.2243   18.6561 C.ar      1 UNK         0.0000 
      2 C2          4.5828   55.9842   17.5050 C.ar      1 UNK         0.0000 
      3 C3          4.0822   54.7097   17.2568 C.ar      1 UNK         0.0000 
      4 C4          4.3289   53.6730   18.1596 C.ar      1 UNK         0.0000 
      5 C5          5.0673   53.9191   19.3173 C.ar      1 UNK         0.0000 
      6 C6          5.5661   55.2025   19.5851 C.ar      1 UNK         0.0000 
      7 C7          6.3645   55.5125   20.8355 C.2       1 UNK         0.0000 
      8 O8          7.1051   56.4968   20.8642 O.2       1 UNK         0.0000 
      9 N9          6.1988   54.6833   21.8864 N.am      1 UNK         0.0000 
     10 N10         6.7014   55.0399   23.1554 N.pl3     1 UNK         0.0000 
     11 C11         6.0134   54.6356   24.2779 C.2       1 UNK         0.0000 
     12 N12         6.5848   54.5155   25.4391 N.2       1 UNK         0.0000 
     13 C13         5.6736   54.2069   26.4032 C.ar      1 UNK         0.0000 
     14 C14         5.9655   54.0133   27.7613 C.ar      1 UNK         0.0000 
     15 C15         4.9096   53.7365   28.6317 C.ar      1 UNK         0.0000 
     16 C16         3.5937   53.6404   28.1871 C.ar      1 UNK         0.0000 
     17 C17         3.2787   53.8121   26.8416 C.ar      1 UNK         0.0000 
     18 C18         4.3272   54.0949   25.9526 C.ar      1 UNK         0.0000 
     19 S19         4.2776   54.3608   24.2226 S.3       1 UNK         0.0000 
     20 F20         2.6096   53.3725   29.0750 F         1 UNK         0.0000 
     21 F21         7.2338   54.0969   28.2255 F         1 UNK         0.0000 
     22 S22         3.1370   54.4197   15.7565 S.o2      1 UNK         0.0000 
     23 O23         3.1621   52.9767   15.4933 O.2       1 UNK         0.0000 
     24 O24         3.6368   55.3666   14.7519 O.2       1 UNK         0.0000 
     25 N25         1.4668   54.8778   16.1483 N.pl3     1 UNK         0.0000 
     26 C26         1.2614   56.3167   16.4547 C.3       1 UNK         0.0000 
     27 C27        -0.2367   56.6755   16.3984 C.3       1 UNK         0.0000 
     28 C28        -1.0922   55.7353   17.2739 C.3       1 UNK         0.0000 
     29 C29        -0.7718   54.2468   17.0164 C.3       1 UNK         0.0000 
     30 C30         0.7439   53.9571   17.0600 C.3       1 UNK         0.0000 
     31 H31         5.6945   57.2244   18.8280 H         1 UNK         0.0000 
     32 H32         4.4038   56.7906   16.8093 H         1 UNK         0.0000 
     33 H33         3.9661   52.6731   17.9631 H         1 UNK         0.0000 
     34 H34         5.2467   53.0931   19.9887 H         1 UNK         0.0000 
     35 H35         5.4242   54.0364   21.9326 H         1 UNK         0.0000 
     36 H36         7.7066   54.9024   23.1692 H         1 UNK         0.0000 
     37 H37         5.1044   53.5932   29.6803 H         1 UNK         0.0000 
     38 H38         2.2557   53.7260   26.5010 H         1 UNK         0.0000 
     39 H39         1.8202   56.9330   15.7504 H         1 UNK         0.0000 
     40 H40         1.5709   56.4979   17.4838 H         1 UNK         0.0000 
     41 H41        -0.5796   56.6318   15.3636 H         1 UNK         0.0000 
     42 H42        -0.3804   57.7107   16.7166 H         1 UNK         0.0000 
     43 H43        -0.9169   55.9709   18.3243 H         1 UNK         0.0000 
     44 H44        -2.1522   55.9261   17.0995 H         1 UNK         0.0000 
     45 H45        -1.2856   53.6208   17.7464 H         1 UNK         0.0000 
     46 H46        -1.1634   53.9522   16.0402 H         1 UNK         0.0000 
     47 H47         0.9363   52.9207   16.7748 H         1 UNK         0.0000 
     48 H48         1.0623   54.1613   18.0822 H         1 UNK         0.0000 
@<TRIPOS>BOND
     1    1    6 ar   
     2    1    2 ar   
     3    1   31 1    
     4    2    3 ar   
     5    2   32 1    
     6    3    4 ar   
     7    3   22 1    
     8    4    5 ar   
     9    4   33 1    
    10    5    6 ar   
    11    5   34 1    
    12    6    7 1    
    13    7    8 2    
    14    7    9 am   BACKBONE|DICT|INTERRES
    15    9   10 1    
    16    9   35 1    
    17   10   11 1    
    18   10   36 1    
    19   11   19 1    
    20   11   12 2    
    21   12   13 1    
    22   13   18 ar   
    23   13   14 ar   
    24   14   15 ar   
    25   14   21 1    
    26   15   16 ar   
    27   15   37 1    
    28   16   17 ar   
    29   16   20 1    
    30   17   18 ar   
    31   17   38 1    
    32   18   19 1    
    33   22   23 2    
    34   22   24 2    
    35   22   25 1    
    36   25   30 1    
    37   25   26 1    
    38   26   27 1    
    39   26   39 1    
    40   26   40 1    
    41   27   28 1    
    42   27   41 1    
    43   27   42 1    
    44   28   29 1    
    45   28   43 1    
    46   28   44 1    
    47   29   30 1    
    48   29   45 1    
    49   29   46 1    
    50   30   47 1    
    51   30   48 1    
@<TRIPOS>SUBSTRUCTURE
     1 UNK         1 GROUP             0       ****    0 ROOT    
