ZINC51730211_4751
                    3D
 Schrodinger Suite 2024-2.
 40 41  0  0  1  0            999 V2000
   -0.0418   52.3087   30.8817 C   0  0  0  0  0  0
    1.0470   53.2321   30.3574 C   0  0  1  0  0  0
    1.1956   54.0361   31.0773 H   0  0  0  0  0  0
    2.3696   52.4775   30.1682 C   0  0  0  0  0  0
    3.4642   53.3611   29.5462 C   0  0  0  0  0  0
    3.0114   54.0026   28.2944 N   0  0  0  0  0  0
    1.7674   54.7785   28.4817 C   0  0  1  0  0  0
    1.4103   55.0844   27.5024 H   0  0  0  0  0  0
    0.6638   53.8384   29.0030 C   0  0  0  0  0  0
    1.9189   56.0804   29.2961 C   0  0  0  0  0  0
    3.8107   54.1337   27.1576 C   0  0  0  0  0  0
    3.1924   54.0482   25.9021 C   0  0  0  0  0  0
    3.9333   54.0967   24.7258 C   0  0  0  0  0  0
    5.3174   54.2474   24.7836 C   0  0  0  0  0  0
    5.9505   54.3909   26.0178 C   0  0  0  0  0  0
    5.2116   54.3305   27.1999 C   0  0  0  0  0  0
    5.9044   54.4967   28.4008 N   0  0  0  0  0  0
    6.2764   54.2031   23.2817 S   0  0  0  0  0  0
    5.5052   53.4248   22.3065 O   0  0  0  0  0  0
    6.7044   55.5769   23.0087 O   0  0  0  0  0  0
    7.7107   53.2967   23.6817 N   0  0  0  0  0  0
   -0.3771   51.5842   30.1379 H   0  0  0  0  0  0
   -0.8956   52.8967   31.2005 H   0  0  0  0  0  0
    0.3044   51.7577   31.7576 H   0  0  0  0  0  0
    2.7005   52.0665   31.1227 H   0  0  0  0  0  0
    2.2282   51.6023   29.5309 H   0  0  0  0  0  0
    4.3059   52.7022   29.3272 H   0  0  0  0  0  0
    3.8140   54.1184   30.2481 H   0  0  0  0  0  0
    0.5230   53.0109   28.3037 H   0  0  0  0  0  0
   -0.3033   54.3357   29.0482 H   0  0  0  0  0  0
    0.9995   56.6645   29.2854 H   0  0  0  0  0  0
    2.1781   55.8979   30.3375 H   0  0  0  0  0  0
    2.7044   56.7089   28.8818 H   0  0  0  0  0  0
    2.1270   53.8874   25.8283 H   0  0  0  0  0  0
    3.4319   53.9884   23.7742 H   0  0  0  0  0  0
    7.0223   54.5165   26.0551 H   0  0  0  0  0  0
    6.8796   54.7664   28.4120 H   0  0  0  0  0  0
    5.3689   54.5215   29.2553 H   0  0  0  0  0  0
    7.8221   52.4134   23.1806 H   0  0  0  0  0  0
    8.5523   53.8917   23.6817 H   0  0  0  0  0  0
  1  2  1  0  0  0
  1 22  1  0  0  0
  1 23  1  0  0  0
  1 24  1  0  0  0
  2  3  1  0  0  0
  2  9  1  0  0  0
  2  4  1  0  0  0
  4  5  1  0  0  0
  4 25  1  0  0  0
  4 26  1  0  0  0
  5  6  1  0  0  0
  5 27  1  0  0  0
  5 28  1  0  0  0
  6  7  1  0  0  0
  6 11  1  0  0  0
  7  8  1  0  0  0
  7  9  1  0  0  0
  7 10  1  0  0  0
  9 29  1  0  0  0
  9 30  1  0  0  0
 10 31  1  0  0  0
 10 32  1  0  0  0
 10 33  1  0  0  0
 11 16  2  0  0  0
 11 12  1  0  0  0
 12 13  2  0  0  0
 12 34  1  0  0  0
 13 14  1  0  0  0
 13 35  1  0  0  0
 14 15  2  0  0  0
 14 18  1  0  0  0
 15 16  1  0  0  0
 15 36  1  0  0  0
 16 17  1  0  0  0
 17 37  1  0  0  0
 17 38  1  0  0  0
 18 19  2  0  0  0
 18 20  2  0  0  0
 18 21  1  0  0  0
 21 39  1  0  0  0
 21 40  1  0  0  0
M  END
> <i_i_glide_confnum>
1

> <i_i_glide_lignum>
4752

> <i_i_glide_posenum>
102

> <i_i_glide_rotatable_bonds>
2

> <i_m_Source_File_Index>
3550

> <b_m_subgroup_collapsed>
0

> <r_i_docking_score>
-6.87547

> <r_i_glide_ecoul>
-3.09808

> <r_i_glide_eff_state_penalty>
0

> <r_i_glide_einternal>
0.600114

> <r_i_glide_emodel>
-49.3831

> <r_i_glide_energy>
-36.0945

> <r_i_glide_erotb>
0.225496

> <r_i_glide_esite>
-0.01471

> <r_i_glide_evdw>
-32.9964

> <r_i_glide_gscore>
-6.87547

> <r_i_glide_hbond>
-0.576963

> <r_i_glide_ligand_efficiency>
-0.361867

> <r_i_glide_ligand_efficiency_ln>
-1.74308

> <r_i_glide_ligand_efficiency_sa>
-0.965606

> <r_i_glide_lipo>
-2.6204

> <r_i_glide_metal>
0

> <r_i_glide_rewards>
-1.77435

> <s_i_glide_gridfile>
wee1_glide-grid

> <s_m_Source_File>
wee1_decoys_glide_SP.sdf

> <s_m_Source_Path>
/Users/zhangxujun/Desktop

> <s_m_entry_id>
3825

> <s_m_entry_name>
wee1_decoys_glide_SP.3550

> <s_m_subgroup_title>
wee1_decoys_glide_SP

> <s_m_subgroupid>
wee1_decoys_glide_SP


$$$$
