ZINC59019557_3036
                    3D
 Schrodinger Suite 2024-2.
 53 56  0  0  1  0            999 V2000
   -2.6628   56.5720   15.9258 C   0  0  0  0  0  0
   -1.1607   56.7526   16.0270 C   0  0  0  0  0  0
   -0.5440   57.8212   15.3780 C   0  0  0  0  0  0
    0.8338   57.9947   15.4810 C   0  0  0  0  0  0
    1.6135   57.1078   16.2400 C   0  0  0  0  0  0
    0.9797   56.0367   16.8817 C   0  0  0  0  0  0
   -0.3986   55.8627   16.7827 C   0  0  0  0  0  0
    3.0649   57.2823   16.3988 C   0  0  0  0  0  0
    3.7516   58.1511   15.7637 N   0  0  0  0  0  0
    5.1468   58.3079   15.9881 N   0  0  0  0  0  0
    5.9084   57.7672   17.0058 C   0  0  0  0  0  0
    6.3197   56.5340   17.1346 N   0  0  0  0  0  0
    6.9233   56.5436   18.3194 C   0  0  0  0  0  0
    6.9555   57.7098   18.9412 N   0  0  0  0  0  0
    6.3044   58.4969   18.0813 N   0  0  0  0  0  0
    7.6244   55.0547   18.9667 S   0  0  0  0  0  0
    7.9606   55.4947   20.7111 C   0  0  0  0  0  0
    6.7792   55.2968   21.6734 C   0  0  0  0  0  0
    5.6281   55.2921   21.2368 O   0  0  0  0  0  0
    7.1011   55.1343   22.9764 N   0  0  0  0  0  0
    6.2362   54.8636   24.0252 C   0  0  0  0  0  0
    6.5780   55.0975   25.2671 N   0  0  0  0  0  0
    5.5763   54.7562   26.1655 N   0  0  0  0  0  0
    4.5148   54.2344   25.5922 C   0  0  0  0  0  0
    4.6709   54.0968   23.8634 S   0  0  0  0  0  0
    3.0370   53.7007   26.3996 S   0  0  0  0  0  0
    3.1154   54.6016   27.9815 C   0  0  0  0  0  0
    2.7785   53.6906   29.1491 C   0  0  0  0  0  0
    1.4656   53.6135   29.6243 C   0  0  0  0  0  0
    1.1703   52.8108   30.7223 C   0  0  0  0  0  0
    2.1935   52.0968   31.3442 C   0  0  0  0  0  0
    3.5039   52.1628   30.8709 C   0  0  0  0  0  0
    3.7949   52.9574   29.7663 C   0  0  0  0  0  0
   -3.0530   55.9865   16.7601 H   0  0  0  0  0  0
   -3.1697   57.5378   15.9544 H   0  0  0  0  0  0
   -2.9229   56.0746   14.9899 H   0  0  0  0  0  0
   -1.1273   58.5191   14.7949 H   0  0  0  0  0  0
    1.2899   58.8361   14.9774 H   0  0  0  0  0  0
    1.5479   55.3371   17.4802 H   0  0  0  0  0  0
   -0.8657   55.0344   17.2958 H   0  0  0  0  0  0
    3.5232   56.6071   17.1192 H   0  0  0  0  0  0
    5.5272   59.0728   15.4478 H   0  0  0  0  0  0
    8.3420   56.4967   20.7780 H   0  0  0  0  0  0
    8.7990   54.8964   21.0463 H   0  0  0  0  0  0
    8.0629   55.2989   23.2632 H   0  0  0  0  0  0
    2.3990   55.4228   27.9494 H   0  0  0  0  0  0
    4.0851   55.0598   28.1638 H   0  0  0  0  0  0
    0.6753   54.1753   29.1456 H   0  0  0  0  0  0
    0.1576   52.7447   31.1000 H   0  0  0  0  0  0
    1.9629   51.4958   32.2113 H   0  0  0  0  0  0
    4.2927   51.6155   31.3683 H   0  0  0  0  0  0
    4.8082   53.0100   29.3929 H   0  0  0  0  0  0
    6.1390   59.4912   18.2130 H   0  0  0  0  0  0
  1  2  1  0  0  0
  1 34  1  0  0  0
  1 35  1  0  0  0
  1 36  1  0  0  0
  2  7  2  0  0  0
  2  3  1  0  0  0
  3  4  2  0  0  0
  3 37  1  0  0  0
  4  5  1  0  0  0
  4 38  1  0  0  0
  5  6  2  0  0  0
  5  8  1  0  0  0
  6  7  1  0  0  0
  6 39  1  0  0  0
  7 40  1  0  0  0
  8  9  2  0  0  0
  8 41  1  0  0  0
  9 10  1  0  0  0
 10 11  1  0  0  0
 10 42  1  0  0  0
 11 15  1  0  0  0
 11 12  2  0  0  0
 12 13  1  0  0  0
 13 14  2  0  0  0
 13 16  1  0  0  0
 14 15  1  0  0  0
 15 53  1  0  0  0
 16 17  1  0  0  0
 17 18  1  0  0  0
 17 43  1  0  0  0
 17 44  1  0  0  0
 18 19  2  0  0  0
 18 20  1  0  0  0
 20 21  1  0  0  0
 20 45  1  0  0  0
 21 25  1  0  0  0
 21 22  2  0  0  0
 22 23  1  0  0  0
 23 24  2  0  0  0
 24 25  1  0  0  0
 24 26  1  0  0  0
 26 27  1  0  0  0
 27 28  1  0  0  0
 27 46  1  0  0  0
 27 47  1  0  0  0
 28 33  2  0  0  0
 28 29  1  0  0  0
 29 30  2  0  0  0
 29 48  1  0  0  0
 30 31  1  0  0  0
 30 49  1  0  0  0
 31 32  2  0  0  0
 31 50  1  0  0  0
 32 33  1  0  0  0
 32 51  1  0  0  0
 33 52  1  0  0  0
M  END
> <i_i_glide_confnum>
370

> <i_i_glide_lignum>
3037

> <i_i_glide_posenum>
362

> <i_i_glide_rotatable_bonds>
11

> <i_m_Source_File_Index>
4085

> <b_m_subgroup_collapsed>
0

> <r_i_docking_score>
-5.90792

> <r_i_glide_ecoul>
-6.38375

> <r_i_glide_eff_state_penalty>
0

> <r_i_glide_einternal>
7.04921

> <r_i_glide_emodel>
-74.5971

> <r_i_glide_energy>
-56.5632

> <r_i_glide_erotb>
0.909523

> <r_i_glide_esite>
-0.178339

> <r_i_glide_evdw>
-50.1795

> <r_i_glide_gscore>
-5.90792

> <r_i_glide_hbond>
-0.474504

> <r_i_glide_ligand_efficiency>
-0.179028

> <r_i_glide_ligand_efficiency_ln>
-1.31389

> <r_i_glide_ligand_efficiency_sa>
-0.574238

> <r_i_glide_lipo>
-2.32959

> <r_i_glide_metal>
0

> <r_i_glide_rewards>
-0.368476

> <s_i_glide_gridfile>
wee1_glide-grid

> <s_m_Source_File>
wee1_decoys_glide_SP.sdf

> <s_m_Source_Path>
/Users/zhangxujun/Desktop

> <s_m_entry_id>
4360

> <s_m_entry_name>
wee1_decoys_glide_SP.4085

> <s_m_subgroup_title>
wee1_decoys_glide_SP

> <s_m_subgroupid>
wee1_decoys_glide_SP


$$$$
