ZINC57352567_3954
                    3D
 Schrodinger Suite 2024-2.
 44 48  0  0  1  0            999 V2000
    3.6581   57.1096   15.2682 C   0  0  0  0  0  0
    3.5806   56.1465   16.3146 O   0  0  0  0  0  0
    4.5003   56.1924   17.3429 C   0  0  0  0  0  0
    5.5711   57.0994   17.4054 C   0  0  0  0  0  0
    6.4642   57.1232   18.4787 C   0  0  0  0  0  0
    6.2554   56.2139   19.5393 C   0  0  0  0  0  0
    5.1709   55.2968   19.4716 C   0  0  0  0  0  0
    4.3055   55.2705   18.3717 C   0  0  0  0  0  0
    5.1048   54.3666   20.9584 S   0  0  0  0  0  0
    6.4814   55.2966   21.5328 C   0  0  0  0  0  0
    6.9861   56.1492   20.6908 N   0  0  0  0  0  0
    7.0127   55.1310   22.7868 N   0  0  0  0  0  0
    6.3423   54.7961   23.9359 C   0  0  0  0  0  0
    5.0711   54.4965   24.1273 N   0  0  0  0  0  0
    4.9756   54.3471   25.4833 C   0  0  0  0  0  0
    3.8888   54.0305   26.3132 C   0  0  0  0  0  0
    4.0988   53.9257   27.7035 C   0  0  0  0  0  0
    5.3852   54.1647   28.2212 C   0  0  0  0  0  0
    6.4778   54.4919   27.4211 C   0  0  0  0  0  0
    6.2323   54.5680   26.0562 C   0  0  0  0  0  0
    7.1044   54.8656   25.0633 O   0  0  0  0  0  0
    2.9762   53.5664   28.6279 C   0  0  0  0  0  0
    3.2153   52.8208   29.7939 C   0  0  0  0  0  0
    2.1752   52.4968   30.6619 C   0  0  0  0  0  0
    0.8782   52.9061   30.3705 C   0  0  0  0  0  0
    0.6173   53.6419   29.2184 C   0  0  0  0  0  0
    1.6607   53.9705   28.3555 C   0  0  0  0  0  0
    7.5027   58.0613   18.4750 N   0  0  0  0  0  0
    2.8393   56.9450   14.5670 H   0  0  0  0  0  0
    3.5641   58.1281   15.6506 H   0  0  0  0  0  0
    4.5912   57.0202   14.7092 H   0  0  0  0  0  0
    5.7206   57.8132   16.6094 H   0  0  0  0  0  0
    3.4709   54.5840   18.3365 H   0  0  0  0  0  0
    7.9997   55.3337   22.9037 H   0  0  0  0  0  0
    2.9205   53.8407   25.8769 H   0  0  0  0  0  0
    5.5540   54.1132   29.2819 H   0  0  0  0  0  0
    7.4558   54.6761   27.8389 H   0  0  0  0  0  0
    4.2118   52.4781   30.0317 H   0  0  0  0  0  0
    2.3683   51.9302   31.5620 H   0  0  0  0  0  0
    0.0696   52.6488   31.0428 H   0  0  0  0  0  0
   -0.3909   53.9582   28.9959 H   0  0  0  0  0  0
    1.4401   54.5530   27.4736 H   0  0  0  0  0  0
    8.2718   57.9594   19.1244 H   0  0  0  0  0  0
    7.5361   58.7560   17.7397 H   0  0  0  0  0  0
  1  2  1  0  0  0
  1 29  1  0  0  0
  1 30  1  0  0  0
  1 31  1  0  0  0
  2  3  1  0  0  0
  3  8  2  0  0  0
  3  4  1  0  0  0
  4  5  2  0  0  0
  4 32  1  0  0  0
  5  6  1  0  0  0
  5 28  1  0  0  0
  6 11  1  0  0  0
  6  7  2  0  0  0
  7  8  1  0  0  0
  7  9  1  0  0  0
  8 33  1  0  0  0
  9 10  1  0  0  0
 10 11  2  0  0  0
 10 12  1  0  0  0
 12 13  1  0  0  0
 12 34  1  0  0  0
 13 21  1  0  0  0
 13 14  2  0  0  0
 14 15  1  0  0  0
 15 20  2  0  0  0
 15 16  1  0  0  0
 16 17  2  0  0  0
 16 35  1  0  0  0
 17 18  1  0  0  0
 17 22  1  0  0  0
 18 19  2  0  0  0
 18 36  1  0  0  0
 19 20  1  0  0  0
 19 37  1  0  0  0
 20 21  1  0  0  0
 22 27  2  0  0  0
 22 23  1  0  0  0
 23 24  2  0  0  0
 23 38  1  0  0  0
 24 25  1  0  0  0
 24 39  1  0  0  0
 25 26  2  0  0  0
 25 40  1  0  0  0
 26 27  1  0  0  0
 26 41  1  0  0  0
 27 42  1  0  0  0
 28 43  1  0  0  0
 28 44  1  0  0  0
M  END
> <i_i_glide_confnum>
9

> <i_i_glide_lignum>
3955

> <i_i_glide_posenum>
260

> <i_i_glide_rotatable_bonds>
4

> <i_m_Source_File_Index>
4499

> <b_m_subgroup_collapsed>
0

> <r_i_docking_score>
-8.28882

> <r_i_glide_ecoul>
-5.86655

> <r_i_glide_eff_state_penalty>
0

> <r_i_glide_einternal>
8.64982

> <r_i_glide_emodel>
-73.3106

> <r_i_glide_energy>
-51.711

> <r_i_glide_erotb>
0.387387

> <r_i_glide_esite>
-0.037889

> <r_i_glide_evdw>
-45.8445

> <r_i_glide_gscore>
-8.28882

> <r_i_glide_hbond>
-0.687406

> <r_i_glide_ligand_efficiency>
-0.296029

> <r_i_glide_ligand_efficiency_ln>
-1.9133

> <r_i_glide_ligand_efficiency_sa>
-0.898919

> <r_i_glide_lipo>
-3.41813

> <r_i_glide_metal>
0

> <r_i_glide_rewards>
-1.36058

> <s_i_glide_gridfile>
wee1_glide-grid

> <s_m_Source_File>
wee1_decoys_glide_SP.sdf

> <s_m_Source_Path>
/Users/zhangxujun/Desktop

> <s_m_entry_id>
4774

> <s_m_entry_name>
wee1_decoys_glide_SP.4499

> <s_m_subgroup_title>
wee1_decoys_glide_SP

> <s_m_subgroupid>
wee1_decoys_glide_SP


$$$$
