@<TRIPOS>MOLECULE
ZINC33122631_2056
50   52    1
SMALL
USER_CHARGES


@<TRIPOS>ATOM
      1 C1         -7.4045   54.3889   26.4808 C.3       1 UNK         0.0000 
      2 O2         -6.5547   53.3819   27.0126 O.3       1 UNK         0.0000 
      3 C3         -5.4033   53.0372   26.3318 C.ar      1 UNK         0.0000 
      4 C4         -4.9533   53.6606   25.1577 C.ar      1 UNK         0.0000 
      5 C5         -3.7791   53.2317   24.5402 C.ar      1 UNK         0.0000 
      6 C6         -3.0499   52.1684   25.0878 C.ar      1 UNK         0.0000 
      7 C7         -3.4820   51.5672   26.2709 C.ar      1 UNK         0.0000 
      8 C8         -4.6557   51.9974   26.8814 C.ar      1 UNK         0.0000 
      9 N9         -1.8697   51.6544   24.5287 N.am      1 UNK         0.0000 
     10 C10        -1.4730   51.6323   23.2352 C.2       1 UNK         0.0000 
     11 O11        -2.0957   52.1928   22.3280 O.2       1 UNK         0.0000 
     12 N12        -0.3948   50.8284   23.0058 N.am      1 UNK         0.0000 
     13 C13         0.6864   50.6597   24.0170 C.3       1 UNK         0.0000 
     14 C14         1.7690   51.7156   23.6958 C.3       1 UNK         0.0000 
     15 C15         2.3271   51.3900   22.2929 C.3       1 UNK         0.0000 
     16 C16         1.1917   51.5693   21.2688 C.3       1 UNK         0.0000 
     17 C17         0.0419   50.5821   21.6072 C.3       1 UNK         0.0000 
     18 N18         3.4777   52.2326   21.8717 N.pl3     1 UNK         0.0000 
     19 S19         3.6301   53.9507   22.2218 S.o2      1 UNK         0.0000 
     20 O20         4.4671   54.4967   21.1500 O.2       1 UNK         0.0000 
     21 O21         2.3007   54.4967   22.4968 O.2       1 UNK         0.0000 
     22 C22         4.5773   54.0965   23.7342 C.ar      1 UNK         0.0000 
     23 C23         5.9656   54.2260   23.6674 C.ar      1 UNK         0.0000 
     24 C24         6.7046   54.3331   24.8403 C.ar      1 UNK         0.0000 
     25 C25         6.0605   54.2843   26.0739 C.ar      1 UNK         0.0000 
     26 C26         4.6731   54.1827   26.1452 C.ar      1 UNK         0.0000 
     27 C27         3.9271   54.0983   24.9728 C.ar      1 UNK         0.0000 
     28 Br28        7.0884   54.3256   27.6748 Br        1 UNK         0.0000 
     29 H29        -8.2952   54.4738   27.1028 H         1 UNK         0.0000 
     30 H30        -7.7340   54.1509   25.4682 H         1 UNK         0.0000 
     31 H31        -6.9087   55.3573   26.4819 H         1 UNK         0.0000 
     32 H32        -5.5053   54.4697   24.7047 H         1 UNK         0.0000 
     33 H33        -3.4508   53.7356   23.6442 H         1 UNK         0.0000 
     34 H34        -2.9263   50.7542   26.7170 H         1 UNK         0.0000 
     35 H35        -4.9907   51.5160   27.7888 H         1 UNK         0.0000 
     36 H36        -1.3146   51.0999   25.1634 H         1 UNK         0.0000 
     37 H37         0.3423   50.6660   25.0502 H         1 UNK         0.0000 
     38 H38         1.0908   49.6540   23.8940 H         1 UNK         0.0000 
     39 H39         1.3171   52.7040   23.7579 H         1 UNK         0.0000 
     40 H40         2.5501   51.6966   24.4497 H         1 UNK         0.0000 
     41 H41         2.6118   50.3374   22.2161 H         1 UNK         0.0000 
     42 H42         1.5528   51.3722   20.2585 H         1 UNK         0.0000 
     43 H43         0.8194   52.5963   21.2545 H         1 UNK         0.0000 
     44 H44         0.4115   49.5572   21.5712 H         1 UNK         0.0000 
     45 H45        -0.7869   50.5994   20.8965 H         1 UNK         0.0000 
     46 H46         3.7790   52.0360   20.9129 H         1 UNK         0.0000 
     47 H47         6.4741   54.2447   22.7143 H         1 UNK         0.0000 
     48 H48         7.7764   54.4371   24.7873 H         1 UNK         0.0000 
     49 H49         4.1786   54.1545   27.1043 H         1 UNK         0.0000 
     50 H50         2.8515   54.0262   25.0302 H         1 UNK         0.0000 
@<TRIPOS>BOND
     1    1    2 1    
     2    1   29 1    
     3    1   30 1    
     4    1   31 1    
     5    2    3 1    
     6    3    8 ar   
     7    3    4 ar   
     8    4    5 ar   
     9    4   32 1    
    10    5    6 ar   
    11    5   33 1    
    12    6    7 ar   
    13    6    9 1    
    14    7    8 ar   
    15    7   34 1    
    16    8   35 1    
    17    9   10 am   BACKBONE|DICT|INTERRES
    18    9   36 1    
    19   10   11 2    
    20   10   12 am   BACKBONE|DICT|INTERRES
    21   12   17 1    
    22   12   13 1    
    23   13   14 1    
    24   13   37 1    
    25   13   38 1    
    26   14   15 1    
    27   14   39 1    
    28   14   40 1    
    29   15   16 1    
    30   15   18 1    
    31   15   41 1    
    32   16   17 1    
    33   16   42 1    
    34   16   43 1    
    35   17   44 1    
    36   17   45 1    
    37   18   19 1    
    38   18   46 1    
    39   19   20 2    
    40   19   21 2    
    41   19   22 1    
    42   22   27 ar   
    43   22   23 ar   
    44   23   24 ar   
    45   23   47 1    
    46   24   25 ar   
    47   24   48 1    
    48   25   26 ar   
    49   25   28 1    
    50   26   27 ar   
    51   26   49 1    
    52   27   50 1    
@<TRIPOS>SUBSTRUCTURE
     1 UNK         1 GROUP             0       ****    0 ROOT    
