ZINC15867893_3802
                    3D
 Schrodinger Suite 2024-2.
 31 33  0  0  1  0            999 V2000
    4.1532   52.5207   29.3395 C   0  0  0  0  0  0
    4.1362   53.8402   28.5388 C   0  0  1  0  0  0
    5.4766   54.3763   28.4816 N   0  0  0  0  0  0
    5.9882   54.4870   27.2477 C   0  0  0  0  0  0
    7.1026   54.9122   26.9602 O   0  0  0  0  0  0
    4.9425   54.1799   26.4363 N   0  0  0  0  0  0
    3.9138   53.5451   27.1481 N   0  0  0  0  0  0
    4.8944   54.2391   25.0106 C   0  0  0  0  0  0
    6.0559   54.3979   24.2276 C   0  0  0  0  0  0
    5.9911   54.3781   22.8394 C   0  0  0  0  0  0
    4.7667   54.1972   22.2064 C   0  0  0  0  0  0
    3.5975   54.0864   22.9541 C   0  0  0  0  0  0
    3.6616   54.0991   24.3473 C   0  0  0  0  0  0
    4.7026   54.0969   20.3081 Br  0  0  0  0  0  0
    3.1621   54.8952   29.1519 C   0  0  0  0  0  0
    1.8677   55.2987   28.4791 C   0  0  0  0  0  0
    1.8252   54.4841   29.7436 C   0  0  0  0  0  0
    4.9488   51.8538   29.0071 H   0  0  0  0  0  0
    4.3046   52.7013   30.4047 H   0  0  0  0  0  0
    3.2159   51.9722   29.2327 H   0  0  0  0  0  0
    6.1037   54.1910   29.2499 H   0  0  0  0  0  0
    4.0794   52.5615   26.9835 H   0  0  0  0  0  0
    7.0375   54.5059   24.6595 H   0  0  0  0  0  0
    6.8917   54.4954   22.2555 H   0  0  0  0  0  0
    2.6474   53.9632   22.4538 H   0  0  0  0  0  0
    2.7437   53.9877   24.9047 H   0  0  0  0  0  0
    3.6953   55.6877   29.6744 H   0  0  0  0  0  0
    1.5805   54.8236   27.5413 H   0  0  0  0  0  0
    1.5784   56.3494   28.5103 H   0  0  0  0  0  0
    1.4877   54.9687   30.6606 H   0  0  0  0  0  0
    1.4927   53.4491   29.6804 H   0  0  0  0  0  0
  1  2  1  0  0  0
  1 18  1  0  0  0
  1 19  1  0  0  0
  1 20  1  0  0  0
  2  7  1  0  0  0
  2  3  1  0  0  0
  2 15  1  0  0  0
  3  4  1  0  0  0
  3 21  1  0  0  0
  4  5  2  0  0  0
  4  6  1  0  0  0
  6  7  1  0  0  0
  6  8  1  0  0  0
  7 22  1  0  0  0
  8 13  2  0  0  0
  8  9  1  0  0  0
  9 10  2  0  0  0
  9 23  1  0  0  0
 10 11  1  0  0  0
 10 24  1  0  0  0
 11 12  2  0  0  0
 11 14  1  0  0  0
 12 13  1  0  0  0
 12 25  1  0  0  0
 13 26  1  0  0  0
 15 17  1  0  0  0
 15 16  1  0  0  0
 15 27  1  0  0  0
 16 17  1  0  0  0
 16 28  1  0  0  0
 16 29  1  0  0  0
 17 30  1  0  0  0
 17 31  1  0  0  0
M  END
> <i_i_glide_confnum>
3

> <i_i_glide_lignum>
3803

> <i_i_glide_posenum>
141

> <i_i_glide_rotatable_bonds>
2

> <i_m_Source_File_Index>
1488

> <b_m_subgroup_collapsed>
0

> <r_i_docking_score>
-7.36416

> <r_i_glide_ecoul>
-2.83578

> <r_i_glide_eff_state_penalty>
0

> <r_i_glide_einternal>
5.07738

> <r_i_glide_emodel>
-53.6901

> <r_i_glide_energy>
-39.0553

> <r_i_glide_erotb>
0.41763

> <r_i_glide_esite>
0

> <r_i_glide_evdw>
-36.2195

> <r_i_glide_gscore>
-7.36416

> <r_i_glide_hbond>
-0.261358

> <r_i_glide_ligand_efficiency>
-0.433186

> <r_i_glide_ligand_efficiency_ln>
-1.92114

> <r_i_glide_ligand_efficiency_sa>
-1.11384

> <r_i_glide_lipo>
-2.31308

> <r_i_glide_metal>
0

> <r_i_glide_rewards>
-2.971

> <s_i_glide_gridfile>
wee1_glide-grid

> <s_m_Source_File>
wee1_decoys_glide_SP.sdf

> <s_m_Source_Path>
/Users/zhangxujun/Desktop

> <s_m_entry_id>
1763

> <s_m_entry_name>
wee1_decoys_glide_SP.1488

> <s_m_subgroup_title>
wee1_decoys_glide_SP

> <s_m_subgroupid>
wee1_decoys_glide_SP


$$$$
