@<TRIPOS>MOLECULE
ZINC09790932_61
47   50    1
SMALL
USER_CHARGES


@<TRIPOS>ATOM
      1 C1         -7.0393   50.7993   29.8235 C.3       1 UNK         0.0000 
      2 C2         -6.2101   50.6676   28.5593 C.ar      1 UNK         0.0000 
      3 C3         -4.9959   49.9799   28.5824 C.ar      1 UNK         0.0000 
      4 C4         -4.2304   49.8749   27.4230 C.ar      1 UNK         0.0000 
      5 C5         -4.6528   50.4716   26.2211 C.ar      1 UNK         0.0000 
      6 C6         -5.8789   51.1550   26.2025 C.ar      1 UNK         0.0000 
      7 C7         -6.6485   51.2508   27.3673 C.ar      1 UNK         0.0000 
      8 C8         -6.3720   51.8134   24.9209 C.3       1 UNK         0.0000 
      9 O9         -3.9174   50.4328   25.0447 O.3       1 UNK         0.0000 
     10 C10        -2.5551   49.9852   25.0574 C.3       1 UNK         0.0000 
     11 C11        -1.6497   50.8824   25.8954 C.ar      1 UNK         0.0000 
     12 N12        -1.9607   52.0813   26.3245 N.2       1 UNK         0.0000 
     13 N13        -0.9251   52.4965   27.1462 N.2       1 UNK         0.0000 
     14 C14         0.0007   51.5718   27.1323 C.ar      1 UNK         0.0000 
     15 N15        -0.4008   50.5127   26.3416 N.pl3     1 UNK         0.0000 
     16 N16         0.2577   49.3196   26.0821 N.3       1 UNK         0.0000 
     17 S17         1.5114   51.6954   28.0359 S.3       1 UNK         0.0000 
     18 C18         1.8471   53.4814   27.8400 C.3       1 UNK         0.0000 
     19 C19         3.3036   53.7756   27.4952 C.ar      1 UNK         0.0000 
     20 C20         3.6345   54.0979   26.1656 C.ar      1 UNK         0.0000 
     21 C21         4.9572   54.4127   25.8766 C.ar      1 UNK         0.0000 
     22 C22         5.9230   54.4142   26.8403 C.ar      1 UNK         0.0000 
     23 C23         5.6369   54.0952   28.1621 C.ar      1 UNK         0.0000 
     24 C24         4.3115   53.7661   28.4883 C.ar      1 UNK         0.0000 
     25 Br25        3.9038   53.3159   30.2973 Br        1 UNK         0.0000 
     26 O26         7.1043   54.8027   26.2915 O.3       1 UNK         0.0000 
     27 C27         6.8893   54.8147   24.9050 C.3       1 UNK         0.0000 
     28 O28         5.5030   54.7984   24.6931 O.3       1 UNK         0.0000 
     29 H29        -6.4190   50.7075   30.7163 H         1 UNK         0.0000 
     30 H30        -7.8181   50.0371   29.8511 H         1 UNK         0.0000 
     31 H31        -7.5172   51.7791   29.8711 H         1 UNK         0.0000 
     32 H32        -4.6345   49.5230   29.4950 H         1 UNK         0.0000 
     33 H33        -3.2965   49.3346   27.4839 H         1 UNK         0.0000 
     34 H34        -7.5876   51.7841   27.3479 H         1 UNK         0.0000 
     35 H35        -6.5068   51.0605   24.1429 H         1 UNK         0.0000 
     36 H36        -7.3149   52.3444   25.0585 H         1 UNK         0.0000 
     37 H37        -5.6302   52.5262   24.5567 H         1 UNK         0.0000 
     38 H38        -2.5086   48.9319   25.3437 H         1 UNK         0.0000 
     39 H39        -2.2096   50.0054   24.0231 H         1 UNK         0.0000 
     40 H40         1.1719   49.4447   25.6785 H         1 UNK         0.0000 
     41 H41         0.2331   48.6830   26.8721 H         1 UNK         0.0000 
     42 H42         1.2051   53.9377   27.0878 H         1 UNK         0.0000 
     43 H43         1.5933   53.9842   28.7732 H         1 UNK         0.0000 
     44 H44         2.8812   54.1144   25.3918 H         1 UNK         0.0000 
     45 H45         6.4082   54.1095   28.9179 H         1 UNK         0.0000 
     46 H46         7.3398   55.6959   24.4453 H         1 UNK         0.0000 
     47 H47         7.3305   53.9192   24.4605 H         1 UNK         0.0000 
@<TRIPOS>BOND
     1    1    2 1    
     2    1   29 1    
     3    1   30 1    
     4    1   31 1    
     5    2    7 ar   
     6    2    3 ar   
     7    3    4 ar   
     8    3   32 1    
     9    4    5 ar   
    10    4   33 1    
    11    5    6 ar   
    12    5    9 1    
    13    6    7 ar   
    14    6    8 1    
    15    7   34 1    
    16    8   35 1    
    17    8   36 1    
    18    8   37 1    
    19    9   10 1    
    20   10   11 1    
    21   10   38 1    
    22   10   39 1    
    23   11   15 ar   
    24   11   12 ar   
    25   12   13 ar   
    26   13   14 ar   
    27   14   15 ar   
    28   14   17 1    
    29   15   16 1    
    30   16   40 1    
    31   16   41 1    
    32   17   18 1    
    33   18   19 1    
    34   18   42 1    
    35   18   43 1    
    36   19   24 ar   
    37   19   20 ar   
    38   20   21 ar   
    39   20   44 1    
    40   21   28 1    
    41   21   22 ar   
    42   22   23 ar   
    43   22   26 1    
    44   23   24 ar   
    45   23   45 1    
    46   24   25 1    
    47   26   27 1    
    48   27   28 1    
    49   27   46 1    
    50   27   47 1    
@<TRIPOS>SUBSTRUCTURE
     1 UNK         1 GROUP             0       ****    0 ROOT    
