@<TRIPOS>MOLECULE
ZINC63280856_6210
49   52    1
SMALL
USER_CHARGES


@<TRIPOS>ATOM
      1 C1          0.4822   51.8942   20.9511 C.3       1 UNK         0.0000 
      2 S2         -1.3428   51.7066   21.3720 S.o2      1 UNK         0.0000 
      3 O3         -1.6024   52.4107   22.6312 O.2       1 UNK         0.0000 
      4 O4         -2.0967   52.0689   20.1676 O.2       1 UNK         0.0000 
      5 N5         -1.5498   49.9709   21.6249 N.pl3     1 UNK         0.0000 
      6 C6         -1.2393   49.3231   22.9211 C.3       1 UNK         0.0000 
      7 H7         -1.3131   48.2534   22.7168 H         1 UNK         0.0000 
      8 N8         -2.1811   49.6647   23.9707 N.pl3     1 UNK         0.0000 
      9 C9         -1.6436   50.3899   25.0304 C.ar      1 UNK         0.0000 
     10 C10        -2.3493   50.9675   26.0840 C.ar      1 UNK         0.0000 
     11 C11        -1.6585   51.6612   27.0798 C.ar      1 UNK         0.0000 
     12 C12        -0.2615   51.7880   27.0318 C.ar      1 UNK         0.0000 
     13 C13         0.4265   51.2062   25.9556 C.ar      1 UNK         0.0000 
     14 C14        -0.2605   50.4934   24.9765 C.ar      1 UNK         0.0000 
     15 S15         0.4175   49.6423   23.5963 S.3       1 UNK         0.0000 
     16 C16         0.4691   52.5514   28.1100 C.2       1 UNK         0.0000 
     17 O17        -0.0954   53.4426   28.7462 O.2       1 UNK         0.0000 
     18 N18         1.7572   52.2134   28.3165 N.am      1 UNK         0.0000 
     19 C19         2.6494   52.9006   29.2497 C.3       1 UNK         0.0000 
     20 C20         3.1923   54.2343   28.6969 C.3       1 UNK         0.0000 
     21 C21         4.1558   54.1085   27.5267 C.2       1 UNK         0.0000 
     22 C22         3.9478   54.0971   26.1958 C.2       1 UNK         0.0000 
     23 C23         2.7045   54.0967   25.4119 C.2       1 UNK         0.0000 
     24 C24         2.7324   54.0948   24.0641 C.2       1 UNK         0.0000 
     25 C25         4.0329   54.0965   23.4090 C.2       1 UNK         0.0000 
     26 C26         5.1947   54.0973   24.1157 C.2       1 UNK         0.0000 
     27 C27         5.1710   54.0969   25.5176 C.2       1 UNK         0.0000 
     28 N28         6.1682   54.0947   26.3680 N.pl3     1 UNK         0.0000 
     29 C29         5.6538   54.0596   27.7465 C.3       1 UNK         0.0000 
     30 H30         0.6598   52.9144   20.6162 H         1 UNK         0.0000 
     31 H31         0.7340   51.1973   20.1523 H         1 UNK         0.0000 
     32 H32         1.0837   51.6930   21.8335 H         1 UNK         0.0000 
     33 H33        -1.2307   49.4275   20.8194 H         1 UNK         0.0000 
     34 H34        -3.1514   49.4135   23.8533 H         1 UNK         0.0000 
     35 H35        -3.4235   50.8789   26.1475 H         1 UNK         0.0000 
     36 H36        -2.2208   52.0884   27.8969 H         1 UNK         0.0000 
     37 H37         1.4959   51.3157   25.8690 H         1 UNK         0.0000 
     38 H38         2.1195   51.3996   27.8432 H         1 UNK         0.0000 
     39 H39         2.1318   53.0683   30.1976 H         1 UNK         0.0000 
     40 H40         3.4807   52.2299   29.4748 H         1 UNK         0.0000 
     41 H41         2.3605   54.8805   28.4113 H         1 UNK         0.0000 
     42 H42         3.7170   54.7689   29.4891 H         1 UNK         0.0000 
     43 H43         1.7373   54.0964   25.8944 H         1 UNK         0.0000 
     44 H44         1.8191   54.0946   23.4853 H         1 UNK         0.0000 
     45 H45         4.0722   54.0995   22.3281 H         1 UNK         0.0000 
     46 H46         6.1307   54.0987   23.5754 H         1 UNK         0.0000 
     47 H47         6.0494   54.9189   28.2860 H         1 UNK         0.0000 
     48 H48         5.9975   53.1350   28.2129 H         1 UNK         0.0000 
     49 H49         7.1530   54.0789   26.1217 H         1 UNK         0.0000 
@<TRIPOS>BOND
     1    1    2 1    
     2    1   30 1    
     3    1   31 1    
     4    1   32 1    
     5    2    3 2    
     6    2    4 2    
     7    2    5 1    
     8    5    6 1    
     9    5   33 1    
    10    6    7 1    
    11    6   15 1    
    12    6    8 1    
    13    8    9 1    
    14    8   34 1    
    15    9   14 ar   
    16    9   10 ar   
    17   10   11 ar   
    18   10   35 1    
    19   11   12 ar   
    20   11   36 1    
    21   12   13 ar   
    22   12   16 1    
    23   13   14 ar   
    24   13   37 1    
    25   14   15 1    
    26   16   17 2    
    27   16   18 am   BACKBONE|DICT|INTERRES
    28   18   19 1    
    29   18   38 1    
    30   19   20 1    
    31   19   39 1    
    32   19   40 1    
    33   20   21 1    
    34   20   41 1    
    35   20   42 1    
    36   21   29 1    
    37   21   22 2    
    38   22   27 1    
    39   22   23 1    
    40   23   24 2    
    41   23   43 1    
    42   24   25 1    
    43   24   44 1    
    44   25   26 2    
    45   25   45 1    
    46   26   27 1    
    47   26   46 1    
    48   27   28 2    
    49   28   29 1    
    50   28   49 1    
    51   29   47 1    
    52   29   48 1    
@<TRIPOS>SUBSTRUCTURE
     1 UNK         1 GROUP             0       ****    0 ROOT    
