@<TRIPOS>MOLECULE
ZINC34867669_4195
69   73    1
SMALL
USER_CHARGES


@<TRIPOS>ATOM
      1 C1          5.4366   54.4414   28.7209 C.3       1 UNK         0.0000 
      2 C2          3.9626   53.9743   28.6921 C.3       1 UNK         0.0000 
      3 C3          3.7317   52.5859   29.2645 C.3       1 UNK         0.0000 
      4 C4          2.3135   52.3107   28.7450 C.3       1 UNK         0.0000 
      5 H5          2.1076   51.2420   28.8124 H         1 UNK         0.0000 
      6 C6          1.2706   53.1269   29.5438 C.3       1 UNK         0.0000 
      7 C7          1.5227   54.6656   29.5596 C.3       1 UNK         0.0000 
      8 C8          3.0497   54.9935   29.4572 C.3       1 UNK         0.0000 
      9 C9          0.8497   55.2992   28.3326 C.3       1 UNK         0.0000 
     10 C10         0.9115   55.2447   30.8504 C.3       1 UNK         0.0000 
     11 N11         2.3765   52.7773   27.3466 N.pl3     1 UNK         0.0000 
     12 C12         3.5306   53.6962   27.2360 C.3       1 UNK         0.0000 
     13 C13         1.5044   52.4660   26.2776 C.ar      1 UNK         0.0000 
     14 C14         0.3793   51.4898   26.4990 C.ar      1 UNK         0.0000 
     15 O15        -0.0254   51.1299   27.6053 O.2       1 UNK         0.0000 
     16 N16        -0.1579   50.9917   25.3288 N.pl3     1 UNK         0.0000 
     17 C17         0.1758   51.4868   24.0271 C.ar      1 UNK         0.0000 
     18 C18        -0.4037   51.0409   22.8253 C.ar      1 UNK         0.0000 
     19 C19         0.0412   51.5403   21.6029 C.ar      1 UNK         0.0000 
     20 C20         1.0560   52.4932   21.5605 C.ar      1 UNK         0.0000 
     21 C21         1.6187   52.9718   22.7418 C.ar      1 UNK         0.0000 
     22 C22         1.1855   52.4704   23.9690 C.ar      1 UNK         0.0000 
     23 N23         1.8153   52.9550   25.1286 N.2       1 UNK         0.0000 
     24 C24        -1.1637   49.9021   25.4401 C.3       1 UNK         0.0000 
     25 C25        -2.5650   50.4950   25.6447 C.2       1 UNK         0.0000 
     26 O26        -3.1417   51.0328   24.6977 O.2       1 UNK         0.0000 
     27 N27        -3.0728   50.3509   26.8824 N.am      1 UNK         0.0000 
     28 C28        -4.2859   50.8538   27.3868 C.ar      1 UNK         0.0000 
     29 C29        -4.8379   50.1829   28.4782 C.ar      1 UNK         0.0000 
     30 C30        -6.0216   50.6380   29.0569 C.ar      1 UNK         0.0000 
     31 C31        -6.6475   51.7823   28.5650 C.ar      1 UNK         0.0000 
     32 C32        -6.0955   52.4935   27.4866 C.ar      1 UNK         0.0000 
     33 C33        -4.9156   52.0086   26.8972 C.ar      1 UNK         0.0000 
     34 C34        -6.6878   53.7978   27.0055 C.2       1 UNK         0.0000 
     35 O35        -5.9731   54.6552   26.4816 O.2       1 UNK         0.0000 
     36 N36        -8.0083   53.9630   27.1897 N.am      1 UNK         0.0000 
     37 C37        -8.7333   55.1724   26.8227 C.3       1 UNK         0.0000 
     38 H38         5.7291   54.8158   29.6998 H         1 UNK         0.0000 
     39 H39         6.1284   53.6441   28.4475 H         1 UNK         0.0000 
     40 H40         5.6009   55.2682   28.0277 H         1 UNK         0.0000 
     41 H41         3.7994   52.5488   30.3526 H         1 UNK         0.0000 
     42 H42         4.4472   51.8559   28.8814 H         1 UNK         0.0000 
     43 H43         0.2298   52.8896   29.3254 H         1 UNK         0.0000 
     44 H44         1.3981   52.7447   30.5581 H         1 UNK         0.0000 
     45 H45         3.4289   54.8966   30.4755 H         1 UNK         0.0000 
     46 H46         3.2277   56.0374   29.1990 H         1 UNK         0.0000 
     47 H47         0.7216   56.3714   28.4816 H         1 UNK         0.0000 
     48 H48         1.4280   55.1840   27.4313 H         1 UNK         0.0000 
     49 H49        -0.1046   54.8413   28.0956 H         1 UNK         0.0000 
     50 H50         1.2720   56.2515   31.0707 H         1 UNK         0.0000 
     51 H51        -0.1719   55.2960   30.7787 H         1 UNK         0.0000 
     52 H52         1.1040   54.6086   31.7015 H         1 UNK         0.0000 
     53 H53         4.3242   53.1914   26.6810 H         1 UNK         0.0000 
     54 H54         3.3110   54.6235   26.7072 H         1 UNK         0.0000 
     55 H55        -1.1908   50.3039   22.8153 H         1 UNK         0.0000 
     56 H56        -0.4000   51.1846   20.6828 H         1 UNK         0.0000 
     57 H57         1.4015   52.8765   20.6107 H         1 UNK         0.0000 
     58 H58         2.4010   53.7175   22.7010 H         1 UNK         0.0000 
     59 H59        -0.9103   49.2417   26.2749 H         1 UNK         0.0000 
     60 H60        -1.1508   49.2279   24.5876 H         1 UNK         0.0000 
     61 H61        -2.5395   49.7682   27.5249 H         1 UNK         0.0000 
     62 H62        -4.3502   49.3084   28.8849 H         1 UNK         0.0000 
     63 H63        -6.4457   50.1082   29.8978 H         1 UNK         0.0000 
     64 H64        -7.5470   52.1229   29.0560 H         1 UNK         0.0000 
     65 H65        -4.4704   52.5608   26.0828 H         1 UNK         0.0000 
     66 H66        -8.5517   53.1791   27.5191 H         1 UNK         0.0000 
     67 H67        -9.7189   55.1768   27.2881 H         1 UNK         0.0000 
     68 H68        -8.8645   55.2222   25.7392 H         1 UNK         0.0000 
     69 H69        -8.1979   56.0661   27.1493 H         1 UNK         0.0000 
@<TRIPOS>BOND
     1    1    2 1    
     2    1   38 1    
     3    1   39 1    
     4    1   40 1    
     5    2    8 1    
     6    2   12 1    
     7    2    3 1    
     8    3    4 1    
     9    3   41 1    
    10    3   42 1    
    11    4    5 1    
    12    4    6 1    
    13    4   11 1    
    14    6    7 1    
    15    6   43 1    
    16    6   44 1    
    17    7    8 1    
    18    7    9 1    
    19    7   10 1    
    20    8   45 1    
    21    8   46 1    
    22    9   47 1    
    23    9   48 1    
    24    9   49 1    
    25   10   50 1    
    26   10   51 1    
    27   10   52 1    
    28   11   12 1    
    29   11   13 1    
    30   12   53 1    
    31   12   54 1    
    32   13   23 ar   
    33   13   14 ar   
    34   14   15 2    
    35   14   16 ar   
    36   16   17 ar   
    37   16   24 1    
    38   17   22 ar   
    39   17   18 ar   
    40   18   19 ar   
    41   18   55 1    
    42   19   20 ar   
    43   19   56 1    
    44   20   21 ar   
    45   20   57 1    
    46   21   22 ar   
    47   21   58 1    
    48   22   23 ar   
    49   24   25 1    
    50   24   59 1    
    51   24   60 1    
    52   25   26 2    
    53   25   27 am   BACKBONE|DICT|INTERRES
    54   27   28 1    
    55   27   61 1    
    56   28   33 ar   
    57   28   29 ar   
    58   29   30 ar   
    59   29   62 1    
    60   30   31 ar   
    61   30   63 1    
    62   31   32 ar   
    63   31   64 1    
    64   32   33 ar   
    65   32   34 1    
    66   33   65 1    
    67   34   35 2    
    68   34   36 am   BACKBONE|DICT|INTERRES
    69   36   37 1    
    70   36   66 1    
    71   37   67 1    
    72   37   68 1    
    73   37   69 1    
@<TRIPOS>SUBSTRUCTURE
     1 UNK         1 GROUP             0       ****    0 ROOT    
