ZINC14111086_2131
                    3D
 Schrodinger Suite 2024-2.
 59 62  0  0  1  0            999 V2000
   -0.0933   52.6076   30.5829 C   0  0  0  0  0  0
    0.9869   53.3765   30.1586 C   0  0  0  0  0  0
    1.3762   53.3884   28.8129 C   0  0  0  0  0  0
    0.6085   52.6498   27.8959 C   0  0  0  0  0  0
   -0.4609   51.8496   28.3213 C   0  0  0  0  0  0
   -0.8090   51.8344   29.6714 C   0  0  0  0  0  0
   -1.2179   51.0635   27.4403 N   0  0  0  0  0  0
   -0.8023   50.4964   26.2907 C   0  0  0  0  0  0
    0.3570   50.5297   25.8765 O   0  0  0  0  0  0
   -1.8673   49.7395   25.4875 C   0  0  0  0  0  0
   -2.2135   50.3842   24.1158 C   0  0  0  0  0  0
   -1.0662   50.6246   23.2210 N   0  0  0  0  0  0
   -0.5501   49.6449   22.4261 C   0  0  0  0  0  0
   -0.8756   48.4588   22.3591 O   0  0  0  0  0  0
    0.4728   50.3390   21.5481 C   0  0  2  0  0  0
   -0.0713   50.6134   20.6395 H   0  0  0  0  0  0
    1.7344   49.5987   21.0586 C   0  0  0  0  0  0
    2.5540   50.5947   20.1894 C   0  0  0  0  0  0
    2.8049   51.9657   20.8834 C   0  0  0  0  0  0
    1.5230   52.5989   21.4939 C   0  0  0  0  0  0
    0.8512   51.5275   22.3724 C   0  0  1  0  0  0
    1.5885   51.2908   23.1475 H   0  0  0  0  0  0
   -0.4237   51.8258   23.1350 C   0  0  0  0  0  0
   -0.7216   52.8963   23.6683 O   0  0  0  0  0  0
    2.6208   54.1354   28.3845 C   0  0  0  0  0  0
    3.1986   54.8961   29.1656 O   0  0  0  0  0  0
    3.0443   53.8556   27.1324 N   0  0  0  0  0  0
    4.2489   54.1807   26.5016 C   0  0  0  0  0  0
    5.4301   54.4966   27.1869 C   0  0  0  0  0  0
    6.6007   54.7445   26.4741 C   0  0  0  0  0  0
    6.5992   54.6818   25.0783 C   0  0  0  0  0  0
    5.4331   54.3470   24.3822 C   0  0  0  0  0  0
    4.2606   54.0981   25.1056 C   0  0  0  0  0  0
    5.4417   54.2302   22.8576 C   0  0  0  0  0  0
    6.3307   55.0623   22.3098 F   0  0  0  0  0  0
    5.7697   52.9835   22.5252 F   0  0  0  0  0  0
    4.2425   54.4965   22.3376 F   0  0  0  0  0  0
   -0.3651   52.5981   31.6283 H   0  0  0  0  0  0
    1.5279   53.9517   30.8931 H   0  0  0  0  0  0
    0.8428   52.6757   26.8438 H   0  0  0  0  0  0
   -1.6252   51.2192   30.0279 H   0  0  0  0  0  0
   -2.0960   50.7238   27.8009 H   0  0  0  0  0  0
   -2.7625   49.5041   26.0648 H   0  0  0  0  0  0
   -1.3881   48.7763   25.2988 H   0  0  0  0  0  0
   -2.6728   51.3520   24.3231 H   0  0  0  0  0  0
   -2.9930   49.8088   23.6130 H   0  0  0  0  0  0
    1.4826   48.7499   20.4198 H   0  0  0  0  0  0
    2.3747   49.2972   21.8915 H   0  0  0  0  0  0
    3.5045   50.1453   19.9008 H   0  0  0  0  0  0
    2.0259   50.7709   19.2506 H   0  0  0  0  0  0
    3.5427   51.8221   21.6740 H   0  0  0  0  0  0
    3.2606   52.6608   20.1759 H   0  0  0  0  0  0
    1.8346   53.4648   22.0803 H   0  0  0  0  0  0
    0.8867   52.8943   20.6579 H   0  0  0  0  0  0
    2.4259   53.2872   26.5752 H   0  0  0  0  0  0
    5.4652   54.5330   28.2653 H   0  0  0  0  0  0
    7.5044   54.9690   27.0195 H   0  0  0  0  0  0
    7.5048   54.8777   24.5281 H   0  0  0  0  0  0
    3.3587   53.8245   24.5769 H   0  0  0  0  0  0
  1  6  2  0  0  0
  1  2  1  0  0  0
  1 38  1  0  0  0
  2  3  2  0  0  0
  2 39  1  0  0  0
  3  4  1  0  0  0
  3 25  1  0  0  0
  4  5  2  0  0  0
  4 40  1  0  0  0
  5  6  1  0  0  0
  5  7  1  0  0  0
  6 41  1  0  0  0
  7  8  1  0  0  0
  7 42  1  0  0  0
  8  9  2  0  0  0
  8 10  1  0  0  0
 10 11  1  0  0  0
 10 43  1  0  0  0
 10 44  1  0  0  0
 11 12  1  0  0  0
 11 45  1  0  0  0
 11 46  1  0  0  0
 12 23  1  0  0  0
 12 13  1  0  0  0
 13 14  2  0  0  0
 13 15  1  0  0  0
 15 16  1  0  0  0
 15 21  1  0  0  0
 15 17  1  0  0  0
 17 18  1  0  0  0
 17 47  1  0  0  0
 17 48  1  0  0  0
 18 19  1  0  0  0
 18 49  1  0  0  0
 18 50  1  0  0  0
 19 20  1  0  0  0
 19 51  1  0  0  0
 19 52  1  0  0  0
 20 21  1  0  0  0
 20 53  1  0  0  0
 20 54  1  0  0  0
 21 22  1  0  0  0
 21 23  1  0  0  0
 23 24  2  0  0  0
 25 26  2  0  0  0
 25 27  1  0  0  0
 27 28  1  0  0  0
 27 55  1  0  0  0
 28 33  2  0  0  0
 28 29  1  0  0  0
 29 30  2  0  0  0
 29 56  1  0  0  0
 30 31  1  0  0  0
 30 57  1  0  0  0
 31 32  2  0  0  0
 31 58  1  0  0  0
 32 33  1  0  0  0
 32 34  1  0  0  0
 33 59  1  0  0  0
 34 35  1  0  0  0
 34 36  1  0  0  0
 34 37  1  0  0  0
M  END
> <i_i_glide_confnum>
94

> <i_i_glide_lignum>
2132

> <i_i_glide_posenum>
317

> <i_i_glide_rotatable_bonds>
9

> <i_m_Source_File_Index>
1056

> <b_m_subgroup_collapsed>
0

> <r_i_docking_score>
-6.04242

> <r_i_glide_ecoul>
-4.06102

> <r_i_glide_eff_state_penalty>
0

> <r_i_glide_einternal>
4.90132

> <r_i_glide_emodel>
-66.1193

> <r_i_glide_energy>
-49.2212

> <r_i_glide_erotb>
0.598865

> <r_i_glide_esite>
-0.174747

> <r_i_glide_evdw>
-45.1601

> <r_i_glide_gscore>
-6.04242

> <r_i_glide_hbond>
0

> <r_i_glide_ligand_efficiency>
-0.172641

> <r_i_glide_ligand_efficiency_ln>
-1.32645

> <r_i_glide_ligand_efficiency_sa>
-0.564719

> <r_i_glide_lipo>
-2.49432

> <r_i_glide_metal>
0

> <r_i_glide_rewards>
-1.10506

> <s_i_glide_gridfile>
wee1_glide-grid

> <s_m_Source_File>
wee1_decoys_glide_SP.sdf

> <s_m_Source_Path>
/Users/zhangxujun/Desktop

> <s_m_entry_id>
1331

> <s_m_entry_name>
wee1_decoys_glide_SP.1056

> <s_m_subgroup_title>
wee1_decoys_glide_SP

> <s_m_subgroupid>
wee1_decoys_glide_SP


$$$$
