@<TRIPOS>MOLECULE
ZINC04560783_1540
51   54    1
SMALL
USER_CHARGES


@<TRIPOS>ATOM
      1 C1         -0.0660   51.3017   27.9418 C.3       1 UNK         0.0000 
      2 C2          0.6399   52.5756   28.3842 C.ar      1 UNK         0.0000 
      3 C3          0.4044   53.0804   29.6686 C.ar      1 UNK         0.0000 
      4 C4          1.0206   54.2599   30.0840 C.ar      1 UNK         0.0000 
      5 C5          1.8897   54.9319   29.2276 C.ar      1 UNK         0.0000 
      6 C6          2.1375   54.4249   27.9514 C.ar      1 UNK         0.0000 
      7 C7          1.5048   53.2501   27.5075 C.ar      1 UNK         0.0000 
      8 O8          1.6798   52.7124   26.2423 O.3       1 UNK         0.0000 
      9 C9          2.2430   53.4784   25.2144 C.3       1 UNK         0.0000 
     10 H10         1.8576   54.4959   25.2600 H         1 UNK         0.0000 
     11 C11         1.8485   52.8117   23.8760 C.3       1 UNK         0.0000 
     12 H12         2.2760   51.8044   23.9286 H         1 UNK         0.0000 
     13 C13         2.5418   53.5402   22.6839 C.3       1 UNK         0.0000 
     14 H14         2.0976   54.5335   22.5904 H         1 UNK         0.0000 
     15 C15         4.0534   53.6926   22.9414 C.3       1 UNK         0.0000 
     16 H16         4.5202   52.7106   22.8817 H         1 UNK         0.0000 
     17 C17         4.2496   54.3198   24.3261 C.3       1 UNK         0.0000 
     18 H18         3.7815   55.2966   24.2969 H         1 UNK         0.0000 
     19 O19         3.6429   53.5323   25.3498 O.3       1 UNK         0.0000 
     20 C20         5.7515   54.5261   24.5639 C.3       1 UNK         0.0000 
     21 O21         6.3045   55.2967   23.4888 O.3       1 UNK         0.0000 
     22 C22         6.0658   54.6918   22.2372 C.3       1 UNK         0.0000 
     23 H23         6.5009   53.6967   22.2909 H         1 UNK         0.0000 
     24 O24         4.6800   54.5514   21.9841 O.3       1 UNK         0.0000 
     25 C25         6.6753   55.5336   21.1637 C.2       1 UNK         0.0000 
     26 C26         7.9253   55.5320   20.5615 C.2       1 UNK         0.0000 
     27 C27         7.8892   56.4768   19.5347 C.2       1 UNK         0.0000 
     28 C28         6.6335   57.0539   19.5883 C.2       1 UNK         0.0000 
     29 O29         5.9049   56.4925   20.5872 O.3       1 UNK         0.0000 
     30 O30         2.2949   52.8965   21.4476 O.3       1 UNK         0.0000 
     31 N31         0.3919   52.6629   23.7265 N.am      1 UNK         0.0000 
     32 C32        -0.2550   51.5745   23.2782 C.2       1 UNK         0.0000 
     33 O33         0.3018   50.5363   22.9239 O.2       1 UNK         0.0000 
     34 C34        -1.7718   51.6850   23.2133 C.3       1 UNK         0.0000 
     35 H35        -0.6720   51.4945   27.0557 H         1 UNK         0.0000 
     36 H36         0.6621   50.5371   27.6695 H         1 UNK         0.0000 
     37 H37        -0.7212   50.8995   28.7148 H         1 UNK         0.0000 
     38 H38        -0.2613   52.5622   30.3452 H         1 UNK         0.0000 
     39 H39         0.8230   54.6481   31.0736 H         1 UNK         0.0000 
     40 H40         2.3728   55.8427   29.5517 H         1 UNK         0.0000 
     41 H41         2.8252   54.9573   27.3133 H         1 UNK         0.0000 
     42 H42         5.9078   55.0716   25.4940 H         1 UNK         0.0000 
     43 H43         6.2897   53.5829   24.6712 H         1 UNK         0.0000 
     44 H44         8.7602   54.8968   20.8130 H         1 UNK         0.0000 
     45 H45         8.6876   56.7195   18.8478 H         1 UNK         0.0000 
     46 H46         6.1404   57.8236   19.0112 H         1 UNK         0.0000 
     47 H47         2.4083   53.5436   20.7417 H         1 UNK         0.0000 
     48 H48        -0.1655   53.4464   24.0308 H         1 UNK         0.0000 
     49 H49        -2.1971   51.5711   24.2117 H         1 UNK         0.0000 
     50 H50        -2.0744   52.6525   22.8096 H         1 UNK         0.0000 
     51 H51        -2.1835   50.9028   22.5723 H         1 UNK         0.0000 
@<TRIPOS>BOND
     1    1    2 1    
     2    1   35 1    
     3    1   36 1    
     4    1   37 1    
     5    2    7 ar   
     6    2    3 ar   
     7    3    4 ar   
     8    3   38 1    
     9    4    5 ar   
    10    4   39 1    
    11    5    6 ar   
    12    5   40 1    
    13    6    7 ar   
    14    6   41 1    
    15    7    8 1    
    16    8    9 1    
    17    9   10 1    
    18    9   19 1    
    19    9   11 1    
    20   11   12 1    
    21   11   13 1    
    22   11   31 1    
    23   13   14 1    
    24   13   15 1    
    25   13   30 1    
    26   15   16 1    
    27   15   24 1    
    28   15   17 1    
    29   17   18 1    
    30   17   19 1    
    31   17   20 1    
    32   20   21 1    
    33   20   42 1    
    34   20   43 1    
    35   21   22 1    
    36   22   23 1    
    37   22   24 1    
    38   22   25 1    
    39   25   29 1    
    40   25   26 2    
    41   26   27 1    
    42   26   44 1    
    43   27   28 2    
    44   27   45 1    
    45   28   29 1    
    46   28   46 1    
    47   30   47 1    
    48   31   32 am   BACKBONE|DICT|INTERRES
    49   31   48 1    
    50   32   33 2    
    51   32   34 1    
    52   34   49 1    
    53   34   50 1    
    54   34   51 1    
@<TRIPOS>SUBSTRUCTURE
     1 UNK         1 GROUP             0       ****    0 ROOT    
