ZINC43552709_2532
                    3D
 Schrodinger Suite 2024-2.
 43 44  0  0  1  0            999 V2000
    6.5633   54.4583   28.0340 C   0  0  0  0  0  0
    5.4578   53.6556   27.3261 C   0  0  1  0  0  0
    5.8139   52.6294   27.2162 H   0  0  0  0  0  0
    4.2125   53.6082   28.2188 C   0  0  0  0  0  0
    4.1199   52.6209   29.2051 C   0  0  0  0  0  0
    2.9647   52.4967   29.9697 C   0  0  0  0  0  0
    1.8936   53.3630   29.7487 C   0  0  0  0  0  0
    1.9897   54.3770   28.7963 C   0  0  0  0  0  0
    3.1448   54.4965   28.0312 C   0  0  0  0  0  0
    0.3524   53.1587   30.6263 S   0  0  0  0  0  0
   -0.0944   54.4967   31.0209 O   0  0  0  0  0  0
   -0.4914   52.3050   29.7875 O   0  0  0  0  0  0
    0.7044   52.2704   32.0817 N   0  0  0  0  0  0
    5.1349   54.0967   25.9587 N   0  0  0  0  0  0
    5.9619   54.4969   24.9797 C   0  0  0  0  0  0
    7.0330   55.0697   25.1753 O   0  0  0  0  0  0
    5.4368   54.1760   23.7807 N   0  0  0  0  0  0
    5.8569   54.4967   22.4706 C   0  0  0  0  0  0
    6.9559   55.3280   22.1958 C   0  0  0  0  0  0
    7.3009   55.6521   20.8851 C   0  0  0  0  0  0
    6.5483   55.1551   19.8261 C   0  0  0  0  0  0
    5.4593   54.3236   20.0772 C   0  0  0  0  0  0
    5.1044   53.9886   21.3903 C   0  0  0  0  0  0
    3.7237   52.8955   21.6817 S   0  0  0  0  0  0
    3.2701   52.0633   20.1326 C   0  0  0  0  0  0
    2.4906   51.0102   20.3726 F   0  0  0  0  0  0
    2.6393   52.8917   19.3019 F   0  0  0  0  0  0
    6.7250   54.0980   29.0503 H   0  0  0  0  0  0
    7.5218   54.3702   27.5259 H   0  0  0  0  0  0
    6.3044   55.5160   28.0817 H   0  0  0  0  0  0
    4.9366   51.9311   29.3604 H   0  0  0  0  0  0
    2.9023   51.7177   30.7124 H   0  0  0  0  0  0
    1.1611   55.0509   28.6275 H   0  0  0  0  0  0
    3.1977   55.2739   27.2836 H   0  0  0  0  0  0
   -0.1941   52.1498   32.5995 H   0  0  0  0  0  0
    0.9629   51.3106   31.8598 H   0  0  0  0  0  0
    4.2034   53.8419   25.6690 H   0  0  0  0  0  0
    4.5886   53.6303   23.7965 H   0  0  0  0  0  0
    7.5513   55.7529   22.9852 H   0  0  0  0  0  0
    8.1592   56.2779   20.6900 H   0  0  0  0  0  0
    6.8145   55.4031   18.8087 H   0  0  0  0  0  0
    4.8982   53.9502   19.2347 H   0  0  0  0  0  0
    4.1615   51.6967   19.6246 H   0  0  0  0  0  0
  1  2  1  0  0  0
  1 28  1  0  0  0
  1 29  1  0  0  0
  1 30  1  0  0  0
  2  3  1  0  0  0
  2  4  1  0  0  0
  2 14  1  0  0  0
  4  9  2  0  0  0
  4  5  1  0  0  0
  5  6  2  0  0  0
  5 31  1  0  0  0
  6  7  1  0  0  0
  6 32  1  0  0  0
  7  8  2  0  0  0
  7 10  1  0  0  0
  8  9  1  0  0  0
  8 33  1  0  0  0
  9 34  1  0  0  0
 10 11  2  0  0  0
 10 12  2  0  0  0
 10 13  1  0  0  0
 13 35  1  0  0  0
 13 36  1  0  0  0
 14 15  1  0  0  0
 14 37  1  0  0  0
 15 16  2  0  0  0
 15 17  1  0  0  0
 17 18  1  0  0  0
 17 38  1  0  0  0
 18 23  2  0  0  0
 18 19  1  0  0  0
 19 20  2  0  0  0
 19 39  1  0  0  0
 20 21  1  0  0  0
 20 40  1  0  0  0
 21 22  2  0  0  0
 21 41  1  0  0  0
 22 23  1  0  0  0
 22 42  1  0  0  0
 23 24  1  0  0  0
 24 25  1  0  0  0
 25 26  1  0  0  0
 25 27  1  0  0  0
 25 43  1  0  0  0
M  END
> <i_i_glide_confnum>
25

> <i_i_glide_lignum>
2533

> <i_i_glide_posenum>
187

> <i_i_glide_rotatable_bonds>
8

> <i_m_Source_File_Index>
3713

> <b_m_subgroup_collapsed>
0

> <r_i_docking_score>
-5.47692

> <r_i_glide_ecoul>
-5.49435

> <r_i_glide_eff_state_penalty>
0

> <r_i_glide_einternal>
6.4854

> <r_i_glide_emodel>
-60.8169

> <r_i_glide_energy>
-51.3535

> <r_i_glide_erotb>
0.730217

> <r_i_glide_esite>
-0.188697

> <r_i_glide_evdw>
-45.8592

> <r_i_glide_gscore>
-5.47692

> <r_i_glide_hbond>
-0.456

> <r_i_glide_ligand_efficiency>
-0.210651

> <r_i_glide_ligand_efficiency_ln>
-1.28624

> <r_i_glide_ligand_efficiency_sa>
-0.624052

> <r_i_glide_lipo>
-2.42377

> <r_i_glide_metal>
0

> <r_i_glide_rewards>
-0.0215606

> <s_i_glide_gridfile>
wee1_glide-grid

> <s_m_Source_File>
wee1_decoys_glide_SP.sdf

> <s_m_Source_Path>
/Users/zhangxujun/Desktop

> <s_m_entry_id>
3988

> <s_m_entry_name>
wee1_decoys_glide_SP.3713

> <s_m_subgroup_title>
wee1_decoys_glide_SP

> <s_m_subgroupid>
wee1_decoys_glide_SP


$$$$
