@<TRIPOS>MOLECULE
ZINC14275800_5983
54   57    1
SMALL
USER_CHARGES


@<TRIPOS>ATOM
      1 C1         -0.1101   48.6355   25.6812 C.3       1 UNK         0.0000 
      2 C2          0.3263   49.8761   24.9154 C.ar      1 UNK         0.0000 
      3 C3          0.9036   49.7084   23.6496 C.ar      1 UNK         0.0000 
      4 C4          1.3833   50.8374   22.9737 C.ar      1 UNK         0.0000 
      5 C5          1.1936   52.1274   23.5157 C.ar      1 UNK         0.0000 
      6 C6          0.5406   52.2990   24.7377 C.ar      1 UNK         0.0000 
      7 C7          0.1982   51.1590   25.4778 C.ar      1 UNK         0.0000 
      8 N8         -0.2251   51.2999   26.8176 N.pl3     1 UNK         0.0000 
      9 C9          0.3313   52.0697   27.8024 C.2       1 UNK         0.0000 
     10 S10        -0.4353   52.0965   29.2835 S.2       1 UNK         0.0000 
     11 N11         1.5092   52.6981   27.4830 N.am      1 UNK         0.0000 
     12 C12         2.1473   53.7743   28.0022 C.2       1 UNK         0.0000 
     13 O13         1.7527   54.4610   28.9490 O.2       1 UNK         0.0000 
     14 C14         3.4192   54.1364   27.2743 C.ar      1 UNK         0.0000 
     15 C15         3.4347   54.1384   25.8702 C.ar      1 UNK         0.0000 
     16 C16         4.5754   54.5006   25.1658 C.ar      1 UNK         0.0000 
     17 C17         5.7279   54.8630   25.8503 C.ar      1 UNK         0.0000 
     18 C18         5.7540   54.8267   27.2422 C.ar      1 UNK         0.0000 
     19 C19         4.6056   54.4755   27.9574 C.ar      1 UNK         0.0000 
     20 Cl20        4.7044   54.4976   29.6817 Cl        1 UNK         0.0000 
     21 Cl21        7.1045   55.3871   24.9618 Cl        1 UNK         0.0000 
     22 N22         1.7677   53.0553   22.7086 N.2       1 UNK         0.0000 
     23 N23         2.3048   52.2762   21.7405 N.pl3     1 UNK         0.0000 
     24 N24         2.0748   50.9408   21.8059 N.2       1 UNK         0.0000 
     25 C25         3.1287   52.8375   20.7353 C.ar      1 UNK         0.0000 
     26 C26         3.1052   52.3260   19.4320 C.ar      1 UNK         0.0000 
     27 C27         3.9085   52.8965   18.4485 C.ar      1 UNK         0.0000 
     28 C28         4.7606   53.9623   18.7575 C.ar      1 UNK         0.0000 
     29 C29         4.7895   54.4678   20.0602 C.ar      1 UNK         0.0000 
     30 C30         3.9721   53.9148   21.0404 C.ar      1 UNK         0.0000 
     31 C31         5.6748   54.5448   17.6778 C.3       1 UNK         0.0000 
     32 C32         7.1366   54.1102   17.8930 C.3       1 UNK         0.0000 
     33 C33         5.5447   56.0758   17.5483 C.3       1 UNK         0.0000 
     34 H34        -0.0665   47.7309   25.0748 H         1 UNK         0.0000 
     35 H35         0.5223   48.4981   26.5586 H         1 UNK         0.0000 
     36 H36        -1.1355   48.7459   26.0391 H         1 UNK         0.0000 
     37 H37         1.0440   48.7231   23.2315 H         1 UNK         0.0000 
     38 H38         0.3999   53.2917   25.1410 H         1 UNK         0.0000 
     39 H39        -1.0026   50.7152   27.0938 H         1 UNK         0.0000 
     40 H40         1.9933   52.2835   26.7004 H         1 UNK         0.0000 
     41 H41         2.5518   53.8986   25.3005 H         1 UNK         0.0000 
     42 H42         4.5608   54.5257   24.0887 H         1 UNK         0.0000 
     43 H43         6.6551   55.1041   27.7722 H         1 UNK         0.0000 
     44 H44         2.4738   51.4874   19.1699 H         1 UNK         0.0000 
     45 H45         3.8949   52.4734   17.4535 H         1 UNK         0.0000 
     46 H46         5.4444   55.2901   20.3142 H         1 UNK         0.0000 
     47 H47         3.9986   54.3352   22.0323 H         1 UNK         0.0000 
     48 H48         5.3579   54.1293   16.7194 H         1 UNK         0.0000 
     49 H49         7.2184   53.0224   17.9419 H         1 UNK         0.0000 
     50 H50         7.5442   54.5133   18.8220 H         1 UNK         0.0000 
     51 H51         7.7749   54.4496   17.0751 H         1 UNK         0.0000 
     52 H52         4.5048   56.3751   17.4103 H         1 UNK         0.0000 
     53 H53         5.9239   56.5955   18.4273 H         1 UNK         0.0000 
     54 H54         6.1043   56.4434   16.6879 H         1 UNK         0.0000 
@<TRIPOS>BOND
     1    1    2 1    
     2    1   34 1    
     3    1   35 1    
     4    1   36 1    
     5    2    7 ar   
     6    2    3 ar   
     7    3    4 ar   
     8    3   37 1    
     9    4   24 ar   
    10    4    5 ar   
    11    5    6 ar   
    12    5   22 ar   
    13    6    7 ar   
    14    6   38 1    
    15    7    8 1    
    16    8    9 1    
    17    8   39 1    
    18    9   10 2    
    19    9   11 am   BACKBONE|DICT|INTERRES
    20   11   12 am   BACKBONE|DICT|INTERRES
    21   11   40 1    
    22   12   13 2    
    23   12   14 1    
    24   14   19 ar   
    25   14   15 ar   
    26   15   16 ar   
    27   15   41 1    
    28   16   17 ar   
    29   16   42 1    
    30   17   18 ar   
    31   17   21 1    
    32   18   19 ar   
    33   18   43 1    
    34   19   20 1    
    35   22   23 ar   
    36   23   24 ar   
    37   23   25 1    
    38   25   30 ar   
    39   25   26 ar   
    40   26   27 ar   
    41   26   44 1    
    42   27   28 ar   
    43   27   45 1    
    44   28   29 ar   
    45   28   31 1    
    46   29   30 ar   
    47   29   46 1    
    48   30   47 1    
    49   31   32 1    
    50   31   33 1    
    51   31   48 1    
    52   32   49 1    
    53   32   50 1    
    54   32   51 1    
    55   33   52 1    
    56   33   53 1    
    57   33   54 1    
@<TRIPOS>SUBSTRUCTURE
     1 UNK         1 GROUP             0       ****    0 ROOT    
