@<TRIPOS>MOLECULE
ZINC14273351_2345
47   49    1
SMALL
USER_CHARGES


@<TRIPOS>ATOM
      1 C1          3.7244   54.1928   24.5220 C.3       1 UNK         0.0000 
      2 C2          3.2388   53.9652   25.9565 C.ar      1 UNK         0.0000 
      3 C3          4.1164   54.1593   27.0353 C.ar      1 UNK         0.0000 
      4 C4          3.6552   54.0303   28.3568 C.ar      1 UNK         0.0000 
      5 C5          2.3053   53.7204   28.5978 C.ar      1 UNK         0.0000 
      6 C6          1.4302   53.5000   27.5268 C.ar      1 UNK         0.0000 
      7 C7          1.9044   53.6042   26.2078 C.ar      1 UNK         0.0000 
      8 Cl8         0.8178   53.2996   24.8843 Cl        1 UNK         0.0000 
      9 O9          0.0771   53.2950   27.7638 O.3       1 UNK         0.0000 
     10 C10        -0.4141   51.9893   28.1388 C.3       1 UNK         0.0000 
     11 C11        -0.0433   50.9184   27.1046 C.2       1 UNK         0.0000 
     12 O12         1.1043   50.4978   27.1177 O.2       1 UNK         0.0000 
     13 N13        -0.9993   50.4993   26.2500 N.am      1 UNK         0.0000 
     14 C14        -0.8198   49.8147   25.0415 C.2       1 UNK         0.0000 
     15 C15        -1.8150   49.1427   24.2964 C.2       1 UNK         0.0000 
     16 C16        -1.3739   48.8759   22.9630 C.2       1 UNK         0.0000 
     17 C17        -0.0264   49.2163   22.7636 C.2       1 UNK         0.0000 
     18 S18         0.7043   49.8523   24.1886 S.3       1 UNK         0.0000 
     19 C19         0.7328   49.1474   21.4413 C.3       1 UNK         0.0000 
     20 C20        -0.0800   48.3607   20.3895 C.3       1 UNK         0.0000 
     21 C21        -1.5782   48.6921   20.4425 C.3       1 UNK         0.0000 
     22 C22        -2.2124   48.3197   21.8009 C.3       1 UNK         0.0000 
     23 C23        -3.1662   48.8817   24.7775 C.2       1 UNK         0.0000 
     24 O24        -4.1508   48.8750   24.0453 O.2       1 UNK         0.0000 
     25 N25        -3.2905   48.6266   26.0822 N.am      1 UNK         0.0000 
     26 Cl26        1.6850   53.6526   30.2171 Cl        1 UNK         0.0000 
     27 C27         4.6292   54.2357   29.5146 C.3       1 UNK         0.0000 
     28 Cl28        5.7788   54.5806   26.7355 Cl        1 UNK         0.0000 
     29 H29         4.4507   55.0031   24.4718 H         1 UNK         0.0000 
     30 H30         4.1938   53.2968   24.1208 H         1 UNK         0.0000 
     31 H31         2.9235   54.5027   23.8513 H         1 UNK         0.0000 
     32 H32        -1.4982   52.0491   28.2349 H         1 UNK         0.0000 
     33 H33        -0.0440   51.6926   29.1212 H         1 UNK         0.0000 
     34 H34        -1.9576   50.6454   26.5306 H         1 UNK         0.0000 
     35 H35         1.7209   48.7009   21.5657 H         1 UNK         0.0000 
     36 H36         0.8909   50.1609   21.0693 H         1 UNK         0.0000 
     37 H37         0.0571   47.2866   20.5141 H         1 UNK         0.0000 
     38 H38         0.3130   48.5838   19.3961 H         1 UNK         0.0000 
     39 H39        -2.1021   48.1723   19.6399 H         1 UNK         0.0000 
     40 H40        -1.7206   49.7573   20.2519 H         1 UNK         0.0000 
     41 H41        -3.2313   48.7019   21.8026 H         1 UNK         0.0000 
     42 H42        -2.2935   47.2362   21.8916 H         1 UNK         0.0000 
     43 H43        -2.4825   48.4986   26.6910 H         1 UNK         0.0000 
     44 H44        -4.2096   48.4514   26.4568 H         1 UNK         0.0000 
     45 H45         4.8207   55.2950   29.6811 H         1 UNK         0.0000 
     46 H46         4.3037   53.7758   30.4461 H         1 UNK         0.0000 
     47 H47         5.5830   53.7641   29.2809 H         1 UNK         0.0000 
@<TRIPOS>BOND
     1    1    2 1    
     2    1   29 1    
     3    1   30 1    
     4    1   31 1    
     5    2    7 ar   
     6    2    3 ar   
     7    3    4 ar   
     8    3   28 1    
     9    4    5 ar   
    10    4   27 1    
    11    5    6 ar   
    12    5   26 1    
    13    6    7 ar   
    14    6    9 1    
    15    7    8 1    
    16    9   10 1    
    17   10   11 1    
    18   10   32 1    
    19   10   33 1    
    20   11   12 2    
    21   11   13 am   BACKBONE|DICT|INTERRES
    22   13   14 am   BACKBONE|DICT|INTERRES
    23   13   34 1    
    24   14   18 1    
    25   14   15 2    
    26   15   16 1    
    27   15   23 1    
    28   16   22 1    
    29   16   17 2    
    30   17   18 1    
    31   17   19 1    
    32   19   20 1    
    33   19   35 1    
    34   19   36 1    
    35   20   21 1    
    36   20   37 1    
    37   20   38 1    
    38   21   22 1    
    39   21   39 1    
    40   21   40 1    
    41   22   41 1    
    42   22   42 1    
    43   23   24 2    
    44   23   25 am   BACKBONE|DICT|INTERRES
    45   25   43 1    
    46   25   44 1    
    47   27   45 1    
    48   27   46 1    
    49   27   47 1    
@<TRIPOS>SUBSTRUCTURE
     1 UNK         1 GROUP             0       ****    0 ROOT    
