ZINC03023312_5174
                    3D
 Schrodinger Suite 2024-2.
 53 55  0  0  1  0            999 V2000
    6.3109   55.2156   24.8112 C   0  0  0  0  0  0
    5.9159   54.3405   26.0208 C   0  0  1  0  0  0
    6.0627   53.2967   25.7372 H   0  0  0  0  0  0
    6.8445   54.6221   27.2118 C   0  0  0  0  0  0
    6.5578   53.6949   28.3907 C   0  0  0  0  0  0
    5.1049   53.8606   28.8607 C   0  0  0  0  0  0
    4.1127   53.6125   27.7100 C   0  0  2  0  0  0
    4.1398   52.5590   27.4219 H   0  0  0  0  0  0
    4.4296   54.4969   26.4662 C   0  0  2  0  0  0
    4.3020   55.5366   26.7547 H   0  0  0  0  0  0
    3.4595   54.2382   25.3120 C   0  0  0  0  0  0
    2.7793   53.9777   28.2491 N   0  0  0  0  0  0
    1.8733   52.8243   29.2320 S   0  0  0  0  0  0
    1.2083   53.5965   30.2856 O   0  0  0  0  0  0
    2.7525   51.6981   29.5660 O   0  0  0  0  0  0
    0.5851   52.1748   28.1750 C   0  0  0  0  0  0
   -0.6204   51.7446   28.7302 C   0  0  0  0  0  0
   -1.6454   51.2969   27.8973 C   0  0  0  0  0  0
   -1.4810   51.2821   26.5116 C   0  0  0  0  0  0
   -0.2672   51.7012   25.9449 C   0  0  0  0  0  0
    0.7695   52.1171   26.7931 C   0  0  0  0  0  0
   -0.0676   51.7218   24.4534 C   0  0  0  0  0  0
   -0.9141   52.2219   23.7116 O   0  0  0  0  0  0
    1.1041   51.2031   24.0353 N   0  0  0  0  0  0
    1.6335   51.2755   22.7396 C   0  0  0  0  0  0
    2.0305   50.0731   22.1465 C   0  0  0  0  0  0
    2.6371   50.0757   20.8910 C   0  0  0  0  0  0
    2.8887   51.2771   20.2332 C   0  0  0  0  0  0
    2.5224   52.4819   20.8301 C   0  0  0  0  0  0
    1.8994   52.4941   22.0808 C   0  0  0  0  0  0
    1.5041   54.1925   22.8558 Br  0  0  0  0  0  0
   -2.5035   50.8508   25.7360 F   0  0  0  0  0  0
    6.0802   56.2678   24.9836 H   0  0  0  0  0  0
    7.3784   55.1431   24.5999 H   0  0  0  0  0  0
    5.7993   54.9039   23.9009 H   0  0  0  0  0  0
    6.7546   55.6663   27.5123 H   0  0  0  0  0  0
    7.8830   54.4964   26.9116 H   0  0  0  0  0  0
    7.2472   53.9059   29.2088 H   0  0  0  0  0  0
    6.7401   52.6630   28.0829 H   0  0  0  0  0  0
    4.9813   54.8669   29.2655 H   0  0  0  0  0  0
    4.8941   53.1756   29.6808 H   0  0  0  0  0  0
    3.5358   53.2175   24.9384 H   0  0  0  0  0  0
    2.4285   54.4119   25.6161 H   0  0  0  0  0  0
    3.6501   54.9121   24.4797 H   0  0  0  0  0  0
    2.6472   54.9629   28.4859 H   0  0  0  0  0  0
   -0.7682   51.7534   29.8022 H   0  0  0  0  0  0
   -2.5687   50.9442   28.3323 H   0  0  0  0  0  0
    1.7135   52.4325   26.3786 H   0  0  0  0  0  0
    1.5860   50.5986   24.6826 H   0  0  0  0  0  0
    1.8669   49.1309   22.6523 H   0  0  0  0  0  0
    2.9276   49.1440   20.4267 H   0  0  0  0  0  0
    3.3797   51.2726   19.2686 H   0  0  0  0  0  0
    2.7350   53.4109   20.3240 H   0  0  0  0  0  0
  1  2  1  0  0  0
  1 33  1  0  0  0
  1 34  1  0  0  0
  1 35  1  0  0  0
  2  3  1  0  0  0
  2  9  1  0  0  0
  2  4  1  0  0  0
  4  5  1  0  0  0
  4 36  1  0  0  0
  4 37  1  0  0  0
  5  6  1  0  0  0
  5 38  1  0  0  0
  5 39  1  0  0  0
  6  7  1  0  0  0
  6 40  1  0  0  0
  6 41  1  0  0  0
  7  8  1  0  0  0
  7  9  1  0  0  0
  7 12  1  0  0  0
  9 10  1  0  0  0
  9 11  1  0  0  0
 11 42  1  0  0  0
 11 43  1  0  0  0
 11 44  1  0  0  0
 12 13  1  0  0  0
 12 45  1  0  0  0
 13 14  2  0  0  0
 13 15  2  0  0  0
 13 16  1  0  0  0
 16 21  2  0  0  0
 16 17  1  0  0  0
 17 18  2  0  0  0
 17 46  1  0  0  0
 18 19  1  0  0  0
 18 47  1  0  0  0
 19 20  2  0  0  0
 19 32  1  0  0  0
 20 21  1  0  0  0
 20 22  1  0  0  0
 21 48  1  0  0  0
 22 23  2  0  0  0
 22 24  1  0  0  0
 24 25  1  0  0  0
 24 49  1  0  0  0
 25 30  2  0  0  0
 25 26  1  0  0  0
 26 27  2  0  0  0
 26 50  1  0  0  0
 27 28  1  0  0  0
 27 51  1  0  0  0
 28 29  2  0  0  0
 28 52  1  0  0  0
 29 30  1  0  0  0
 29 53  1  0  0  0
 30 31  1  0  0  0
M  END
> <i_i_glide_confnum>
12

> <i_i_glide_lignum>
5175

> <i_i_glide_posenum>
187

> <i_i_glide_rotatable_bonds>
6

> <i_m_Source_File_Index>
842

> <b_m_subgroup_collapsed>
0

> <r_i_docking_score>
-5.41387

> <r_i_glide_ecoul>
-6.46107

> <r_i_glide_eff_state_penalty>
0

> <r_i_glide_einternal>
10.2995

> <r_i_glide_emodel>
-63.05

> <r_i_glide_energy>
-52.0373

> <r_i_glide_erotb>
0.521257

> <r_i_glide_esite>
-0.0327066

> <r_i_glide_evdw>
-45.5763

> <r_i_glide_gscore>
-5.41387

> <r_i_glide_hbond>
0

> <r_i_glide_ligand_efficiency>
-0.186685

> <r_i_glide_ligand_efficiency_ln>
-1.23964

> <r_i_glide_ligand_efficiency_sa>
-0.573556

> <r_i_glide_lipo>
-2.7252

> <r_i_glide_metal>
0

> <r_i_glide_rewards>
0.0707463

> <s_i_glide_gridfile>
wee1_glide-grid

> <s_m_Source_File>
wee1_decoys_glide_SP.sdf

> <s_m_Source_Path>
/Users/zhangxujun/Desktop

> <s_m_entry_id>
1117

> <s_m_entry_name>
wee1_decoys_glide_SP.842

> <s_m_subgroup_title>
wee1_decoys_glide_SP

> <s_m_subgroupid>
wee1_decoys_glide_SP


$$$$
