ZINC65441300_244
                    3D
 Schrodinger Suite 2024-2.
 55 58  0  0  1  0            999 V2000
    3.3038   58.4764   13.4842 C   0  0  0  0  0  0
    3.2150   59.4611   14.6682 C   0  0  0  0  0  0
    1.7809   59.9146   14.9824 C   0  0  0  0  0  0
    3.8441   58.8966   15.9636 N   0  3  1  0  0  0
    3.2724   57.5962   16.5623 C   0  0  0  0  0  0
    4.4388   56.9735   17.3473 C   0  0  0  0  0  0
    5.6214   57.9506   17.2576 C   0  0  2  0  0  0
    5.3688   58.7200   15.9616 C   0  0  0  0  0  0
    7.0369   57.3227   17.3240 C   0  0  0  0  0  0
    7.2029   56.2518   18.3105 N   0  0  0  0  0  0
    7.1457   56.4271   19.6386 C   0  0  0  0  0  0
    6.7043   57.4393   20.1789 O   0  0  0  0  0  0
    7.6367   55.3818   20.3177 N   0  0  0  0  0  0
    7.5109   55.2043   21.7679 C   0  0  0  0  0  0
    6.1344   54.7249   22.1849 C   0  0  0  0  0  0
    4.9801   54.3663   21.5029 C   0  0  0  0  0  0
    4.0197   54.0644   22.4645 C   0  0  0  0  0  0
    4.6198   54.2306   23.7051 C   0  0  0  0  0  0
    5.9117   54.6203   23.5221 O   0  0  0  0  0  0
    4.1364   54.0976   25.0685 C   0  0  0  0  0  0
    4.8933   54.2531   26.1228 N   0  0  0  0  0  0
    4.1998   54.0283   27.2715 C   0  0  0  0  0  0
    4.7402   54.0951   28.5638 C   0  0  0  0  0  0
    3.9037   53.8163   29.6458 C   0  0  0  0  0  0
    2.5606   53.4878   29.4619 C   0  0  0  0  0  0
    1.9968   53.4255   28.1879 C   0  0  0  0  0  0
    2.8293   53.6964   27.0939 C   0  0  0  0  0  0
    2.4612   53.6929   25.3773 S   0  0  0  0  0  0
    2.9201   58.9447   12.5763 H   0  0  0  0  0  0
    2.7145   57.5730   13.6421 H   0  0  0  0  0  0
    4.3305   58.1783   13.2704 H   0  0  0  0  0  0
    3.8284   60.3444   14.4708 H   0  0  0  0  0  0
    1.3333   60.4181   14.1253 H   0  0  0  0  0  0
    1.1364   59.0753   15.2464 H   0  0  0  0  0  0
    1.7670   60.6196   15.8162 H   0  0  0  0  0  0
    2.4162   57.8912   17.1695 H   0  0  0  0  0  0
    2.9569   56.9447   15.7481 H   0  0  0  0  0  0
    4.1819   56.7315   18.3800 H   0  0  0  0  0  0
    4.6912   56.0381   16.8423 H   0  0  0  0  0  0
    5.5252   58.6947   18.0532 H   0  0  0  0  0  0
    5.6661   58.1768   15.0643 H   0  0  0  0  0  0
    5.8341   59.7092   15.9176 H   0  0  0  0  0  0
    7.3117   56.9172   16.3492 H   0  0  0  0  0  0
    7.7723   58.1053   17.5266 H   0  0  0  0  0  0
    7.3868   55.3277   17.9505 H   0  0  0  0  0  0
    8.2344   54.7310   19.8316 H   0  0  0  0  0  0
    8.2760   54.4968   22.0815 H   0  0  0  0  0  0
    7.7587   56.1342   22.2784 H   0  0  0  0  0  0
    4.8434   54.3470   20.4317 H   0  0  0  0  0  0
    2.9980   53.7668   22.2783 H   0  0  0  0  0  0
    5.7793   54.3496   28.7187 H   0  0  0  0  0  0
    4.3037   53.8502   30.6474 H   0  0  0  0  0  0
    1.9405   53.2722   30.3214 H   0  0  0  0  0  0
    0.9561   53.1653   28.0507 H   0  0  0  0  0  0
    3.6979   59.6432   16.6369 H   0  0  0  0  0  0
  1  2  1  0  0  0
  1 29  1  0  0  0
  1 30  1  0  0  0
  1 31  1  0  0  0
  2  3  1  0  0  0
  2  4  1  0  0  0
  2 32  1  0  0  0
  3 33  1  0  0  0
  3 34  1  0  0  0
  3 35  1  0  0  0
  4  8  1  0  0  0
  4  5  1  0  0  0
  4 55  1  0  0  0
  5  6  1  0  0  0
  5 36  1  0  0  0
  5 37  1  0  0  0
  6  7  1  0  0  0
  6 38  1  0  0  0
  6 39  1  0  0  0
  7  8  1  0  0  0
  7  9  1  0  0  0
  7 40  1  0  0  0
  8 41  1  0  0  0
  8 42  1  0  0  0
  9 10  1  0  0  0
  9 43  1  0  0  0
  9 44  1  0  0  0
 10 11  1  0  0  0
 10 45  1  0  0  0
 11 12  2  0  0  0
 11 13  1  0  0  0
 13 14  1  0  0  0
 13 46  1  0  0  0
 14 15  1  0  0  0
 14 47  1  0  0  0
 14 48  1  0  0  0
 15 19  1  0  0  0
 15 16  2  0  0  0
 16 17  1  0  0  0
 16 49  1  0  0  0
 17 18  2  0  0  0
 17 50  1  0  0  0
 18 19  1  0  0  0
 18 20  1  0  0  0
 20 28  1  0  0  0
 20 21  2  0  0  0
 21 22  1  0  0  0
 22 27  2  0  0  0
 22 23  1  0  0  0
 23 24  2  0  0  0
 23 51  1  0  0  0
 24 25  1  0  0  0
 24 52  1  0  0  0
 25 26  2  0  0  0
 25 53  1  0  0  0
 26 27  1  0  0  0
 26 54  1  0  0  0
 27 28  1  0  0  0
M  CHG  1   4   1
M  END
> <i_i_glide_confnum>
63

> <i_i_glide_lignum>
245

> <i_i_glide_posenum>
269

> <i_i_glide_rotatable_bonds>
8

> <i_m_Source_File_Index>
466

> <b_m_subgroup_collapsed>
0

> <r_i_docking_score>
-5.71728

> <r_i_glide_ecoul>
-8.58324

> <r_i_glide_eff_state_penalty>
0

> <r_i_glide_einternal>
10.2689

> <r_i_glide_emodel>
-57.9499

> <r_i_glide_energy>
-44.2983

> <r_i_glide_erotb>
0.859314

> <r_i_glide_esite>
-0.108076

> <r_i_glide_evdw>
-35.715

> <r_i_glide_gscore>
-5.71728

> <r_i_glide_hbond>
-0.450189

> <r_i_glide_ligand_efficiency>
-0.204188

> <r_i_glide_ligand_efficiency_ln>
-1.31972

> <r_i_glide_ligand_efficiency_sa>
-0.620036

> <r_i_glide_lipo>
-2.20993

> <r_i_glide_metal>
0

> <r_i_glide_rewards>
-0.735157

> <s_i_glide_gridfile>
wee1_glide-grid

> <s_m_Source_File>
wee1_decoys_glide_SP.sdf

> <s_m_Source_Path>
/Users/zhangxujun/Desktop

> <s_m_entry_id>
741

> <s_m_entry_name>
wee1_decoys_glide_SP.466

> <s_m_subgroup_title>
wee1_decoys_glide_SP

> <s_m_subgroupid>
wee1_decoys_glide_SP


$$$$
