ZINC34791046_3981
                    3D
 Schrodinger Suite 2024-2.
 69 72  0  0  1  0            999 V2000
   -1.9298   48.6328   20.3021 C   0  0  0  0  0  0
   -0.7573   48.1960   21.1978 C   0  0  0  0  0  0
    0.4221   49.0732   21.0642 N   0  0  0  0  0  0
    0.5802   50.1062   21.9495 C   0  0  0  0  0  0
    1.6219   50.9456   21.9366 C   0  0  0  0  0  0
    2.7490   50.7328   20.9108 C   0  0  1  0  0  0
    3.5416   50.2147   21.4493 H   0  0  0  0  0  0
    2.3058   49.7266   19.9031 N   0  0  0  0  0  0
    1.3322   48.7921   20.0746 C   0  0  0  0  0  0
    1.3745   47.7463   19.4249 O   0  0  0  0  0  0
    3.4065   52.0074   20.3696 C   0  0  0  0  0  0
    4.4130   52.6376   21.1082 C   0  0  0  0  0  0
    5.0494   53.7709   20.6112 C   0  0  0  0  0  0
    4.7098   54.2704   19.3497 C   0  0  0  0  0  0
    3.7239   53.6248   18.5968 C   0  0  0  0  0  0
    3.0769   52.5000   19.1025 C   0  0  0  0  0  0
    5.4062   55.5111   18.7908 C   0  0  0  0  0  0
    6.3969   55.1268   17.9866 F   0  0  0  0  0  0
    4.5562   56.2634   18.0889 F   0  0  0  0  0  0
    5.9252   56.2701   19.7596 F   0  0  0  0  0  0
    1.4734   51.9404   22.9865 C   0  0  0  0  0  0
    2.2544   52.8483   23.2723 O   0  0  0  0  0  0
    0.2958   51.6748   23.6071 N   0  0  0  0  0  0
   -0.3137   50.4722   23.0879 C   0  0  0  0  0  0
   -0.1412   52.4438   24.7963 C   0  0  1  0  0  0
    0.2618   53.4544   24.6948 H   0  0  0  0  0  0
   -1.6927   52.5837   24.9760 C   0  0  0  0  0  0
   -2.3403   53.2944   23.7766 C   0  0  0  0  0  0
   -2.5060   51.3395   25.4046 C   0  0  0  0  0  0
    0.4676   51.8616   26.0972 C   0  0  0  0  0  0
    0.3345   50.6675   26.3706 O   0  0  0  0  0  0
    1.1447   52.7354   26.8587 N   0  0  0  0  0  0
    1.8263   52.4275   28.1196 C   0  0  0  0  0  0
    3.2688   52.9943   28.1130 C   0  0  0  0  0  0
    3.3079   54.5369   28.0120 C   0  0  0  0  0  0
    2.4858   55.1966   29.1389 C   0  0  0  0  0  0
    1.0648   54.6056   29.2608 C   0  0  0  0  0  0
    1.0910   53.0605   29.3269 C   0  0  0  0  0  0
   -2.7859   47.9711   20.4366 H   0  0  0  0  0  0
   -2.2589   49.6461   20.5411 H   0  0  0  0  0  0
   -1.6559   48.5984   19.2456 H   0  0  0  0  0  0
   -0.4963   47.1672   20.9385 H   0  0  0  0  0  0
   -1.0848   48.1489   22.2378 H   0  0  0  0  0  0
    2.9215   49.5662   19.1161 H   0  0  0  0  0  0
    4.6924   52.2589   22.0802 H   0  0  0  0  0  0
    5.8113   54.2516   21.2076 H   0  0  0  0  0  0
    3.4536   53.9917   17.6166 H   0  0  0  0  0  0
    2.3243   52.0117   18.5010 H   0  0  0  0  0  0
   -0.3483   49.6887   23.8460 H   0  0  0  0  0  0
   -1.3323   50.6492   22.7481 H   0  0  0  0  0  0
   -1.8246   53.2806   25.8058 H   0  0  0  0  0  0
   -2.2187   52.7360   22.8489 H   0  0  0  0  0  0
   -3.4090   53.4466   23.9322 H   0  0  0  0  0  0
   -1.8904   54.2754   23.6397 H   0  0  0  0  0  0
   -2.4197   50.5123   24.7034 H   0  0  0  0  0  0
   -2.2095   50.9695   26.3861 H   0  0  0  0  0  0
   -3.5663   51.5817   25.4789 H   0  0  0  0  0  0
    1.1853   53.6983   26.5615 H   0  0  0  0  0  0
    1.8813   51.3443   28.2625 H   0  0  0  0  0  0
    3.8282   52.5629   27.2824 H   0  0  0  0  0  0
    3.7952   52.6750   29.0145 H   0  0  0  0  0  0
    2.9241   54.8569   27.0419 H   0  0  0  0  0  0
    4.3407   54.8859   28.0537 H   0  0  0  0  0  0
    2.4291   56.2749   28.9808 H   0  0  0  0  0  0
    3.0146   55.0594   30.0816 H   0  0  0  0  0  0
    0.4672   54.9184   28.4050 H   0  0  0  0  0  0
    0.5677   55.0099   30.1436 H   0  0  0  0  0  0
    1.5653   52.7414   30.2561 H   0  0  0  0  0  0
    0.0713   52.6749   29.3793 H   0  0  0  0  0  0
  1  2  1  0  0  0
  1 39  1  0  0  0
  1 40  1  0  0  0
  1 41  1  0  0  0
  2  3  1  0  0  0
  2 42  1  0  0  0
  2 43  1  0  0  0
  3  9  1  0  0  0
  3  4  1  0  0  0
  4 24  1  0  0  0
  4  5  2  0  0  0
  5  6  1  0  0  0
  5 21  1  0  0  0
  6  7  1  0  0  0
  6  8  1  0  0  0
  6 11  1  0  0  0
  8  9  1  0  0  0
  8 44  1  0  0  0
  9 10  2  0  0  0
 11 16  2  0  0  0
 11 12  1  0  0  0
 12 13  2  0  0  0
 12 45  1  0  0  0
 13 14  1  0  0  0
 13 46  1  0  0  0
 14 15  2  0  0  0
 14 17  1  0  0  0
 15 16  1  0  0  0
 15 47  1  0  0  0
 16 48  1  0  0  0
 17 18  1  0  0  0
 17 19  1  0  0  0
 17 20  1  0  0  0
 21 22  2  0  0  0
 21 23  1  0  0  0
 23 24  1  0  0  0
 23 25  1  0  0  0
 24 49  1  0  0  0
 24 50  1  0  0  0
 25 26  1  0  0  0
 25 27  1  0  0  0
 25 30  1  0  0  0
 27 28  1  0  0  0
 27 29  1  0  0  0
 27 51  1  0  0  0
 28 52  1  0  0  0
 28 53  1  0  0  0
 28 54  1  0  0  0
 29 55  1  0  0  0
 29 56  1  0  0  0
 29 57  1  0  0  0
 30 31  2  0  0  0
 30 32  1  0  0  0
 32 33  1  0  0  0
 32 58  1  0  0  0
 33 38  1  0  0  0
 33 34  1  0  0  0
 33 59  1  0  0  0
 34 35  1  0  0  0
 34 60  1  0  0  0
 34 61  1  0  0  0
 35 36  1  0  0  0
 35 62  1  0  0  0
 35 63  1  0  0  0
 36 37  1  0  0  0
 36 64  1  0  0  0
 36 65  1  0  0  0
 37 38  1  0  0  0
 37 66  1  0  0  0
 37 67  1  0  0  0
 38 68  1  0  0  0
 38 69  1  0  0  0
M  END
> <i_i_glide_confnum>
9

> <i_i_glide_lignum>
3982

> <i_i_glide_posenum>
397

> <i_i_glide_rotatable_bonds>
8

> <i_m_Source_File_Index>
5677

> <b_m_subgroup_collapsed>
0

> <r_i_docking_score>
-3.89667

> <r_i_glide_ecoul>
1.80623

> <r_i_glide_eff_state_penalty>
0

> <r_i_glide_einternal>
7.57726

> <r_i_glide_emodel>
-44.0794

> <r_i_glide_energy>
-38.3154

> <r_i_glide_erotb>
0.318949

> <r_i_glide_esite>
-0.0661293

> <r_i_glide_evdw>
-40.1216

> <r_i_glide_gscore>
-3.89667

> <r_i_glide_hbond>
0

> <r_i_glide_ligand_efficiency>
-0.108241

> <r_i_glide_ligand_efficiency_ln>
-0.850148

> <r_i_glide_ligand_efficiency_sa>
-0.357403

> <r_i_glide_lipo>
-1.83665

> <r_i_glide_metal>
0

> <r_i_glide_rewards>
-0.57769

> <s_i_glide_gridfile>
wee1_glide-grid

> <s_m_Source_File>
wee1_decoys_glide_SP.sdf

> <s_m_Source_Path>
/Users/zhangxujun/Desktop

> <s_m_entry_id>
5952

> <s_m_entry_name>
wee1_decoys_glide_SP.5677

> <s_m_subgroup_title>
wee1_decoys_glide_SP

> <s_m_subgroupid>
wee1_decoys_glide_SP


$$$$
