ZINC59317331_4457
                    3D
 Schrodinger Suite 2024-2.
 51 54  0  0  1  0            999 V2000
    5.7741   54.4963   26.7192 C   0  0  0  0  0  0
    4.3770   54.3070   27.3406 C   0  0  2  0  0  0
    4.0102   55.2968   27.5895 H   0  0  0  0  0  0
    4.4401   53.4707   28.6285 C   0  0  0  0  0  0
    3.0943   53.5271   29.3761 C   0  0  0  0  0  0
    1.9662   53.1154   28.4201 C   0  0  0  0  0  0
    2.1525   53.1655   27.0281 C   0  0  0  0  0  0
    0.8172   52.4868   26.1686 S   0  0  0  0  0  0
   -0.0499   52.2018   27.6539 C   0  0  0  0  0  0
    0.6966   52.5891   28.7899 C   0  0  0  0  0  0
    0.2126   52.5828   30.1691 C   0  0  0  0  0  0
    0.6289   53.3764   31.0083 O   0  0  0  0  0  0
   -0.7386   51.6969   30.4817 N   0  0  0  0  0  0
   -1.3455   51.6968   27.6766 N   0  0  0  0  0  0
   -2.1278   51.2100   26.6902 C   0  0  0  0  0  0
   -1.7987   51.1274   25.5075 O   0  0  0  0  0  0
   -3.5631   50.7939   27.0988 C   0  0  1  0  0  0
   -4.1983   51.5701   26.6669 H   0  0  0  0  0  0
   -4.0081   49.4185   26.6403 C   0  0  0  0  0  0
   -5.0155   48.9542   27.7005 C   0  0  0  0  0  0
   -5.7897   48.0095   27.5463 O   0  0  0  0  0  0
   -4.8946   49.7875   28.7767 N   0  0  0  0  0  0
   -3.7886   50.7276   28.6022 C   0  0  0  0  0  0
   -5.6376   49.7153   29.9804 C   0  0  0  0  0  0
   -6.9955   49.3567   29.9865 C   0  0  0  0  0  0
   -7.7397   49.4456   31.1613 C   0  0  0  0  0  0
   -7.1305   49.8806   32.3364 C   0  0  0  0  0  0
   -5.7718   50.1758   32.3568 C   0  0  0  0  0  0
   -5.0280   50.1003   31.1835 C   0  0  0  0  0  0
   -8.0697   50.0969   33.7679 Cl  0  0  0  0  0  0
    3.3950   53.6968   26.3114 C   0  0  0  0  0  0
    6.2227   53.5396   26.4464 H   0  0  0  0  0  0
    5.7265   55.1109   25.8190 H   0  0  0  0  0  0
    6.4523   54.9932   27.4154 H   0  0  0  0  0  0
    5.2101   53.8817   29.2815 H   0  0  0  0  0  0
    4.7697   52.4519   28.4183 H   0  0  0  0  0  0
    3.1400   52.8718   30.2467 H   0  0  0  0  0  0
    2.9109   54.5334   29.7554 H   0  0  0  0  0  0
   -0.8786   50.8629   29.9283 H   0  0  0  0  0  0
   -1.0948   51.6975   31.4444 H   0  0  0  0  0  0
   -1.7520   51.6658   28.5978 H   0  0  0  0  0  0
   -4.5687   49.4829   25.7074 H   0  0  0  0  0  0
   -3.1922   48.7034   26.5159 H   0  0  0  0  0  0
   -2.9530   50.2609   29.1305 H   0  0  0  0  0  0
   -3.9934   51.6983   29.0540 H   0  0  0  0  0  0
   -7.4979   49.0631   29.0768 H   0  0  0  0  0  0
   -8.7936   49.2084   31.1516 H   0  0  0  0  0  0
   -5.2968   50.4965   33.2736 H   0  0  0  0  0  0
   -3.9783   50.3562   31.2238 H   0  0  0  0  0  0
    3.1148   54.4588   25.5832 H   0  0  0  0  0  0
    3.8889   52.8966   25.7686 H   0  0  0  0  0  0
  1  2  1  0  0  0
  1 32  1  0  0  0
  1 33  1  0  0  0
  1 34  1  0  0  0
  2  3  1  0  0  0
  2 31  1  0  0  0
  2  4  1  0  0  0
  4  5  1  0  0  0
  4 35  1  0  0  0
  4 36  1  0  0  0
  5  6  1  0  0  0
  5 37  1  0  0  0
  5 38  1  0  0  0
  6 10  1  0  0  0
  6  7  2  0  0  0
  7  8  1  0  0  0
  7 31  1  0  0  0
  8  9  1  0  0  0
  9 10  2  0  0  0
  9 14  1  0  0  0
 10 11  1  0  0  0
 11 12  2  0  0  0
 11 13  1  0  0  0
 13 39  1  0  0  0
 13 40  1  0  0  0
 14 15  1  0  0  0
 14 41  1  0  0  0
 15 16  2  0  0  0
 15 17  1  0  0  0
 17 18  1  0  0  0
 17 23  1  0  0  0
 17 19  1  0  0  0
 19 20  1  0  0  0
 19 42  1  0  0  0
 19 43  1  0  0  0
 20 21  2  0  0  0
 20 22  1  0  0  0
 22 23  1  0  0  0
 22 24  1  0  0  0
 23 44  1  0  0  0
 23 45  1  0  0  0
 24 29  2  0  0  0
 24 25  1  0  0  0
 25 26  2  0  0  0
 25 46  1  0  0  0
 26 27  1  0  0  0
 26 47  1  0  0  0
 27 28  2  0  0  0
 27 30  1  0  0  0
 28 29  1  0  0  0
 28 48  1  0  0  0
 29 49  1  0  0  0
 31 50  1  0  0  0
 31 51  1  0  0  0
M  END
> <i_i_glide_confnum>
40

> <i_i_glide_lignum>
4458

> <i_i_glide_posenum>
361

> <i_i_glide_rotatable_bonds>
5

> <i_m_Source_File_Index>
4267

> <b_m_subgroup_collapsed>
0

> <r_i_docking_score>
-5.27653

> <r_i_glide_ecoul>
-6.611

> <r_i_glide_eff_state_penalty>
0

> <r_i_glide_einternal>
7.64317

> <r_i_glide_emodel>
-58.4157

> <r_i_glide_energy>
-45.9492

> <r_i_glide_erotb>
0.426527

> <r_i_glide_esite>
-0.332419

> <r_i_glide_evdw>
-39.3382

> <r_i_glide_gscore>
-5.27653

> <r_i_glide_hbond>
-0.16

> <r_i_glide_ligand_efficiency>
-0.181949

> <r_i_glide_ligand_efficiency_ln>
-1.20819

> <r_i_glide_ligand_efficiency_sa>
-0.559006

> <r_i_glide_lipo>
-1.73801

> <r_i_glide_metal>
0

> <r_i_glide_rewards>
-0.51407

> <s_i_glide_gridfile>
wee1_glide-grid

> <s_m_Source_File>
wee1_decoys_glide_SP.sdf

> <s_m_Source_Path>
/Users/zhangxujun/Desktop

> <s_m_entry_id>
4542

> <s_m_entry_name>
wee1_decoys_glide_SP.4267

> <s_m_subgroup_title>
wee1_decoys_glide_SP

> <s_m_subgroupid>
wee1_decoys_glide_SP


$$$$
