ZINC20542371_3820
                    3D
 Schrodinger Suite 2024-2.
 31 33  0  0  1  0            999 V2000
    0.4604   52.1711   29.4705 C   0  0  0  0  0  0
   -0.8494   51.6976   29.5505 C   0  0  0  0  0  0
   -1.5785   51.4680   28.3833 C   0  0  0  0  0  0
   -0.9982   51.6758   27.1359 C   0  0  0  0  0  0
    0.3109   52.1375   27.0520 C   0  0  0  0  0  0
    1.0394   52.4046   28.2139 C   0  0  0  0  0  0
    2.3319   52.9072   28.0043 N   0  0  0  0  0  0
    3.2408   53.4229   28.8601 C   0  0  0  0  0  0
    3.1045   53.4580   30.0818 O   0  0  0  0  0  0
    4.3713   53.9191   28.3034 N   0  0  0  0  0  0
    4.6816   54.0978   26.9535 C   0  0  0  0  0  0
    3.8713   53.9977   25.9218 N   0  0  0  0  0  0
    4.4712   54.2228   24.7664 C   0  0  0  0  0  0
    5.8246   54.5491   24.8735 C   0  0  0  0  0  0
    6.3084   54.5255   26.5466 S   0  0  0  0  0  0
    3.6387   54.0964   23.4939 C   0  0  0  0  0  0
    2.7039   52.9267   23.2806 C   0  0  0  0  0  0
    2.1385   54.3111   23.4967 C   0  0  0  0  0  0
   -3.3938   50.8966   28.4842 Br  0  0  0  0  0  0
    0.9964   52.3457   30.3901 H   0  0  0  0  0  0
   -1.2959   51.5086   30.5171 H   0  0  0  0  0  0
   -1.5655   51.4835   26.2367 H   0  0  0  0  0  0
    0.7455   52.3042   26.0764 H   0  0  0  0  0  0
    2.6055   52.9400   27.0332 H   0  0  0  0  0  0
    5.0936   54.1923   28.9518 H   0  0  0  0  0  0
    6.5301   54.7755   24.0892 H   0  0  0  0  0  0
    4.1660   54.4318   22.5994 H   0  0  0  0  0  0
    2.6575   52.4808   22.2860 H   0  0  0  0  0  0
    2.5922   52.1834   24.0716 H   0  0  0  0  0  0
    1.6259   54.5262   24.4341 H   0  0  0  0  0  0
    1.6879   54.8311   22.6526 H   0  0  0  0  0  0
  1  6  2  0  0  0
  1  2  1  0  0  0
  1 20  1  0  0  0
  2  3  2  0  0  0
  2 21  1  0  0  0
  3  4  1  0  0  0
  3 19  1  0  0  0
  4  5  2  0  0  0
  4 22  1  0  0  0
  5  6  1  0  0  0
  5 23  1  0  0  0
  6  7  1  0  0  0
  7  8  1  0  0  0
  7 24  1  0  0  0
  8  9  2  0  0  0
  8 10  1  0  0  0
 10 11  1  0  0  0
 10 25  1  0  0  0
 11 15  1  0  0  0
 11 12  2  0  0  0
 12 13  1  0  0  0
 13 14  2  0  0  0
 13 16  1  0  0  0
 14 15  1  0  0  0
 14 26  1  0  0  0
 16 18  1  0  0  0
 16 17  1  0  0  0
 16 27  1  0  0  0
 17 18  1  0  0  0
 17 28  1  0  0  0
 17 29  1  0  0  0
 18 30  1  0  0  0
 18 31  1  0  0  0
M  END
> <i_i_glide_confnum>
9

> <i_i_glide_lignum>
3821

> <i_i_glide_posenum>
250

> <i_i_glide_rotatable_bonds>
5

> <i_m_Source_File_Index>
592

> <b_m_subgroup_collapsed>
0

> <r_i_docking_score>
-4.55389

> <r_i_glide_ecoul>
-3.575

> <r_i_glide_eff_state_penalty>
0

> <r_i_glide_einternal>
5.71448

> <r_i_glide_emodel>
-46.1159

> <r_i_glide_energy>
-39.1199

> <r_i_glide_erotb>
0.661189

> <r_i_glide_esite>
0

> <r_i_glide_evdw>
-35.5449

> <r_i_glide_gscore>
-4.55389

> <r_i_glide_hbond>
-0.32

> <r_i_glide_ligand_efficiency>
-0.239679

> <r_i_glide_ligand_efficiency_ln>
-1.15451

> <r_i_glide_ligand_efficiency_sa>
-0.639559

> <r_i_glide_lipo>
-1.88663

> <r_i_glide_metal>
0

> <r_i_glide_rewards>
-0.69496

> <s_i_glide_gridfile>
wee1_glide-grid

> <s_m_Source_File>
wee1_decoys_glide_SP.sdf

> <s_m_Source_Path>
/Users/zhangxujun/Desktop

> <s_m_entry_id>
867

> <s_m_entry_name>
wee1_decoys_glide_SP.592

> <s_m_subgroup_title>
wee1_decoys_glide_SP

> <s_m_subgroupid>
wee1_decoys_glide_SP


$$$$
