ZINC36093611_773
                    3D
 Schrodinger Suite 2024-2.
 55 60  0  0  1  0            999 V2000
   13.3297   50.4409   15.3105 C   0  0  0  0  0  0
   12.2789   51.5208   15.6541 N   0  3  2  0  0  0
   12.8037   52.4498   16.7745 C   0  0  0  0  0  0
   11.8560   53.6707   16.9031 C   0  0  0  0  0  0
   10.3887   53.2375   16.8770 C   0  0  0  0  0  0
   10.0165   51.9427   16.4777 C   0  0  0  0  0  0
    8.3050   51.6971   16.5319 S   0  0  0  0  0  0
    8.0757   53.2894   17.1442 C   0  0  0  0  0  0
    9.2684   54.0100   17.2559 C   0  0  0  0  0  0
    9.1279   55.3936   17.6963 C   0  0  0  0  0  0
    8.0569   55.9270   18.1219 N   0  0  0  0  0  0
    6.8467   55.0817   18.2082 C   0  0  1  0  0  0
    6.0429   55.6625   17.7509 H   0  0  0  0  0  0
    6.8321   53.7932   17.4715 N   0  0  0  0  0  0
    6.3854   54.9178   19.6736 C   0  0  0  0  0  0
    7.1041   55.4691   20.7459 C   0  0  0  0  0  0
    6.6887   55.2668   22.0534 C   0  0  0  0  0  0
    5.5462   54.4967   22.3280 C   0  0  0  0  0  0
    4.8055   53.9810   21.2655 C   0  0  0  0  0  0
    5.2182   54.1908   19.9514 C   0  0  0  0  0  0
    5.0622   54.3065   23.6117 O   0  0  0  0  0  0
    5.8974   54.1028   24.6777 C   0  0  0  0  0  0
    7.1044   53.8757   24.5746 O   0  0  0  0  0  0
    5.2212   54.2350   26.0037 C   0  0  0  0  0  0
    6.0265   54.2944   27.1612 C   0  0  0  0  0  0
    5.4628   54.4293   28.4314 C   0  0  0  0  0  0
    4.0787   54.4923   28.5238 C   0  0  0  0  0  0
    3.2852   54.4291   27.4142 C   0  0  0  0  0  0
    3.8176   54.2962   26.1346 C   0  0  0  0  0  0
    1.9816   54.4930   27.7926 O   0  0  0  0  0  0
    2.0000   54.8289   29.1547 C   0  0  0  0  0  0
    3.2991   54.5955   29.6330 O   0  0  0  0  0  0
   10.1869   56.2595   17.6818 O   0  0  0  0  0  0
   10.9760   50.8255   16.1093 C   0  0  0  0  0  0
   13.5306   49.8504   16.2064 H   0  0  0  0  0  0
   12.9187   49.8206   14.5102 H   0  0  0  0  0  0
   14.2284   50.9538   14.9641 H   0  0  0  0  0  0
   12.8521   51.8500   17.6870 H   0  0  0  0  0  0
   13.8086   52.7729   16.4951 H   0  0  0  0  0  0
   12.0282   54.3552   16.0713 H   0  0  0  0  0  0
   12.0983   54.2196   17.8129 H   0  0  0  0  0  0
    6.1017   53.1690   17.7869 H   0  0  0  0  0  0
    8.0039   56.0449   20.5876 H   0  0  0  0  0  0
    7.2676   55.7084   22.8521 H   0  0  0  0  0  0
    3.9026   53.4195   21.4578 H   0  0  0  0  0  0
    4.6247   53.7750   19.1499 H   0  0  0  0  0  0
    7.1043   54.2427   27.0900 H   0  0  0  0  0  0
    6.1114   54.4932   29.2860 H   0  0  0  0  0  0
    3.1644   54.2407   25.2756 H   0  0  0  0  0  0
    1.7599   55.8887   29.2668 H   0  0  0  0  0  0
    1.2700   54.2330   29.7043 H   0  0  0  0  0  0
   10.9664   55.8188   18.0225 H   0  0  0  0  0  0
   11.2022   50.1784   16.9600 H   0  0  0  0  0  0
   10.6352   50.2249   15.2630 H   0  0  0  0  0  0
   12.1114   52.0649   14.8171 H   0  0  0  0  0  0
  1  2  1  0  0  0
  1 35  1  0  0  0
  1 36  1  0  0  0
  1 37  1  0  0  0
  2 34  1  0  0  0
  2  3  1  0  0  0
  2 55  1  0  0  0
  3  4  1  0  0  0
  3 38  1  0  0  0
  3 39  1  0  0  0
  4  5  1  0  0  0
  4 40  1  0  0  0
  4 41  1  0  0  0
  5  9  1  0  0  0
  5  6  2  0  0  0
  6  7  1  0  0  0
  6 34  1  0  0  0
  7  8  1  0  0  0
  8 14  1  0  0  0
  8  9  2  0  0  0
  9 10  1  0  0  0
 10 11  2  0  0  0
 10 33  1  0  0  0
 11 12  1  0  0  0
 12 13  1  0  0  0
 12 14  1  0  0  0
 12 15  1  0  0  0
 14 42  1  0  0  0
 15 20  2  0  0  0
 15 16  1  0  0  0
 16 17  2  0  0  0
 16 43  1  0  0  0
 17 18  1  0  0  0
 17 44  1  0  0  0
 18 19  2  0  0  0
 18 21  1  0  0  0
 19 20  1  0  0  0
 19 45  1  0  0  0
 20 46  1  0  0  0
 21 22  1  0  0  0
 22 23  2  0  0  0
 22 24  1  0  0  0
 24 29  2  0  0  0
 24 25  1  0  0  0
 25 26  2  0  0  0
 25 47  1  0  0  0
 26 27  1  0  0  0
 26 48  1  0  0  0
 27 32  1  0  0  0
 27 28  2  0  0  0
 28 29  1  0  0  0
 28 30  1  0  0  0
 29 49  1  0  0  0
 30 31  1  0  0  0
 31 32  1  0  0  0
 31 50  1  0  0  0
 31 51  1  0  0  0
 33 52  1  0  0  0
 34 53  1  0  0  0
 34 54  1  0  0  0
M  CHG  1   2   1
M  END
> <i_i_glide_confnum>
4

> <i_i_glide_lignum>
774

> <i_i_glide_posenum>
199

> <i_i_glide_rotatable_bonds>
5

> <i_m_Source_File_Index>
1431

> <b_m_subgroup_collapsed>
0

> <r_i_docking_score>
-6.69033

> <r_i_glide_ecoul>
-6.78105

> <r_i_glide_eff_state_penalty>
0

> <r_i_glide_einternal>
2.69799

> <r_i_glide_emodel>
-72.8376

> <r_i_glide_energy>
-50.8737

> <r_i_glide_erotb>
0.373724

> <r_i_glide_esite>
-0.0115286

> <r_i_glide_evdw>
-44.0927

> <r_i_glide_gscore>
-6.69033

> <r_i_glide_hbond>
-0.258426

> <r_i_glide_ligand_efficiency>
-0.202737

> <r_i_glide_ligand_efficiency_ln>
-1.4879

> <r_i_glide_ligand_efficiency_sa>
-0.650287

> <r_i_glide_lipo>
-2.62023

> <r_i_glide_metal>
0

> <r_i_glide_rewards>
-0.952084

> <s_i_glide_gridfile>
wee1_glide-grid

> <s_m_Source_File>
wee1_decoys_glide_SP.sdf

> <s_m_Source_Path>
/Users/zhangxujun/Desktop

> <s_m_entry_id>
1706

> <s_m_entry_name>
wee1_decoys_glide_SP.1431

> <s_m_subgroup_title>
wee1_decoys_glide_SP

> <s_m_subgroupid>
wee1_decoys_glide_SP


$$$$
