@<TRIPOS>MOLECULE
ZINC14484610_70
56   59    1
SMALL
USER_CHARGES


@<TRIPOS>ATOM
      1 C1         -2.5407   50.0175   25.6491 C.3       1 UNK         0.0000 
      2 C2         -1.5322   50.1763   24.5187 C.ar      1 UNK         0.0000 
      3 C3         -1.9163   50.8354   23.3455 C.ar      1 UNK         0.0000 
      4 C4         -1.0132   50.9993   22.2952 C.ar      1 UNK         0.0000 
      5 C5          0.2879   50.5096   22.4124 C.ar      1 UNK         0.0000 
      6 C6          0.6790   49.8482   23.5814 C.ar      1 UNK         0.0000 
      7 C7         -0.2244   49.6740   24.6353 C.ar      1 UNK         0.0000 
      8 C8          0.2254   48.9294   25.8850 C.3       1 UNK         0.0000 
      9 S9          1.4633   50.7638   21.0840 S.o2      1 UNK         0.0000 
     10 O10         0.7564   50.4861   19.8298 O.2       1 UNK         0.0000 
     11 O11         2.7044   50.0691   21.4403 O.2       1 UNK         0.0000 
     12 N12         1.8187   52.4967   21.0728 N.pl3     1 UNK         0.0000 
     13 C13         2.5537   53.0913   22.0979 C.ar      1 UNK         0.0000 
     14 C14         3.8387   53.5825   21.8621 C.ar      1 UNK         0.0000 
     15 C15         4.5909   54.0956   22.9200 C.ar      1 UNK         0.0000 
     16 C16         4.0565   54.1026   24.2142 C.ar      1 UNK         0.0000 
     17 C17         2.7276   53.6974   24.4154 C.ar      1 UNK         0.0000 
     18 C18         1.9834   53.1917   23.3629 C.ar      1 UNK         0.0000 
     19 C19         4.9122   54.4667   25.3991 C.2       1 UNK         0.0000 
     20 O20         5.7215   55.3932   25.3752 O.2       1 UNK         0.0000 
     21 N21         4.6936   53.6412   26.4359 N.am      1 UNK         0.0000 
     22 C22         5.0880   53.6429   27.8382 C.3       1 UNK         0.0000 
     23 H23         5.5028   52.6431   27.9866 H         1 UNK         0.0000 
     24 C24         6.2005   54.6185   28.2285 C.3       1 UNK         0.0000 
     25 C25         3.8422   53.7651   28.7149 C.ar      1 UNK         0.0000 
     26 C26         2.9089   54.8003   28.4888 C.ar      1 UNK         0.0000 
     27 C27         1.7164   54.8772   29.2171 C.ar      1 UNK         0.0000 
     28 C28         1.4793   53.8847   30.1584 C.ar      1 UNK         0.0000 
     29 C29         2.3816   52.8866   30.3970 C.ar      1 UNK         0.0000 
     30 C30         3.5822   52.7979   29.7015 C.ar      1 UNK         0.0000 
     31 O31         1.9259   52.0967   31.4020 O.3       1 UNK         0.0000 
     32 C32         0.6181   52.5331   31.6703 C.3       1 UNK         0.0000 
     33 O33         0.4296   53.7583   31.0105 O.3       1 UNK         0.0000 
     34 H34        -2.1394   50.4310   26.5751 H         1 UNK         0.0000 
     35 H35        -3.4857   50.5207   25.4404 H         1 UNK         0.0000 
     36 H36        -2.7435   48.9615   25.8322 H         1 UNK         0.0000 
     37 H37        -2.9200   51.2216   23.2439 H         1 UNK         0.0000 
     38 H38        -1.3207   51.5100   21.3944 H         1 UNK         0.0000 
     39 H39         1.6868   49.4664   23.6747 H         1 UNK         0.0000 
     40 H40        -0.4510   48.0967   26.0823 H         1 UNK         0.0000 
     41 H41         1.2310   48.5184   25.7909 H         1 UNK         0.0000 
     42 H42         0.1958   49.5811   26.7599 H         1 UNK         0.0000 
     43 H43         1.5028   53.0677   20.3023 H         1 UNK         0.0000 
     44 H44         4.2673   53.5270   20.8718 H         1 UNK         0.0000 
     45 H45         5.6052   54.4242   22.7394 H         1 UNK         0.0000 
     46 H46         2.2731   53.7276   25.3962 H         1 UNK         0.0000 
     47 H47         0.9743   52.8542   23.5443 H         1 UNK         0.0000 
     48 H48         4.1234   52.8426   26.1980 H         1 UNK         0.0000 
     49 H49         6.4586   54.4954   29.2794 H         1 UNK         0.0000 
     50 H50         7.1053   54.4464   27.6454 H         1 UNK         0.0000 
     51 H51         5.9045   55.6559   28.0808 H         1 UNK         0.0000 
     52 H52         3.1013   55.5385   27.7264 H         1 UNK         0.0000 
     53 H53         1.0145   55.6781   29.0421 H         1 UNK         0.0000 
     54 H54         4.2834   52.0004   29.8987 H         1 UNK         0.0000 
     55 H55        -0.0996   51.8063   31.2818 H         1 UNK         0.0000 
     56 H56         0.4654   52.6515   32.7445 H         1 UNK         0.0000 
@<TRIPOS>BOND
     1    1    2 1    
     2    1   34 1    
     3    1   35 1    
     4    1   36 1    
     5    2    7 ar   
     6    2    3 ar   
     7    3    4 ar   
     8    3   37 1    
     9    4    5 ar   
    10    4   38 1    
    11    5    6 ar   
    12    5    9 1    
    13    6    7 ar   
    14    6   39 1    
    15    7    8 1    
    16    8   40 1    
    17    8   41 1    
    18    8   42 1    
    19    9   10 2    
    20    9   11 2    
    21    9   12 1    
    22   12   13 1    
    23   12   43 1    
    24   13   18 ar   
    25   13   14 ar   
    26   14   15 ar   
    27   14   44 1    
    28   15   16 ar   
    29   15   45 1    
    30   16   17 ar   
    31   16   19 1    
    32   17   18 ar   
    33   17   46 1    
    34   18   47 1    
    35   19   20 2    
    36   19   21 am   BACKBONE|DICT|INTERRES
    37   21   22 1    
    38   21   48 1    
    39   22   23 1    
    40   22   24 1    
    41   22   25 1    
    42   24   49 1    
    43   24   50 1    
    44   24   51 1    
    45   25   30 ar   
    46   25   26 ar   
    47   26   27 ar   
    48   26   52 1    
    49   27   28 ar   
    50   27   53 1    
    51   28   33 1    
    52   28   29 ar   
    53   29   30 ar   
    54   29   31 1    
    55   30   54 1    
    56   31   32 1    
    57   32   33 1    
    58   32   55 1    
    59   32   56 1    
@<TRIPOS>SUBSTRUCTURE
     1 UNK         1 GROUP             0       ****    0 ROOT    
