@<TRIPOS>MOLECULE
ZINC12794406_1119
60   64    1
SMALL
USER_CHARGES


@<TRIPOS>ATOM
      1 C1          2.1598   49.6570   19.6030 C.3       1 UNK         0.0000 
      2 C2          1.4759   50.2224   20.8611 C.3       1 UNK         0.0000 
      3 C3          2.0241   49.5765   22.1415 C.3       1 UNK         0.0000 
      4 C4          1.4379   50.2316   23.3999 C.3       1 UNK         0.0000 
      5 C5         -0.7152   50.6590   22.0494 C.3       1 UNK         0.0000 
      6 C6         -0.0418   49.9846   20.8417 C.3       1 UNK         0.0000 
      7 C7         -0.7466   50.7588   24.6363 C.3       1 UNK         0.0000 
      8 H8         -0.3776   51.7842   24.5672 H         1 UNK         0.0000 
      9 C9         -0.2620   50.1023   25.9691 C.3       1 UNK         0.0000 
     10 N10         0.4590   51.0301   26.8494 N.am      1 UNK         0.0000 
     11 C11        -0.1102   52.1040   27.4296 C.2       1 UNK         0.0000 
     12 O12        -1.2968   52.3835   27.2789 O.2       1 UNK         0.0000 
     13 C13         0.7552   53.0363   28.2876 C.3       1 UNK         0.0000 
     14 N14         2.1627   53.0996   27.8892 N.pl3     1 UNK         0.0000 
     15 C15         2.6896   53.5341   26.6600 C.ar      1 UNK         0.0000 
     16 C16         2.0650   53.6952   25.4173 C.ar      1 UNK         0.0000 
     17 C17         2.7898   54.0984   24.2935 C.ar      1 UNK         0.0000 
     18 C18         4.1581   54.3700   24.3773 C.ar      1 UNK         0.0000 
     19 C19         4.8313   54.2398   25.6167 C.ar      1 UNK         0.0000 
     20 C20         4.0676   53.8173   26.7302 C.ar      1 UNK         0.0000 
     21 C21         4.6444   53.6575   27.9608 C.ar      1 UNK         0.0000 
     22 C22         5.9961   53.9008   28.1726 C.ar      1 UNK         0.0000 
     23 C23         6.7686   54.3163   27.0887 C.ar      1 UNK         0.0000 
     24 C24         6.2130   54.4909   25.8138 C.ar      1 UNK         0.0000 
     25 S25         3.4031   53.1580   29.1483 S.o2      1 UNK         0.0000 
     26 O26         3.1066   54.2486   30.0800 O.2       1 UNK         0.0000 
     27 O27         3.6553   51.8146   29.6819 O.2       1 UNK         0.0000 
     28 C28        -2.2655   50.7775   24.5248 C.2       1 UNK         0.0000 
     29 C29        -3.1894   49.7465   24.7089 C.2       1 UNK         0.0000 
     30 C30        -4.5213   50.1294   24.5248 C.2       1 UNK         0.0000 
     31 C31        -4.6463   51.4693   24.2108 C.2       1 UNK         0.0000 
     32 S32        -3.1102   52.2610   24.1531 S.3       1 UNK         0.0000 
     33 H33         2.0059   48.5798   19.5076 H         1 UNK         0.0000 
     34 H34         3.2386   49.8333   19.6196 H         1 UNK         0.0000 
     35 H35         1.7780   50.1250   18.6937 H         1 UNK         0.0000 
     36 H36         1.6651   51.2992   20.9015 H         1 UNK         0.0000 
     37 H37         1.8585   48.4970   22.1384 H         1 UNK         0.0000 
     38 H38         3.1046   49.6798   22.1593 H         1 UNK         0.0000 
     39 H39         1.6865   51.2937   23.4779 H         1 UNK         0.0000 
     40 H40         1.8152   49.6958   24.2682 H         1 UNK         0.0000 
     41 H41        -0.5789   51.7432   22.0591 H         1 UNK         0.0000 
     42 H42        -1.7789   50.4152   22.0338 H         1 UNK         0.0000 
     43 H43        -0.4599   50.3881   19.9163 H         1 UNK         0.0000 
     44 H44        -0.2719   48.9156   20.7995 H         1 UNK         0.0000 
     45 H45        -1.1111   49.7048   26.5292 H         1 UNK         0.0000 
     46 H46         0.3430   49.2108   25.8030 H         1 UNK         0.0000 
     47 H47         1.4275   50.8299   27.0554 H         1 UNK         0.0000 
     48 H48         0.3523   54.0452   28.2003 H         1 UNK         0.0000 
     49 H49         0.6489   52.7722   29.3411 H         1 UNK         0.0000 
     50 H50         1.0101   53.5091   25.3051 H         1 UNK         0.0000 
     51 H51         2.2791   54.2084   23.3469 H         1 UNK         0.0000 
     52 H52         4.7033   54.6876   23.5033 H         1 UNK         0.0000 
     53 H53         6.4583   53.7954   29.1425 H         1 UNK         0.0000 
     54 H54         7.8216   54.4962   27.2428 H         1 UNK         0.0000 
     55 H55         6.8216   54.8093   24.9809 H         1 UNK         0.0000 
     56 H56        -2.9013   48.7378   24.9718 H         1 UNK         0.0000 
     57 H57        -5.3584   49.4546   24.6268 H         1 UNK         0.0000 
     58 H58        -5.5537   52.0268   24.0185 H         1 UNK         0.0000 
     59 N59        -0.1127   50.0941   23.3745 N.4       1 UNK         0.0000 
     60 H60        -0.3312   49.1066   23.3934 H         1 UNK         0.0000 
@<TRIPOS>BOND
     1    1    2 1    
     2    1   33 1    
     3    1   34 1    
     4    1   35 1    
     5    2    6 1    
     6    2    3 1    
     7    2   36 1    
     8    3    4 1    
     9    3   37 1    
    10    3   38 1    
    11    4   39 1    
    12    4   40 1    
    13    4   59 1    
    14    5    6 1    
    15    5   41 1    
    16    5   42 1    
    17    5   59 1    
    18    6   43 1    
    19    6   44 1    
    20    7    8 1    
    21    7    9 1    
    22    7   28 1    
    23    7   59 1    
    24    9   10 1    
    25    9   45 1    
    26    9   46 1    
    27   10   11 am   BACKBONE|DICT|INTERRES
    28   10   47 1    
    29   11   12 2    
    30   11   13 1    
    31   13   14 1    
    32   13   48 1    
    33   13   49 1    
    34   14   25 1    
    35   14   15 1    
    36   15   20 ar   
    37   15   16 ar   
    38   16   17 ar   
    39   16   50 1    
    40   17   18 ar   
    41   17   51 1    
    42   18   19 ar   
    43   18   52 1    
    44   19   24 ar   
    45   19   20 ar   
    46   20   21 ar   
    47   21   22 ar   
    48   21   25 1    
    49   22   23 ar   
    50   22   53 1    
    51   23   24 ar   
    52   23   54 1    
    53   24   55 1    
    54   25   26 2    
    55   25   27 2    
    56   28   32 1    
    57   28   29 2    
    58   29   30 1    
    59   29   56 1    
    60   30   31 2    
    61   30   57 1    
    62   31   32 1    
    63   31   58 1    
    64   59   60 1    
@<TRIPOS>SUBSTRUCTURE
     1 UNK         1 GROUP             0       ****    0 ROOT    
