@<TRIPOS>MOLECULE
ZINC39561146_4296
45   46    1
SMALL
USER_CHARGES


@<TRIPOS>ATOM
      1 C1          8.5053   57.0244   18.8817 C.3       1 UNK         0.0000 
      2 C2          7.3971   56.1711   19.4720 C.ar      1 UNK         0.0000 
      3 C3          6.3233   55.7825   18.6758 C.ar      1 UNK         0.0000 
      4 C4          5.3266   54.9429   19.1778 C.ar      1 UNK         0.0000 
      5 C5          5.3895   54.4984   20.5142 C.ar      1 UNK         0.0000 
      6 C6          6.4808   54.8968   21.3272 C.ar      1 UNK         0.0000 
      7 C7          7.4697   55.7265   20.7910 C.ar      1 UNK         0.0000 
      8 C8          6.7396   54.3489   22.7292 C.3       1 UNK         0.0000 
      9 N9          4.3833   53.6030   20.9318 N.am      1 UNK         0.0000 
     10 C10         3.6708   53.6420   22.0762 C.2       1 UNK         0.0000 
     11 O11         3.8531   54.4967   22.9425 O.2       1 UNK         0.0000 
     12 C12         2.5633   52.5587   22.2595 C.3       1 UNK         0.0000 
     13 H13         1.6604   52.9113   21.7547 H         1 UNK         0.0000 
     14 C14         2.9517   51.1807   21.6811 C.3       1 UNK         0.0000 
     15 O15         2.2475   52.3493   23.6532 O.3       1 UNK         0.0000 
     16 C16         1.5720   53.2624   24.4034 C.2       1 UNK         0.0000 
     17 O17         1.1025   54.3042   23.9526 O.2       1 UNK         0.0000 
     18 C18         1.4920   52.8858   25.8363 C.ar      1 UNK         0.0000 
     19 C19         0.3926   52.1959   26.3799 C.ar      1 UNK         0.0000 
     20 C20         0.3843   51.9422   27.7641 C.ar      1 UNK         0.0000 
     21 C21         1.4686   52.3688   28.5515 C.ar      1 UNK         0.0000 
     22 C22         2.5294   53.0372   27.9253 C.ar      1 UNK         0.0000 
     23 N23         2.5391   53.2968   26.5956 N.ar      1 UNK         0.0000 
     24 Cl24        3.8981   53.5784   28.8352 Cl        1 UNK         0.0000 
     25 Cl25        1.4984   52.0967   30.2671 Cl        1 UNK         0.0000 
     26 N26        -0.7058   51.2969   28.3620 N.pl3     1 UNK         0.0000 
     27 Cl27       -0.9398   51.6961   25.3778 Cl        1 UNK         0.0000 
     28 C28         4.1955   54.5272   18.2402 C.3       1 UNK         0.0000 
     29 H29         8.7081   56.7269   17.8522 H         1 UNK         0.0000 
     30 H30         9.4406   56.9014   19.4307 H         1 UNK         0.0000 
     31 H31         8.2231   58.0772   18.8812 H         1 UNK         0.0000 
     32 H32         6.2763   56.1201   17.6502 H         1 UNK         0.0000 
     33 H33         8.3227   55.9994   21.3976 H         1 UNK         0.0000 
     34 H34         6.3869   55.0422   23.4929 H         1 UNK         0.0000 
     35 H35         6.2871   53.3702   22.8835 H         1 UNK         0.0000 
     36 H36         7.8054   54.1868   22.8828 H         1 UNK         0.0000 
     37 H37         4.0666   52.9628   20.2193 H         1 UNK         0.0000 
     38 H38         3.0394   51.2046   20.5939 H         1 UNK         0.0000 
     39 H39         3.9042   50.8385   22.0806 H         1 UNK         0.0000 
     40 H40         2.2015   50.4266   21.9222 H         1 UNK         0.0000 
     41 H41        -0.8357   51.4857   29.3456 H         1 UNK         0.0000 
     42 H42        -0.8952   50.3366   28.0801 H         1 UNK         0.0000 
     43 H43         3.2265   54.7428   18.6906 H         1 UNK         0.0000 
     44 H44         4.2330   55.0519   17.2849 H         1 UNK         0.0000 
     45 H45         4.2382   53.4544   18.0479 H         1 UNK         0.0000 
@<TRIPOS>BOND
     1    1    2 1    
     2    1   29 1    
     3    1   30 1    
     4    1   31 1    
     5    2    7 ar   
     6    2    3 ar   
     7    3    4 ar   
     8    3   32 1    
     9    4    5 ar   
    10    4   28 1    
    11    5    6 ar   
    12    5    9 1    
    13    6    7 ar   
    14    6    8 1    
    15    7   33 1    
    16    8   34 1    
    17    8   35 1    
    18    8   36 1    
    19    9   10 am   BACKBONE|DICT|INTERRES
    20    9   37 1    
    21   10   11 2    
    22   10   12 1    
    23   12   13 1    
    24   12   14 1    
    25   12   15 1    
    26   14   38 1    
    27   14   39 1    
    28   14   40 1    
    29   15   16 1    
    30   16   17 2    
    31   16   18 1    
    32   18   23 ar   
    33   18   19 ar   
    34   19   20 ar   
    35   19   27 1    
    36   20   21 ar   
    37   20   26 1    
    38   21   22 ar   
    39   21   25 1    
    40   22   23 ar   
    41   22   24 1    
    42   26   41 1    
    43   26   42 1    
    44   28   43 1    
    45   28   44 1    
    46   28   45 1    
@<TRIPOS>SUBSTRUCTURE
     1 UNK         1 GROUP             0       ****    0 ROOT    
