@<TRIPOS>MOLECULE
ZINC14468865_4375
66   70    1
SMALL
USER_CHARGES


@<TRIPOS>ATOM
      1 C1          4.7803   53.5378   17.8645 C.3       1 UNK         0.0000 
      2 C2          4.6078   53.6275   19.3729 C.ar      1 UNK         0.0000 
      3 C3          5.5058   54.4010   20.1120 C.ar      1 UNK         0.0000 
      4 C4          5.3768   54.5091   21.4964 C.ar      1 UNK         0.0000 
      5 C5          4.3245   53.8747   22.1554 C.ar      1 UNK         0.0000 
      6 C6          3.4326   53.0787   21.4215 C.ar      1 UNK         0.0000 
      7 C7          3.5690   52.9479   20.0350 C.ar      1 UNK         0.0000 
      8 C8          2.5815   52.0774   19.2707 C.3       1 UNK         0.0000 
      9 N9          4.2585   54.0242   23.5483 N.am      1 UNK         0.0000 
     10 C10         3.1642   53.9888   24.3396 C.2       1 UNK         0.0000 
     11 O11         2.0074   53.9620   23.9090 O.2       1 UNK         0.0000 
     12 C12         3.4548   53.9315   25.8321 C.ar      1 UNK         0.0000 
     13 C13         4.6110   54.5509   26.3363 C.ar      1 UNK         0.0000 
     14 C14         4.9307   54.4923   27.6867 C.ar      1 UNK         0.0000 
     15 C15         4.0941   53.8248   28.5693 C.ar      1 UNK         0.0000 
     16 C16         2.9328   53.1903   28.1153 C.ar      1 UNK         0.0000 
     17 C17         2.6160   53.2387   26.7389 C.ar      1 UNK         0.0000 
     18 N18         1.4405   52.5749   26.2822 N.pl3     1 UNK         0.0000 
     19 C19         0.4390   51.9358   27.1678 C.3       1 UNK         0.0000 
     20 H20         0.6999   50.8770   27.2267 H         1 UNK         0.0000 
     21 C21         0.5932   52.5665   28.5813 C.3       1 UNK         0.0000 
     22 H22         0.3752   53.6318   28.4732 H         1 UNK         0.0000 
     23 C23         2.0353   52.3791   29.0362 C.3       1 UNK         0.0000 
     24 H24         2.3539   51.3416   28.9223 H         1 UNK         0.0000 
     25 C25         1.9432   52.6905   30.5115 C.2       1 UNK         0.0000 
     26 C26         0.6804   52.4967   30.9377 C.2       1 UNK         0.0000 
     27 C27        -0.2247   52.1004   29.7849 C.3       1 UNK         0.0000 
     28 C28        -0.9999   51.9354   26.6081 C.ar      1 UNK         0.0000 
     29 C29        -2.0483   51.3448   27.3243 C.ar      1 UNK         0.0000 
     30 C30        -3.3622   51.4362   26.8767 C.ar      1 UNK         0.0000 
     31 C31        -3.6524   52.0552   25.6615 C.ar      1 UNK         0.0000 
     32 C32        -2.6009   52.4966   24.8450 C.ar      1 UNK         0.0000 
     33 C33        -1.2934   52.4790   25.3466 C.ar      1 UNK         0.0000 
     34 O34        -2.8782   52.9204   23.5614 O.3       1 UNK         0.0000 
     35 C35        -2.0284   52.3877   22.5468 C.3       1 UNK         0.0000 
     36 O36        -4.9727   52.1744   25.2907 O.3       1 UNK         0.0000 
     37 C37        -5.5527   53.4040   25.2800 C.2       1 UNK         0.0000 
     38 O38        -5.0256   54.4840   25.5742 O.2       1 UNK         0.0000 
     39 C39        -7.0159   53.3365   24.8773 C.3       1 UNK         0.0000 
     40 H40         4.8754   52.4969   17.5533 H         1 UNK         0.0000 
     41 H41         3.9087   53.9502   17.3570 H         1 UNK         0.0000 
     42 H42         5.6650   54.0680   17.5146 H         1 UNK         0.0000 
     43 H43         6.3177   54.9130   19.6192 H         1 UNK         0.0000 
     44 H44         6.0873   55.1067   22.0468 H         1 UNK         0.0000 
     45 H45         2.6333   52.5543   21.9240 H         1 UNK         0.0000 
     46 H46         2.0451   52.6755   18.5359 H         1 UNK         0.0000 
     47 H47         3.1048   51.2870   18.7301 H         1 UNK         0.0000 
     48 H48         1.8494   51.6074   19.9264 H         1 UNK         0.0000 
     49 H49         5.1465   54.1450   24.0110 H         1 UNK         0.0000 
     50 H50         5.2813   55.0961   25.6869 H         1 UNK         0.0000 
     51 H51         5.8256   54.9712   28.0559 H         1 UNK         0.0000 
     52 H52         4.3646   53.7848   29.6146 H         1 UNK         0.0000 
     53 H53         1.2469   52.5224   25.2915 H         1 UNK         0.0000 
     54 H54         2.8044   52.8968   31.1246 H         1 UNK         0.0000 
     55 H55         0.3172   52.5587   31.9565 H         1 UNK         0.0000 
     56 H56        -1.1884   52.6053   29.8221 H         1 UNK         0.0000 
     57 H57        -0.4166   51.0275   29.7754 H         1 UNK         0.0000 
     58 H58        -1.8754   50.8177   28.2473 H         1 UNK         0.0000 
     59 H59        -4.1603   51.0283   27.4811 H         1 UNK         0.0000 
     60 H60        -0.5068   52.8895   24.7360 H         1 UNK         0.0000 
     61 H61        -2.4947   52.5021   21.5681 H         1 UNK         0.0000 
     62 H62        -1.0630   52.8961   22.5255 H         1 UNK         0.0000 
     63 H63        -1.8528   51.3193   22.6863 H         1 UNK         0.0000 
     64 H64        -7.5700   52.7245   25.5877 H         1 UNK         0.0000 
     65 H65        -7.1141   52.8948   23.8861 H         1 UNK         0.0000 
     66 H66        -7.4558   54.3346   24.8552 H         1 UNK         0.0000 
@<TRIPOS>BOND
     1    1    2 1    
     2    1   40 1    
     3    1   41 1    
     4    1   42 1    
     5    2    7 ar   
     6    2    3 ar   
     7    3    4 ar   
     8    3   43 1    
     9    4    5 ar   
    10    4   44 1    
    11    5    6 ar   
    12    5    9 1    
    13    6    7 ar   
    14    6   45 1    
    15    7    8 1    
    16    8   46 1    
    17    8   47 1    
    18    8   48 1    
    19    9   10 am   BACKBONE|DICT|INTERRES
    20    9   49 1    
    21   10   11 2    
    22   10   12 1    
    23   12   17 ar   
    24   12   13 ar   
    25   13   14 ar   
    26   13   50 1    
    27   14   15 ar   
    28   14   51 1    
    29   15   16 ar   
    30   15   52 1    
    31   16   23 1    
    32   16   17 ar   
    33   17   18 1    
    34   18   19 1    
    35   18   53 1    
    36   19   20 1    
    37   19   21 1    
    38   19   28 1    
    39   21   22 1    
    40   21   27 1    
    41   21   23 1    
    42   23   24 1    
    43   23   25 1    
    44   25   26 2    
    45   25   54 1    
    46   26   27 1    
    47   26   55 1    
    48   27   56 1    
    49   27   57 1    
    50   28   33 ar   
    51   28   29 ar   
    52   29   30 ar   
    53   29   58 1    
    54   30   31 ar   
    55   30   59 1    
    56   31   32 ar   
    57   31   36 1    
    58   32   33 ar   
    59   32   34 1    
    60   33   60 1    
    61   34   35 1    
    62   35   61 1    
    63   35   62 1    
    64   35   63 1    
    65   36   37 1    
    66   37   38 2    
    67   37   39 1    
    68   39   64 1    
    69   39   65 1    
    70   39   66 1    
@<TRIPOS>SUBSTRUCTURE
     1 UNK         1 GROUP             0       ****    0 ROOT    
