ZINC13364826_5942
                    3D
 Schrodinger Suite 2024-2.
 57 60  0  0  1  0            999 V2000
    1.6841   55.7727   29.8045 C   0  0  0  0  0  0
    1.0800   54.7388   28.8406 C   0  0  0  0  0  0
    1.8697   53.4119   28.7078 C   0  0  2  0  0  0
    1.8642   52.9529   29.6979 H   0  0  0  0  0  0
    3.3611   53.5480   28.3105 C   0  0  0  0  0  0
    3.5252   54.2435   26.9430 C   0  0  0  0  0  0
    2.5756   53.5797   25.9538 C   0  0  0  0  0  0
    1.5043   52.7479   26.3047 C   0  0  0  0  0  0
    0.7890   52.3279   25.1759 C   0  0  0  0  0  0
    1.3173   52.7653   23.9611 C   0  0  0  0  0  0
    2.6707   53.8237   24.2415 S   0  0  0  0  0  0
    0.8167   52.4306   22.6228 C   0  0  0  0  0  0
   -0.4194   52.0468   22.4136 N   0  0  0  0  0  0
   -0.5523   51.7604   21.0626 N   0  0  0  0  0  0
    0.6173   51.9425   20.5069 C   0  0  0  0  0  0
    1.5311   52.4020   21.4365 N   0  0  0  0  0  0
    2.9338   52.7396   21.2108 C   0  0  0  0  0  0
    0.9094   51.6919   18.7885 S   0  0  0  0  0  0
    2.0240   50.2479   18.9072 C   0  0  0  0  0  0
    1.3029   48.8972   18.8537 C   0  0  0  0  0  0
    0.3221   48.7103   19.5725 O   0  0  0  0  0  0
    1.8162   47.9847   17.9979 N   0  0  0  0  0  0
    1.3678   46.6701   17.7406 C   0  0  0  0  0  0
    0.6725   45.9029   18.6967 C   0  0  0  0  0  0
    0.3039   44.5710   18.4443 C   0  0  0  0  0  0
    0.6299   44.0222   17.1948 C   0  0  0  0  0  0
    1.3112   44.7693   16.2374 C   0  0  0  0  0  0
    1.6965   46.0851   16.5022 C   0  0  0  0  0  0
    2.4620   46.8471   15.4281 C   0  0  0  0  0  0
   -0.3869   43.7389   19.4908 C   0  0  0  0  0  0
   -0.4070   42.4968   19.3350 O   0  0  0  0  0  0
    1.1665   52.4052   27.7572 C   0  0  0  0  0  0
    1.0672   56.6717   29.8471 H   0  0  0  0  0  0
    1.7469   55.3770   30.8163 H   0  0  0  0  0  0
    2.6801   56.0848   29.4936 H   0  0  0  0  0  0
    0.9597   55.2015   27.8608 H   0  0  0  0  0  0
    0.0722   54.4966   29.1815 H   0  0  0  0  0  0
    3.8336   52.5636   28.2761 H   0  0  0  0  0  0
    3.9033   54.1307   29.0567 H   0  0  0  0  0  0
    4.5608   54.1824   26.6076 H   0  0  0  0  0  0
    3.2782   55.2962   27.0383 H   0  0  0  0  0  0
   -0.0730   51.6791   25.2399 H   0  0  0  0  0  0
    3.5592   52.1922   21.9153 H   0  0  0  0  0  0
    3.2376   52.4810   20.1966 H   0  0  0  0  0  0
    3.0675   53.8138   21.3298 H   0  0  0  0  0  0
    2.6282   50.2844   19.8109 H   0  0  0  0  0  0
    2.7153   50.3240   18.0703 H   0  0  0  0  0  0
    2.5848   48.3014   17.4120 H   0  0  0  0  0  0
    0.4417   46.3220   19.6658 H   0  0  0  0  0  0
    0.3629   43.0010   16.9614 H   0  0  0  0  0  0
    1.5564   44.3119   15.2912 H   0  0  0  0  0  0
    2.4318   46.3443   14.4600 H   0  0  0  0  0  0
    2.0387   47.8422   15.2811 H   0  0  0  0  0  0
    3.5048   46.9699   15.7273 H   0  0  0  0  0  0
    0.0887   52.4166   27.9179 H   0  0  0  0  0  0
    1.4820   51.3880   27.9907 H   0  0  0  0  0  0
   -0.8960   44.3130   20.4793 O   0  5  0  0  0  0
  1  2  1  0  0  0
  1 33  1  0  0  0
  1 34  1  0  0  0
  1 35  1  0  0  0
  2  3  1  0  0  0
  2 36  1  0  0  0
  2 37  1  0  0  0
  3  4  1  0  0  0
  3 32  1  0  0  0
  3  5  1  0  0  0
  5  6  1  0  0  0
  5 38  1  0  0  0
  5 39  1  0  0  0
  6  7  1  0  0  0
  6 40  1  0  0  0
  6 41  1  0  0  0
  7 11  1  0  0  0
  7  8  2  0  0  0
  8  9  1  0  0  0
  8 32  1  0  0  0
  9 10  2  0  0  0
  9 42  1  0  0  0
 10 11  1  0  0  0
 10 12  1  0  0  0
 12 16  1  0  0  0
 12 13  2  0  0  0
 13 14  1  0  0  0
 14 15  2  0  0  0
 15 16  1  0  0  0
 15 18  1  0  0  0
 16 17  1  0  0  0
 17 43  1  0  0  0
 17 44  1  0  0  0
 17 45  1  0  0  0
 18 19  1  0  0  0
 19 20  1  0  0  0
 19 46  1  0  0  0
 19 47  1  0  0  0
 20 21  2  0  0  0
 20 22  1  0  0  0
 22 23  1  0  0  0
 22 48  1  0  0  0
 23 28  2  0  0  0
 23 24  1  0  0  0
 24 25  2  0  0  0
 24 49  1  0  0  0
 25 26  1  0  0  0
 25 30  1  0  0  0
 26 27  2  0  0  0
 26 50  1  0  0  0
 27 28  1  0  0  0
 27 51  1  0  0  0
 28 29  1  0  0  0
 29 52  1  0  0  0
 29 53  1  0  0  0
 29 54  1  0  0  0
 30 31  2  0  0  0
 30 57  1  0  0  0
 32 55  1  0  0  0
 32 56  1  0  0  0
M  CHG  1  57  -1
M  END
> <i_i_glide_confnum>
194

> <i_i_glide_lignum>
5943

> <i_i_glide_posenum>
283

> <i_i_glide_rotatable_bonds>
8

> <i_m_Source_File_Index>
3079

> <b_m_subgroup_collapsed>
0

> <r_i_docking_score>
-5.45412

> <r_i_glide_ecoul>
-7.17158

> <r_i_glide_eff_state_penalty>
0

> <r_i_glide_einternal>
4.86394

> <r_i_glide_emodel>
-63.9671

> <r_i_glide_energy>
-44.3015

> <r_i_glide_erotb>
0.549562

> <r_i_glide_esite>
-0.205212

> <r_i_glide_evdw>
-37.1299

> <r_i_glide_gscore>
-5.45412

> <r_i_glide_hbond>
-0.412202

> <r_i_glide_ligand_efficiency>
-0.170441

> <r_i_glide_ligand_efficiency_ln>
-1.22133

> <r_i_glide_ligand_efficiency_sa>
-0.541117

> <r_i_glide_lipo>
-2.1477

> <r_i_glide_metal>
0

> <r_i_glide_rewards>
-0.306334

> <s_i_glide_gridfile>
wee1_glide-grid

> <s_m_Source_File>
wee1_decoys_glide_SP.sdf

> <s_m_Source_Path>
/Users/zhangxujun/Desktop

> <s_m_entry_id>
3354

> <s_m_entry_name>
wee1_decoys_glide_SP.3079

> <s_m_subgroup_title>
wee1_decoys_glide_SP

> <s_m_subgroupid>
wee1_decoys_glide_SP


$$$$
