@<TRIPOS>MOLECULE
ZINC38172971_3478
63   67    1
SMALL
USER_CHARGES


@<TRIPOS>ATOM
      1 C1          2.9336   52.3884   20.8356 C.ar      1 UNK         0.0000 
      2 C2          3.2810   52.8174   22.1058 C.ar      1 UNK         0.0000 
      3 C3          4.3591   53.6976   22.3121 C.ar      1 UNK         0.0000 
      4 C4          5.1044   54.0953   21.2004 C.ar      1 UNK         0.0000 
      5 C5          4.7697   53.6666   19.9204 C.ar      1 UNK         0.0000 
      6 C6          3.6762   52.8200   19.7435 C.ar      1 UNK         0.0000 
      7 C7          3.2727   52.3756   18.3619 C.3       1 UNK         0.0000 
      8 N8          2.5914   53.5332   17.6316 N.4       1 UNK         0.0000 
      9 C9          1.7600   53.2321   16.3652 C.3       1 UNK         0.0000 
     10 H10         0.8749   52.7355   16.7708 H         1 UNK         0.0000 
     11 C11         2.5213   52.2325   15.4368 C.3       1 UNK         0.0000 
     12 O12         2.3043   50.8966   15.8695 O.3       1 UNK         0.0000 
     13 C13         1.3103   54.6038   15.7463 C.3       1 UNK         0.0000 
     14 C14         2.5251   55.4153   15.1858 C.3       1 UNK         0.0000 
     15 C15         2.0630   56.7700   14.5844 C.3       1 UNK         0.0000 
     16 C16         1.3692   57.6158   15.6838 C.3       1 UNK         0.0000 
     17 C17         0.1330   56.8529   16.2252 C.3       1 UNK         0.0000 
     18 C18         0.5889   55.4973   16.8231 C.3       1 UNK         0.0000 
     19 C19        -0.8631   56.5902   15.0687 C.3       1 UNK         0.0000 
     20 C20        -0.1711   55.7398   13.9739 C.3       1 UNK         0.0000 
     21 C21         1.0632   56.5051   13.4297 C.3       1 UNK         0.0000 
     22 C22         0.2901   54.3865   14.5794 C.3       1 UNK         0.0000 
     23 N23         4.8471   54.0405   23.5797 N.2       1 UNK         0.0000 
     24 C24         4.0783   54.1466   24.5900 C.2       1 UNK         0.0000 
     25 C25         4.5599   54.3168   25.9653 C.ar      1 UNK         0.0000 
     26 C26         3.6016   54.3198   26.9895 C.ar      1 UNK         0.0000 
     27 C27         3.9808   54.4198   28.3247 C.ar      1 UNK         0.0000 
     28 C28         5.3285   54.4967   28.6557 C.ar      1 UNK         0.0000 
     29 C29         6.2967   54.4966   27.6586 C.ar      1 UNK         0.0000 
     30 C30         5.9223   54.4326   26.3205 C.ar      1 UNK         0.0000 
     31 O31         6.9216   54.4930   25.3845 O.3       1 UNK         0.0000 
     32 Br32        2.6561   54.4593   29.6878 Br        1 UNK         0.0000 
     33 H33         2.0946   51.7197   20.7083 H         1 UNK         0.0000 
     34 H34         2.7107   52.4367   22.9396 H         1 UNK         0.0000 
     35 H35         5.9668   54.7318   21.3338 H         1 UNK         0.0000 
     36 H36         5.3611   53.9883   19.0754 H         1 UNK         0.0000 
     37 H37         4.1277   52.0969   17.7452 H         1 UNK         0.0000 
     38 H38         2.5556   51.5524   18.3845 H         1 UNK         0.0000 
     39 H39         1.9877   53.9930   18.3025 H         1 UNK         0.0000 
     40 H40         2.1635   52.2838   14.4106 H         1 UNK         0.0000 
     41 H41         3.5897   52.4492   15.3956 H         1 UNK         0.0000 
     42 H42         3.1359   50.4186   16.0703 H         1 UNK         0.0000 
     43 H43         3.2607   55.6047   15.9687 H         1 UNK         0.0000 
     44 H44         3.0476   54.8387   14.4209 H         1 UNK         0.0000 
     45 H45         2.9282   57.3137   14.2002 H         1 UNK         0.0000 
     46 H46         2.0676   57.8338   16.4937 H         1 UNK         0.0000 
     47 H47         1.0694   58.5861   15.2839 H         1 UNK         0.0000 
     48 H48        -0.3510   57.4522   16.9984 H         1 UNK         0.0000 
     49 H49        -0.2742   54.9691   17.2320 H         1 UNK         0.0000 
     50 H50         1.2352   55.7057   17.6776 H         1 UNK         0.0000 
     51 H51        -1.7512   56.0776   15.4413 H         1 UNK         0.0000 
     52 H52        -1.2138   57.5351   14.6495 H         1 UNK         0.0000 
     53 H53        -0.8731   55.5547   13.1591 H         1 UNK         0.0000 
     54 H54         0.7541   57.4476   12.9744 H         1 UNK         0.0000 
     55 H55         1.5448   55.9315   12.6363 H         1 UNK         0.0000 
     56 H56         0.7249   53.7856   13.7819 H         1 UNK         0.0000 
     57 H57        -0.5763   53.8256   14.9338 H         1 UNK         0.0000 
     58 H58         2.9968   54.0816   24.4910 H         1 UNK         0.0000 
     59 H59         2.5465   54.2384   26.7660 H         1 UNK         0.0000 
     60 H60         5.6322   54.5927   29.6818 H         1 UNK         0.0000 
     61 H61         7.3397   54.5702   27.9291 H         1 UNK         0.0000 
     62 H62         3.3086   54.2009   17.3889 H         1 UNK         0.0000 
     63 H63         6.5466   54.3644   24.5036 H         1 UNK         0.0000 
@<TRIPOS>BOND
     1    1    6 ar   
     2    1    2 ar   
     3    1   33 1    
     4    2    3 ar   
     5    2   34 1    
     6    3    4 ar   
     7    3   23 1    
     8    4    5 ar   
     9    4   35 1    
    10    5    6 ar   
    11    5   36 1    
    12    6    7 1    
    13    7    8 1    
    14    7   37 1    
    15    7   38 1    
    16    8    9 1    
    17    8   39 1    
    18    8   62 1    
    19    9   10 1    
    20    9   11 1    
    21    9   13 1    
    22   11   12 1    
    23   11   40 1    
    24   11   41 1    
    25   12   42 1    
    26   13   18 1    
    27   13   22 1    
    28   13   14 1    
    29   14   15 1    
    30   14   43 1    
    31   14   44 1    
    32   15   21 1    
    33   15   16 1    
    34   15   45 1    
    35   16   17 1    
    36   16   46 1    
    37   16   47 1    
    38   17   18 1    
    39   17   19 1    
    40   17   48 1    
    41   18   49 1    
    42   18   50 1    
    43   19   20 1    
    44   19   51 1    
    45   19   52 1    
    46   20   21 1    
    47   20   22 1    
    48   20   53 1    
    49   21   54 1    
    50   21   55 1    
    51   22   56 1    
    52   22   57 1    
    53   23   24 2    
    54   24   25 1    
    55   24   58 1    
    56   25   30 ar   
    57   25   26 ar   
    58   26   27 ar   
    59   26   59 1    
    60   27   28 ar   
    61   27   32 1    
    62   28   29 ar   
    63   28   60 1    
    64   29   30 ar   
    65   29   61 1    
    66   30   31 1    
    67   31   63 1    
@<TRIPOS>SUBSTRUCTURE
     1 UNK         1 GROUP             0       ****    0 ROOT    
