@<TRIPOS>MOLECULE
ZINC13029503_5384
71   75    1
SMALL
USER_CHARGES


@<TRIPOS>ATOM
      1 C1         -3.6952   49.9060   28.0463 C.3       1 UNK         0.0000 
      2 C2         -3.9299   51.1651   27.2335 C.ar      1 UNK         0.0000 
      3 C3         -5.2204   51.7091   27.2262 C.ar      1 UNK         0.0000 
      4 C4         -5.5033   52.8562   26.4890 C.ar      1 UNK         0.0000 
      5 C5         -4.4905   53.4802   25.7719 C.ar      1 UNK         0.0000 
      6 C6         -3.2071   52.9391   25.7781 C.ar      1 UNK         0.0000 
      7 C7         -2.8941   51.7731   26.4890 C.ar      1 UNK         0.0000 
      8 C8         -1.5091   51.1191   26.3472 C.3       1 UNK         0.0000 
      9 H9         -1.3892   50.4032   27.1613 H         1 UNK         0.0000 
     10 C10        -1.4421   50.1742   25.1143 C.2       1 UNK         0.0000 
     11 O11        -2.2883   50.2812   24.2239 O.2       1 UNK         0.0000 
     12 N12        -0.4125   49.3075   25.0589 N.am      1 UNK         0.0000 
     13 C13        -0.0156   48.4925   23.8993 C.3       1 UNK         0.0000 
     14 C14        -1.1716   47.7355   23.1924 C.3       1 UNK         0.0000 
     15 C15        -1.3265   48.3824   21.8102 C.3       1 UNK         0.0000 
     16 C16         0.0712   48.8913   21.4576 C.3       1 UNK         0.0000 
     17 C17         0.6638   49.3384   22.7969 C.3       1 UNK         0.0000 
     18 N18        -0.3557   52.0974   26.4924 N.am      1 UNK         0.0000 
     19 C19         0.4527   52.4965   25.3663 C.ar      1 UNK         0.0000 
     20 C20        -0.0834   52.7878   24.0996 C.ar      1 UNK         0.0000 
     21 C21         0.7472   53.1178   23.0278 C.ar      1 UNK         0.0000 
     22 C22         2.1225   53.2357   23.1957 C.ar      1 UNK         0.0000 
     23 C23         2.6676   52.8993   24.4321 C.ar      1 UNK         0.0000 
     24 C24         1.8436   52.4969   25.4726 C.ar      1 UNK         0.0000 
     25 N25         2.8716   53.6679   22.0819 N.am      1 UNK         0.0000 
     26 C26         4.2013   53.8738   21.9641 C.2       1 UNK         0.0000 
     27 O27         5.0350   53.7295   22.8575 O.2       1 UNK         0.0000 
     28 C28         4.6782   54.3454   20.5959 C.3       1 UNK         0.0000 
     29 C29        -0.0625   52.5273   27.7793 C.2       1 UNK         0.0000 
     30 O30        -0.6149   52.0433   28.7695 O.2       1 UNK         0.0000 
     31 C31         0.9149   53.7095   28.0921 C.3       1 UNK         0.0000 
     32 N32         2.2958   53.3934   28.4890 N.pl3     1 UNK         0.0000 
     33 C33         3.4956   53.8405   27.9305 C.ar      1 UNK         0.0000 
     34 C34         3.8282   54.6879   26.8610 C.ar      1 UNK         0.0000 
     35 C35         5.1785   54.8364   26.5446 C.ar      1 UNK         0.0000 
     36 C36         6.1735   54.2001   27.2736 C.ar      1 UNK         0.0000 
     37 C37         5.8506   53.3783   28.3482 C.ar      1 UNK         0.0000 
     38 C38         4.5000   53.1898   28.6818 C.ar      1 UNK         0.0000 
     39 N39         3.9146   52.4308   29.6542 N.2       1 UNK         0.0000 
     40 N40         2.5488   52.5619   29.5211 N.2       1 UNK         0.0000 
     41 H41        -4.5933   49.5462   28.5488 H         1 UNK         0.0000 
     42 H42        -3.3272   49.1079   27.4004 H         1 UNK         0.0000 
     43 H43        -2.9343   50.0969   28.8062 H         1 UNK         0.0000 
     44 H44        -6.0142   51.2342   27.7843 H         1 UNK         0.0000 
     45 H45        -6.5029   53.2637   26.4830 H         1 UNK         0.0000 
     46 H46        -4.6978   54.3723   25.1993 H         1 UNK         0.0000 
     47 H47        -2.4583   53.4339   25.1967 H         1 UNK         0.0000 
     48 H48         0.2107   49.2710   25.8541 H         1 UNK         0.0000 
     49 H49         0.6932   47.7324   24.2292 H         1 UNK         0.0000 
     50 H50        -2.1044   47.7186   23.7585 H         1 UNK         0.0000 
     51 H51        -0.8955   46.6936   23.0350 H         1 UNK         0.0000 
     52 H52        -2.0246   49.2184   21.8630 H         1 UNK         0.0000 
     53 H53        -1.7109   47.6853   21.0649 H         1 UNK         0.0000 
     54 H54         0.0396   49.7052   20.7333 H         1 UNK         0.0000 
     55 H55         0.6693   48.0974   21.0109 H         1 UNK         0.0000 
     56 H56         1.7519   49.2680   22.8259 H         1 UNK         0.0000 
     57 H57         0.4235   50.3920   22.9187 H         1 UNK         0.0000 
     58 H58        -1.1347   52.6945   23.8914 H         1 UNK         0.0000 
     59 H59         0.3178   53.2707   22.0514 H         1 UNK         0.0000 
     60 H60         3.7274   52.9091   24.6182 H         1 UNK         0.0000 
     61 H61         2.3101   52.1346   26.3703 H         1 UNK         0.0000 
     62 H62         2.3222   53.8901   21.2601 H         1 UNK         0.0000 
     63 H63         3.9027   54.8946   20.0615 H         1 UNK         0.0000 
     64 H64         5.5373   55.0097   20.7052 H         1 UNK         0.0000 
     65 H65         4.9797   53.4906   19.9895 H         1 UNK         0.0000 
     66 H66         0.9801   54.4200   27.2815 H         1 UNK         0.0000 
     67 H67         0.4797   54.2890   28.9078 H         1 UNK         0.0000 
     68 H68         3.1044   55.1989   26.2589 H         1 UNK         0.0000 
     69 H69         5.4583   55.4583   25.7071 H         1 UNK         0.0000 
     70 H70         7.2096   54.3392   27.0003 H         1 UNK         0.0000 
     71 H71         6.6423   52.8968   28.8818 H         1 UNK         0.0000 
@<TRIPOS>BOND
     1    1    2 1    
     2    1   41 1    
     3    1   42 1    
     4    1   43 1    
     5    2    7 ar   
     6    2    3 ar   
     7    3    4 ar   
     8    3   44 1    
     9    4    5 ar   
    10    4   45 1    
    11    5    6 ar   
    12    5   46 1    
    13    6    7 ar   
    14    6   47 1    
    15    7    8 1    
    16    8    9 1    
    17    8   10 1    
    18    8   18 1    
    19   10   11 2    
    20   10   12 am   BACKBONE|DICT|INTERRES
    21   12   13 1    
    22   12   48 1    
    23   13   17 1    
    24   13   14 1    
    25   13   49 1    
    26   14   15 1    
    27   14   50 1    
    28   14   51 1    
    29   15   16 1    
    30   15   52 1    
    31   15   53 1    
    32   16   17 1    
    33   16   54 1    
    34   16   55 1    
    35   17   56 1    
    36   17   57 1    
    37   18   19 1    
    38   18   29 am   BACKBONE|DICT|INTERRES
    39   19   24 ar   
    40   19   20 ar   
    41   20   21 ar   
    42   20   58 1    
    43   21   22 ar   
    44   21   59 1    
    45   22   23 ar   
    46   22   25 1    
    47   23   24 ar   
    48   23   60 1    
    49   24   61 1    
    50   25   26 am   BACKBONE|DICT|INTERRES
    51   25   62 1    
    52   26   27 2    
    53   26   28 1    
    54   28   63 1    
    55   28   64 1    
    56   28   65 1    
    57   29   30 2    
    58   29   31 1    
    59   31   32 1    
    60   31   66 1    
    61   31   67 1    
    62   32   40 ar   
    63   32   33 ar   
    64   33   38 ar   
    65   33   34 ar   
    66   34   35 ar   
    67   34   68 1    
    68   35   36 ar   
    69   35   69 1    
    70   36   37 ar   
    71   36   70 1    
    72   37   38 ar   
    73   37   71 1    
    74   38   39 ar   
    75   39   40 ar   
@<TRIPOS>SUBSTRUCTURE
     1 UNK         1 GROUP             0       ****    0 ROOT    
