ZINC09886393_312
                    3D
 Schrodinger Suite 2024-2.
 65 67  0  0  1  0            999 V2000
    3.4412   51.2773   20.2860 C   0  0  0  0  0  0
    3.0673   52.5970   19.5693 C   0  0  0  0  0  0
    2.7810   52.3467   18.0758 C   0  0  0  0  0  0
    4.0670   53.7884   19.7946 C   0  0  1  0  0  0
    3.6029   54.7058   19.4277 H   0  0  0  0  0  0
    4.3417   54.0024   21.3138 C   0  0  0  0  0  0
    5.5041   54.0398   21.7381 O   0  0  0  0  0  0
    3.2576   54.0883   22.1080 N   0  0  0  0  0  0
    3.3787   53.9900   23.4406 N   0  0  0  0  0  0
    2.2901   53.7883   24.0607 C   0  0  0  0  0  0
    2.2698   53.5235   25.5136 C   0  0  0  0  0  0
    3.2916   54.0858   26.2977 C   0  0  0  0  0  0
    3.3537   53.9006   27.6796 C   0  0  0  0  0  0
    2.3446   53.1568   28.2976 C   0  0  0  0  0  0
    1.3241   52.5894   27.5431 C   0  0  0  0  0  0
    1.2679   52.7424   26.1491 C   0  0  0  0  0  0
    0.2577   52.0786   25.4420 N   0  0  0  0  0  0
   -1.0968   51.8737   25.9919 C   0  0  0  0  0  0
   -1.3793   50.4297   26.4687 C   0  0  0  0  0  0
    0.3210   49.6027   24.8382 C   0  0  0  0  0  0
    0.5839   51.0695   24.4114 C   0  0  0  0  0  0
   -1.5165   48.0317   25.6474 C   0  0  0  0  0  0
    4.4716   54.4712   28.4628 N   0  3  0  0  0  0
    4.3614   54.4971   29.6821 O   0  0  0  0  0  0
    5.4567   54.8936   27.8629 O   0  5  0  0  0  0
    5.3034   53.6031   19.0173 N   0  0  0  0  0  0
    6.2059   54.5651   18.7480 C   0  0  0  0  0  0
    6.0527   55.7422   19.0834 O   0  0  0  0  0  0
    7.4780   54.1159   18.0683 C   0  0  0  0  0  0
    8.6523   54.8611   18.2530 C   0  0  0  0  0  0
    9.8483   54.4463   17.6748 C   0  0  0  0  0  0
    9.8790   53.2896   16.9010 C   0  0  0  0  0  0
    8.7184   52.5462   16.6973 C   0  0  0  0  0  0
    7.5205   52.9557   17.2777 C   0  0  0  0  0  0
   11.3662   52.7713   16.1975 Cl  0  0  0  0  0  0
    4.4723   50.9953   20.0818 H   0  0  0  0  0  0
    3.3366   51.3533   21.3682 H   0  0  0  0  0  0
    2.8034   50.4539   19.9638 H   0  0  0  0  0  0
    2.0983   52.8950   19.9742 H   0  0  0  0  0  0
    3.6799   52.0580   17.5320 H   0  0  0  0  0  0
    2.0484   51.5510   17.9374 H   0  0  0  0  0  0
    2.3841   53.2440   17.6001 H   0  0  0  0  0  0
    2.3193   54.0576   21.7366 H   0  0  0  0  0  0
    1.3174   53.7741   23.5687 H   0  0  0  0  0  0
    4.0660   54.6751   25.8254 H   0  0  0  0  0  0
    2.3571   52.9934   29.3660 H   0  0  0  0  0  0
    0.5861   51.9949   28.0618 H   0  0  0  0  0  0
   -1.2957   52.5762   26.8036 H   0  0  0  0  0  0
   -1.7888   52.1342   25.1876 H   0  0  0  0  0  0
   -2.4239   50.3144   26.7660 H   0  0  0  0  0  0
   -0.7300   50.1011   27.2816 H   0  0  0  0  0  0
    0.4459   48.9329   23.9854 H   0  0  0  0  0  0
    0.9504   49.2689   25.6679 H   0  0  0  0  0  0
   -0.0367   51.3176   23.5471 H   0  0  0  0  0  0
    1.6236   51.1495   24.0928 H   0  0  0  0  0  0
   -0.8956   47.6969   26.4768 H   0  0  0  0  0  0
   -2.5692   48.0216   25.9383 H   0  0  0  0  0  0
   -1.3550   47.4133   24.7620 H   0  0  0  0  0  0
    5.4923   52.6535   18.7235 H   0  0  0  0  0  0
    8.6486   55.7560   18.8599 H   0  0  0  0  0  0
   10.7494   55.0178   17.8394 H   0  0  0  0  0  0
    8.7467   51.6498   16.0962 H   0  0  0  0  0  0
    6.6364   52.3549   17.1078 H   0  0  0  0  0  0
   -1.1514   49.4859   25.2735 N   0  3  0  0  0  0
   -1.7496   49.7767   24.5118 H   0  0  0  0  0  0
  1  2  1  0  0  0
  1 36  1  0  0  0
  1 37  1  0  0  0
  1 38  1  0  0  0
  2  3  1  0  0  0
  2  4  1  0  0  0
  2 39  1  0  0  0
  3 40  1  0  0  0
  3 41  1  0  0  0
  3 42  1  0  0  0
  4  5  1  0  0  0
  4  6  1  0  0  0
  4 26  1  0  0  0
  6  7  2  0  0  0
  6  8  1  0  0  0
  8  9  1  0  0  0
  8 43  1  0  0  0
  9 10  2  0  0  0
 10 11  1  0  0  0
 10 44  1  0  0  0
 11 16  2  0  0  0
 11 12  1  0  0  0
 12 13  2  0  0  0
 12 45  1  0  0  0
 13 14  1  0  0  0
 13 23  1  0  0  0
 14 15  2  0  0  0
 14 46  1  0  0  0
 15 16  1  0  0  0
 15 47  1  0  0  0
 16 17  1  0  0  0
 17 21  1  0  0  0
 17 18  1  0  0  0
 18 19  1  0  0  0
 18 48  1  0  0  0
 18 49  1  0  0  0
 19 50  1  0  0  0
 19 51  1  0  0  0
 19 64  1  0  0  0
 20 21  1  0  0  0
 20 52  1  0  0  0
 20 53  1  0  0  0
 20 64  1  0  0  0
 21 54  1  0  0  0
 21 55  1  0  0  0
 22 56  1  0  0  0
 22 57  1  0  0  0
 22 58  1  0  0  0
 22 64  1  0  0  0
 23 24  2  0  0  0
 23 25  1  0  0  0
 26 27  1  0  0  0
 26 59  1  0  0  0
 27 28  2  0  0  0
 27 29  1  0  0  0
 29 34  2  0  0  0
 29 30  1  0  0  0
 30 31  2  0  0  0
 30 60  1  0  0  0
 31 32  1  0  0  0
 31 61  1  0  0  0
 32 33  2  0  0  0
 32 35  1  0  0  0
 33 34  1  0  0  0
 33 62  1  0  0  0
 34 63  1  0  0  0
 64 65  1  0  0  0
M  CHG  3  23   1  25  -1  64   1
M  END
> <i_i_glide_confnum>
25

> <i_i_glide_lignum>
313

> <i_i_glide_posenum>
397

> <i_i_glide_rotatable_bonds>
10

> <i_m_Source_File_Index>
1458

> <b_m_subgroup_collapsed>
0

> <r_i_docking_score>
-5.50384

> <r_i_glide_ecoul>
-8.3579

> <r_i_glide_eff_state_penalty>
0

> <r_i_glide_einternal>
6.97513

> <r_i_glide_emodel>
-67.0368

> <r_i_glide_energy>
-50.5693

> <r_i_glide_erotb>
0.567528

> <r_i_glide_esite>
-0.109684

> <r_i_glide_evdw>
-42.2114

> <r_i_glide_gscore>
-5.50384

> <r_i_glide_hbond>
-0.143786

> <r_i_glide_ligand_efficiency>
-0.157253

> <r_i_glide_ligand_efficiency_ln>
-1.20821

> <r_i_glide_ligand_efficiency_sa>
-0.514384

> <r_i_glide_lipo>
-1.50912

> <r_i_glide_metal>
0

> <r_i_glide_rewards>
-0.944525

> <s_i_glide_gridfile>
wee1_glide-grid

> <s_m_Source_File>
wee1_decoys_glide_SP.sdf

> <s_m_Source_Path>
/Users/zhangxujun/Desktop

> <s_m_entry_id>
1733

> <s_m_entry_name>
wee1_decoys_glide_SP.1458

> <s_m_subgroup_title>
wee1_decoys_glide_SP

> <s_m_subgroupid>
wee1_decoys_glide_SP


$$$$
