@<TRIPOS>MOLECULE
ZINC06292397_5124
45   47    1
SMALL
USER_CHARGES


@<TRIPOS>ATOM
      1 C1          6.7045   54.6176   27.2947 C.3       1 UNK         0.0000 
      2 O2          5.4984   54.2856   26.6253 O.3       1 UNK         0.0000 
      3 C3          4.3130   54.1194   27.3235 C.ar      1 UNK         0.0000 
      4 C4          4.2636   54.1510   28.7284 C.ar      1 UNK         0.0000 
      5 C5          3.0650   53.9482   29.4052 C.ar      1 UNK         0.0000 
      6 C6          1.8918   53.7323   28.6963 C.ar      1 UNK         0.0000 
      7 C7          1.9230   53.6962   27.3059 C.ar      1 UNK         0.0000 
      8 C8          3.1171   53.8953   26.5967 C.ar      1 UNK         0.0000 
      9 C9          3.0361   53.8476   25.1224 C.2       1 UNK         0.0000 
     10 N10         4.0166   54.0934   24.3525 N.2       1 UNK         0.0000 
     11 N11         3.7622   53.8983   23.0467 N.am      1 UNK         0.0000 
     12 C12         4.7339   53.9512   22.1123 C.2       1 UNK         0.0000 
     13 O13         5.9022   54.2749   22.3563 O.2       1 UNK         0.0000 
     14 C14         4.3033   53.5921   20.7006 C.ar      1 UNK         0.0000 
     15 C15         3.2849   52.6364   20.5154 C.ar      1 UNK         0.0000 
     16 C16         2.8379   52.2934   19.2437 C.ar      1 UNK         0.0000 
     17 C17         3.4018   52.8966   18.1290 C.ar      1 UNK         0.0000 
     18 C18         4.4219   53.8287   18.2859 C.ar      1 UNK         0.0000 
     19 C19         4.9001   54.1800   19.5560 C.ar      1 UNK         0.0000 
     20 N20         5.9443   55.1123   19.7156 N.pl3     1 UNK         0.0000 
     21 S21         6.8360   55.9687   18.4482 S.o2      1 UNK         0.0000 
     22 O22         5.9070   56.3463   17.3785 O.2       1 UNK         0.0000 
     23 O23         7.6465   56.9749   19.1419 O.2       1 UNK         0.0000 
     24 C24         7.9890   54.7346   17.7950 C.2       1 UNK         0.0000 
     25 C25         9.3723   54.7681   17.9393 C.2       1 UNK         0.0000 
     26 C26        10.0103   53.7080   17.2822 C.2       1 UNK         0.0000 
     27 C27         9.1155   52.8424   16.6703 C.2       1 UNK         0.0000 
     28 S28         7.4728   53.3563   16.8721 S.3       1 UNK         0.0000 
     29 Br29        0.2468   53.4956   29.6249 Br        1 UNK         0.0000 
     30 H30         7.5121   54.5748   26.5680 H         1 UNK         0.0000 
     31 H31         6.6636   55.6366   27.6809 H         1 UNK         0.0000 
     32 H32         6.9553   53.9201   28.0966 H         1 UNK         0.0000 
     33 H33         5.1527   54.3238   29.3136 H         1 UNK         0.0000 
     34 H34         3.0431   53.9521   30.4817 H         1 UNK         0.0000 
     35 H35         0.9953   53.5108   26.7834 H         1 UNK         0.0000 
     36 H36         2.0564   53.5710   24.7358 H         1 UNK         0.0000 
     37 H37         2.8170   53.6404   22.8085 H         1 UNK         0.0000 
     38 H38         2.8235   52.1369   21.3542 H         1 UNK         0.0000 
     39 H39         2.0623   51.5518   19.1199 H         1 UNK         0.0000 
     40 H40         3.0650   52.6215   17.1396 H         1 UNK         0.0000 
     41 H41         4.8329   54.2529   17.3877 H         1 UNK         0.0000 
     42 H42         6.3340   55.1634   20.6474 H         1 UNK         0.0000 
     43 H43         9.9017   55.5394   18.4824 H         1 UNK         0.0000 
     44 H44        11.0814   53.5677   17.2742 H         1 UNK         0.0000 
     45 H45         9.3392   51.9422   16.1180 H         1 UNK         0.0000 
@<TRIPOS>BOND
     1    1    2 1    
     2    1   30 1    
     3    1   31 1    
     4    1   32 1    
     5    2    3 1    
     6    3    8 ar   
     7    3    4 ar   
     8    4    5 ar   
     9    4   33 1    
    10    5    6 ar   
    11    5   34 1    
    12    6    7 ar   
    13    6   29 1    
    14    7    8 ar   
    15    7   35 1    
    16    8    9 1    
    17    9   10 2    
    18    9   36 1    
    19   10   11 1    
    20   11   12 am   BACKBONE|DICT|INTERRES
    21   11   37 1    
    22   12   13 2    
    23   12   14 1    
    24   14   19 ar   
    25   14   15 ar   
    26   15   16 ar   
    27   15   38 1    
    28   16   17 ar   
    29   16   39 1    
    30   17   18 ar   
    31   17   40 1    
    32   18   19 ar   
    33   18   41 1    
    34   19   20 1    
    35   20   21 1    
    36   20   42 1    
    37   21   22 2    
    38   21   23 2    
    39   21   24 1    
    40   24   28 1    
    41   24   25 2    
    42   25   26 1    
    43   25   43 1    
    44   26   27 2    
    45   26   44 1    
    46   27   28 1    
    47   27   45 1    
@<TRIPOS>SUBSTRUCTURE
     1 UNK         1 GROUP             0       ****    0 ROOT    
