ZINC02880205_2030
                    3D
 Schrodinger Suite 2024-2.
 39 41  0  0  1  0            999 V2000
    6.6074   54.5837   23.2197 C   0  0  0  0  0  0
    5.4251   53.8473   23.2217 C   0  0  0  0  0  0
    4.6146   53.8083   22.0840 C   0  0  0  0  0  0
    5.0163   54.4969   20.9360 C   0  0  0  0  0  0
    6.1984   55.2539   20.9215 C   0  0  0  0  0  0
    6.9868   55.2919   22.0822 C   0  0  0  0  0  0
    6.6092   55.9843   19.7015 N   0  3  0  0  0  0
    5.8214   56.0497   18.7644 O   0  0  0  0  0  0
    7.7213   56.5009   19.6810 O   0  5  0  0  0  0
    3.3275   53.0619   22.0758 C   0  0  0  0  0  0
    2.5704   52.4885   21.0652 C   0  0  0  0  0  0
    1.4239   51.9627   21.6595 C   0  0  0  0  0  0
    1.5191   52.2240   23.0202 C   0  0  0  0  0  0
    2.6841   52.8944   23.2651 O   0  0  0  0  0  0
    0.6006   51.9298   24.0917 C   0  0  0  0  0  0
   -0.5076   51.4492   23.8424 O   0  0  0  0  0  0
    1.0814   52.2527   25.3166 N   0  0  0  0  0  0
    0.5179   52.2642   26.5706 C   0  0  0  0  0  0
   -0.9878   51.6971   27.0214 S   0  0  0  0  0  0
    1.2828   52.7935   27.5708 N   0  0  0  0  0  0
    2.6011   53.2864   27.5306 C   0  0  0  0  0  0
    3.0447   54.1360   26.5083 C   0  0  0  0  0  0
    4.3747   54.5369   26.4517 C   0  0  0  0  0  0
    5.2737   54.0958   27.4175 C   0  0  0  0  0  0
    4.8315   53.2931   28.4679 C   0  0  0  0  0  0
    3.4980   52.8874   28.5298 C   0  0  0  0  0  0
    3.0958   52.0896   29.5491 F   0  0  0  0  0  0
    7.1045   54.5733   27.2804 Br  0  0  0  0  0  0
    7.2351   54.6036   24.0982 H   0  0  0  0  0  0
    5.1446   53.2985   24.1087 H   0  0  0  0  0  0
    4.3858   54.4595   20.0573 H   0  0  0  0  0  0
    7.9056   55.8587   22.1075 H   0  0  0  0  0  0
    2.8127   52.4594   20.0135 H   0  0  0  0  0  0
    0.6145   51.4532   21.1580 H   0  0  0  0  0  0
    2.0400   52.5666   25.2935 H   0  0  0  0  0  0
    0.8677   52.7581   28.4915 H   0  0  0  0  0  0
    2.3648   54.4940   25.7472 H   0  0  0  0  0  0
    4.7095   55.1831   25.6534 H   0  0  0  0  0  0
    5.5221   52.9600   29.2251 H   0  0  0  0  0  0
  1  6  2  0  0  0
  1  2  1  0  0  0
  1 29  1  0  0  0
  2  3  2  0  0  0
  2 30  1  0  0  0
  3  4  1  0  0  0
  3 10  1  0  0  0
  4  5  2  0  0  0
  4 31  1  0  0  0
  5  6  1  0  0  0
  5  7  1  0  0  0
  6 32  1  0  0  0
  7  8  2  0  0  0
  7  9  1  0  0  0
 10 14  1  0  0  0
 10 11  2  0  0  0
 11 12  1  0  0  0
 11 33  1  0  0  0
 12 13  2  0  0  0
 12 34  1  0  0  0
 13 14  1  0  0  0
 13 15  1  0  0  0
 15 16  2  0  0  0
 15 17  1  0  0  0
 17 18  1  0  0  0
 17 35  1  0  0  0
 18 19  2  0  0  0
 18 20  1  0  0  0
 20 21  1  0  0  0
 20 36  1  0  0  0
 21 26  2  0  0  0
 21 22  1  0  0  0
 22 23  2  0  0  0
 22 37  1  0  0  0
 23 24  1  0  0  0
 23 38  1  0  0  0
 24 25  2  0  0  0
 24 28  1  0  0  0
 25 26  1  0  0  0
 25 39  1  0  0  0
 26 27  1  0  0  0
M  CHG  2   7   1   9  -1
M  END
> <i_i_glide_confnum>
10

> <i_i_glide_lignum>
2031

> <i_i_glide_posenum>
192

> <i_i_glide_rotatable_bonds>
7

> <i_m_Source_File_Index>
4002

> <b_m_subgroup_collapsed>
0

> <r_i_docking_score>
-5.57692

> <r_i_glide_ecoul>
-0.91823

> <r_i_glide_eff_state_penalty>
0

> <r_i_glide_einternal>
4.93342

> <r_i_glide_emodel>
-59.0975

> <r_i_glide_energy>
-44.9891

> <r_i_glide_erotb>
0.467612

> <r_i_glide_esite>
-0.0589566

> <r_i_glide_evdw>
-44.0709

> <r_i_glide_gscore>
-5.57692

> <r_i_glide_hbond>
0

> <r_i_glide_ligand_efficiency>
-0.199176

> <r_i_glide_ligand_efficiency_ln>
-1.28732

> <r_i_glide_ligand_efficiency_sa>
-0.604815

> <r_i_glide_lipo>
-2.87766

> <r_i_glide_metal>
0

> <r_i_glide_rewards>
-0.766636

> <s_i_glide_gridfile>
wee1_glide-grid

> <s_m_Source_File>
wee1_decoys_glide_SP.sdf

> <s_m_Source_Path>
/Users/zhangxujun/Desktop

> <s_m_entry_id>
4277

> <s_m_entry_name>
wee1_decoys_glide_SP.4002

> <s_m_subgroup_title>
wee1_decoys_glide_SP

> <s_m_subgroupid>
wee1_decoys_glide_SP


$$$$
