ZINC00985863_4506
                    3D
 Schrodinger Suite 2024-2.
 68 72  0  0  1  0            999 V2000
    5.8481   54.7422   17.4516 C   0  0  0  0  0  0
    4.7582   54.2441   18.4169 C   0  0  0  0  0  0
    3.7058   53.4078   17.6631 C   0  0  0  0  0  0
    5.3833   53.4787   19.6074 C   0  0  0  0  0  0
    4.3727   53.0708   20.6729 C   0  0  0  0  0  0
    3.9025   54.0155   21.5861 C   0  0  0  0  0  0
    2.9400   53.6561   22.5256 C   0  0  0  0  0  0
    2.4564   52.3395   22.5874 C   0  0  0  0  0  0
    2.9629   51.3971   21.6861 C   0  0  0  0  0  0
    3.9069   51.7577   20.7319 C   0  0  0  0  0  0
    1.5066   51.9074   23.6738 C   0  0  0  0  0  0
    0.6813   50.7471   23.7542 C   0  0  0  0  0  0
    0.1548   50.8365   25.0276 C   0  0  0  0  0  0
    0.5890   51.9878   25.5945 N   0  0  0  0  0  0
    0.3474   52.3123   26.5186 H   0  0  0  0  0  0
    1.3911   52.6555   24.7655 N   0  0  0  0  0  0
   -0.6754   49.9664   25.6775 O   0  0  0  0  0  0
   -1.0656   48.9133   24.9107 C   0  0  0  0  0  0
   -0.7091   48.6676   23.6238 C   0  0  0  0  0  0
    0.2698   49.5750   22.8413 C   0  0  1  0  0  0
    1.1532   48.9609   22.6639 H   0  0  0  0  0  0
   -0.2541   50.0010   21.4599 C   0  0  0  0  0  0
    0.4864   49.6768   20.3176 C   0  0  0  0  0  0
    0.0407   50.0430   19.0533 C   0  0  0  0  0  0
   -1.1746   50.7029   18.9092 C   0  0  0  0  0  0
   -1.9629   51.0091   20.0308 C   0  0  0  0  0  0
   -1.4828   50.6766   21.3120 C   0  0  0  0  0  0
   -2.2665   50.9026   22.4201 O   0  0  0  0  0  0
   -2.3401   52.2483   22.8812 C   0  0  0  0  0  0
   -3.2986   52.3749   24.0634 C   0  0  0  0  0  0
   -3.7915   51.2456   24.7299 C   0  0  0  0  0  0
   -4.6714   51.3923   25.7993 C   0  0  0  0  0  0
   -5.0598   52.6661   26.2046 C   0  0  0  0  0  0
   -4.5700   53.7946   25.5538 C   0  0  0  0  0  0
   -3.6960   53.6475   24.4805 C   0  0  0  0  0  0
   -5.9237   52.8072   27.2357 F   0  0  0  0  0  0
   -3.2101   51.6037   19.9379 O   0  0  0  0  0  0
   -3.8246   51.7322   18.6616 C   0  0  0  0  0  0
   -1.2961   47.5572   22.9449 C   0  0  0  0  0  0
   -1.8165   46.6671   22.4183 N   0  0  0  0  0  0
   -1.8928   48.1475   25.6817 N   0  0  0  0  0  0
    6.3959   53.9093   17.0053 H   0  0  0  0  0  0
    6.5734   55.3784   17.9619 H   0  0  0  0  0  0
    5.4183   55.3284   16.6382 H   0  0  0  0  0  0
    4.2508   55.1265   18.8145 H   0  0  0  0  0  0
    4.1372   52.4843   17.2717 H   0  0  0  0  0  0
    2.8709   53.1339   18.3101 H   0  0  0  0  0  0
    3.2887   53.9624   16.8226 H   0  0  0  0  0  0
    5.9109   52.5923   19.2482 H   0  0  0  0  0  0
    6.1451   54.0970   20.0838 H   0  0  0  0  0  0
    4.2686   55.0298   21.5579 H   0  0  0  0  0  0
    2.5866   54.4062   23.2189 H   0  0  0  0  0  0
    2.6708   50.3636   21.7487 H   0  0  0  0  0  0
    4.2788   51.0097   20.0472 H   0  0  0  0  0  0
    1.4187   49.1367   20.3960 H   0  0  0  0  0  0
    0.6331   49.7992   18.1823 H   0  0  0  0  0  0
   -1.4948   50.9559   17.9103 H   0  0  0  0  0  0
   -1.3563   52.6077   23.1810 H   0  0  0  0  0  0
   -2.6868   52.8970   22.0815 H   0  0  0  0  0  0
   -3.5018   50.2516   24.4221 H   0  0  0  0  0  0
   -5.0519   50.5217   26.3120 H   0  0  0  0  0  0
   -4.8712   54.7773   25.8802 H   0  0  0  0  0  0
   -3.3281   54.5244   23.9703 H   0  0  0  0  0  0
   -4.8442   52.0924   18.7899 H   0  0  0  0  0  0
   -3.2943   52.4465   18.0311 H   0  0  0  0  0  0
   -3.8857   50.7729   18.1454 H   0  0  0  0  0  0
   -2.3409   47.3290   25.3003 H   0  0  0  0  0  0
   -1.7642   48.1649   26.6960 H   0  0  0  0  0  0
  1  2  1  0  0  0
  1 42  1  0  0  0
  1 43  1  0  0  0
  1 44  1  0  0  0
  2  3  1  0  0  0
  2  4  1  0  0  0
  2 45  1  0  0  0
  3 46  1  0  0  0
  3 47  1  0  0  0
  3 48  1  0  0  0
  4  5  1  0  0  0
  4 49  1  0  0  0
  4 50  1  0  0  0
  5 10  2  0  0  0
  5  6  1  0  0  0
  6  7  2  0  0  0
  6 51  1  0  0  0
  7  8  1  0  0  0
  7 52  1  0  0  0
  8  9  2  0  0  0
  8 11  1  0  0  0
  9 10  1  0  0  0
  9 53  1  0  0  0
 10 54  1  0  0  0
 11 16  2  0  0  0
 11 12  1  0  0  0
 12 20  1  0  0  0
 12 13  2  0  0  0
 13 14  1  0  0  0
 13 17  1  0  0  0
 14 15  1  0  0  0
 14 16  1  0  0  0
 17 18  1  0  0  0
 18 19  2  0  0  0
 18 41  1  0  0  0
 19 20  1  0  0  0
 19 39  1  0  0  0
 20 21  1  0  0  0
 20 22  1  0  0  0
 22 27  2  0  0  0
 22 23  1  0  0  0
 23 24  2  0  0  0
 23 55  1  0  0  0
 24 25  1  0  0  0
 24 56  1  0  0  0
 25 26  2  0  0  0
 25 57  1  0  0  0
 26 27  1  0  0  0
 26 37  1  0  0  0
 27 28  1  0  0  0
 28 29  1  0  0  0
 29 30  1  0  0  0
 29 58  1  0  0  0
 29 59  1  0  0  0
 30 35  2  0  0  0
 30 31  1  0  0  0
 31 32  2  0  0  0
 31 60  1  0  0  0
 32 33  1  0  0  0
 32 61  1  0  0  0
 33 34  2  0  0  0
 33 36  1  0  0  0
 34 35  1  0  0  0
 34 62  1  0  0  0
 35 63  1  0  0  0
 37 38  1  0  0  0
 38 64  1  0  0  0
 38 65  1  0  0  0
 38 66  1  0  0  0
 39 40  3  0  0  0
 41 67  1  0  0  0
 41 68  1  0  0  0
M  END
> <i_i_glide_confnum>
20

> <i_i_glide_lignum>
4507

> <i_i_glide_posenum>
359

> <i_i_glide_rotatable_bonds>
9

> <i_m_Source_File_Index>
5542

> <b_m_subgroup_collapsed>
0

> <r_i_docking_score>
-3.29989

> <r_i_glide_ecoul>
-3.5905

> <r_i_glide_eff_state_penalty>
0

> <r_i_glide_einternal>
3.07122

> <r_i_glide_emodel>
-46.2611

> <r_i_glide_energy>
-39.0196

> <r_i_glide_erotb>
0.448652

> <r_i_glide_esite>
-0.104164

> <r_i_glide_evdw>
-35.4291

> <r_i_glide_gscore>
-3.29989

> <r_i_glide_hbond>
-0.268476

> <r_i_glide_ligand_efficiency>
-0.0846127

> <r_i_glide_ligand_efficiency_ln>
-0.707591

> <r_i_glide_ligand_efficiency_sa>
-0.286939

> <r_i_glide_lipo>
-1.06502

> <r_i_glide_metal>
0

> <r_i_glide_rewards>
-0.00085292

> <s_i_glide_gridfile>
wee1_glide-grid

> <s_m_Source_File>
wee1_decoys_glide_SP.sdf

> <s_m_Source_Path>
/Users/zhangxujun/Desktop

> <s_m_entry_id>
5817

> <s_m_entry_name>
wee1_decoys_glide_SP.5542

> <s_m_subgroup_title>
wee1_decoys_glide_SP

> <s_m_subgroupid>
wee1_decoys_glide_SP


$$$$
