@<TRIPOS>MOLECULE
ZINC08712472_5731
78   82    1
SMALL
USER_CHARGES


@<TRIPOS>ATOM
      1 C1         -2.9703   47.9319   21.8435 C.3       1 UNK         0.0000 
      2 C2         -3.2325   49.2417   22.5579 C.ar      1 UNK         0.0000 
      3 C3         -4.4825   49.5447   23.1064 C.ar      1 UNK         0.0000 
      4 C4         -4.6080   50.7917   23.7292 C.ar      1 UNK         0.0000 
      5 N5         -3.5787   51.6778   23.8030 N.ar      1 UNK         0.0000 
      6 C6         -2.4096   51.2932   23.2300 C.ar      1 UNK         0.0000 
      7 N7         -2.1822   50.1005   22.6174 N.ar      1 UNK         0.0000 
      8 S8         -1.0991   52.4755   23.2820 S.3       1 UNK         0.0000 
      9 C9          0.2845   51.9058   22.2269 C.3       1 UNK         0.0000 
     10 C10        -0.0074   51.7043   20.7197 C.2       1 UNK         0.0000 
     11 O11        -1.1636   51.8581   20.3219 O.2       1 UNK         0.0000 
     12 N12         1.0210   51.3847   19.8687 N.am      1 UNK         0.0000 
     13 C13         2.3763   51.0627   20.3680 C.3       1 UNK         0.0000 
     14 C14         3.2503   52.2670   20.6509 C.2       1 UNK         0.0000 
     15 N15         3.5921   52.5992   21.8698 N.2       1 UNK         0.0000 
     16 C16         4.4115   53.6311   21.9439 C.2       1 UNK         0.0000 
     17 C17         4.7531   54.1654   20.7012 C.2       1 UNK         0.0000 
     18 S18         3.9345   53.2956   19.4364 S.3       1 UNK         0.0000 
     19 C19         4.8839   54.0962   23.2842 C.ar      1 UNK         0.0000 
     20 C20         6.2095   54.5067   23.4566 C.ar      1 UNK         0.0000 
     21 C21         6.6589   54.9047   24.7136 C.ar      1 UNK         0.0000 
     22 C22         5.7861   54.8968   25.7980 C.ar      1 UNK         0.0000 
     23 C23         4.4628   54.4969   25.6365 C.ar      1 UNK         0.0000 
     24 C24         4.0122   54.0968   24.3814 C.ar      1 UNK         0.0000 
     25 C25         0.8317   51.0259   18.4259 C.3       1 UNK         0.0000 
     26 H26         1.8173   51.1389   17.9695 H         1 UNK         0.0000 
     27 C27         0.4120   49.5181   18.1941 C.3       1 UNK         0.0000 
     28 H28        -0.6772   49.4923   18.2747 H         1 UNK         0.0000 
     29 C29         0.9469   48.4818   19.2221 C.3       1 UNK         0.0000 
     30 C30         0.2149   47.1293   19.0787 C.3       1 UNK         0.0000 
     31 C31         0.2059   46.7072   17.6138 C.2       1 UNK         0.0000 
     32 C32         0.5078   47.5378   16.5959 C.2       1 UNK         0.0000 
     33 C33         0.8360   49.0208   16.7759 C.3       1 UNK         0.0000 
     34 C34        -0.0346   52.0316   17.5902 C.2       1 UNK         0.0000 
     35 O35        -0.9161   51.6030   16.8420 O.2       1 UNK         0.0000 
     36 N36         0.2273   53.3444   17.7769 N.am      1 UNK         0.0000 
     37 C37        -0.4877   54.4552   17.2836 C.ar      1 UNK         0.0000 
     38 C38        -1.8338   54.4090   16.8880 C.ar      1 UNK         0.0000 
     39 C39        -2.4840   55.5710   16.4815 C.ar      1 UNK         0.0000 
     40 C40        -1.8039   56.7984   16.4729 C.ar      1 UNK         0.0000 
     41 C41        -0.4703   56.8379   16.8754 C.ar      1 UNK         0.0000 
     42 C42         0.1836   55.6768   17.2804 C.ar      1 UNK         0.0000 
     43 O43        -2.3686   57.9991   16.0888 O.3       1 UNK         0.0000 
     44 C44        -3.7311   58.0246   15.6800 C.3       1 UNK         0.0000 
     45 C45        -5.9134   51.2380   24.3557 C.3       1 UNK         0.0000 
     46 H46        -3.8712   47.3158   21.7885 H         1 UNK         0.0000 
     47 H47        -2.1965   47.3619   22.3641 H         1 UNK         0.0000 
     48 H48        -2.6292   48.1259   20.8246 H         1 UNK         0.0000 
     49 H49        -5.3102   48.8530   23.0507 H         1 UNK         0.0000 
     50 H50         1.0489   52.6708   22.3269 H         1 UNK         0.0000 
     51 H51         0.6739   50.9839   22.6557 H         1 UNK         0.0000 
     52 H52         2.2915   50.4501   21.2660 H         1 UNK         0.0000 
     53 H53         2.8897   50.4017   19.6657 H         1 UNK         0.0000 
     54 H54         5.3975   55.0014   20.4767 H         1 UNK         0.0000 
     55 H55         6.8997   54.5036   22.6250 H         1 UNK         0.0000 
     56 H56         7.6825   55.2116   24.8489 H         1 UNK         0.0000 
     57 H57         6.1363   55.2023   26.7741 H         1 UNK         0.0000 
     58 H58         3.7899   54.4922   26.4815 H         1 UNK         0.0000 
     59 H59         2.9844   53.7841   24.2645 H         1 UNK         0.0000 
     60 H60         2.0300   48.3787   19.1392 H         1 UNK         0.0000 
     61 H61         0.7723   48.8249   20.2406 H         1 UNK         0.0000 
     62 H62        -0.8058   47.1938   19.4543 H         1 UNK         0.0000 
     63 H63         0.7185   46.3754   19.6824 H         1 UNK         0.0000 
     64 H64        -0.0323   45.6817   17.3708 H         1 UNK         0.0000 
     65 H65         0.5014   47.1315   15.5945 H         1 UNK         0.0000 
     66 H66         0.3279   49.5863   15.9961 H         1 UNK         0.0000 
     67 H67         1.9046   49.1681   16.6162 H         1 UNK         0.0000 
     68 H68         1.0197   53.5710   18.3630 H         1 UNK         0.0000 
     69 H69        -2.3981   53.4895   16.9090 H         1 UNK         0.0000 
     70 H70        -3.5178   55.5024   16.1792 H         1 UNK         0.0000 
     71 H71         0.0621   57.7790   16.8794 H         1 UNK         0.0000 
     72 H72         1.2153   55.7357   17.5990 H         1 UNK         0.0000 
     73 H73        -4.0088   59.0458   15.4188 H         1 UNK         0.0000 
     74 H74        -3.8955   57.4018   14.7996 H         1 UNK         0.0000 
     75 H75        -4.3946   57.6975   16.4816 H         1 UNK         0.0000 
     76 H76        -6.7465   50.6185   24.0244 H         1 UNK         0.0000 
     77 H77        -5.8482   51.1745   25.4413 H         1 UNK         0.0000 
     78 H78        -6.1388   52.2690   24.0825 H         1 UNK         0.0000 
@<TRIPOS>BOND
     1    1    2 1    
     2    1   46 1    
     3    1   47 1    
     4    1   48 1    
     5    2    7 ar   
     6    2    3 ar   
     7    3    4 ar   
     8    3   49 1    
     9    4    5 ar   
    10    4   45 1    
    11    5    6 ar   
    12    6    7 ar   
    13    6    8 1    
    14    8    9 1    
    15    9   10 1    
    16    9   50 1    
    17    9   51 1    
    18   10   11 2    
    19   10   12 am   BACKBONE|DICT|INTERRES
    20   12   13 1    
    21   12   25 1    
    22   13   14 1    
    23   13   52 1    
    24   13   53 1    
    25   14   18 1    
    26   14   15 2    
    27   15   16 1    
    28   16   17 2    
    29   16   19 1    
    30   17   18 1    
    31   17   54 1    
    32   19   24 ar   
    33   19   20 ar   
    34   20   21 ar   
    35   20   55 1    
    36   21   22 ar   
    37   21   56 1    
    38   22   23 ar   
    39   22   57 1    
    40   23   24 ar   
    41   23   58 1    
    42   24   59 1    
    43   25   26 1    
    44   25   27 1    
    45   25   34 1    
    46   27   28 1    
    47   27   33 1    
    48   27   29 1    
    49   29   30 1    
    50   29   60 1    
    51   29   61 1    
    52   30   31 1    
    53   30   62 1    
    54   30   63 1    
    55   31   32 2    
    56   31   64 1    
    57   32   33 1    
    58   32   65 1    
    59   33   66 1    
    60   33   67 1    
    61   34   35 2    
    62   34   36 am   BACKBONE|DICT|INTERRES
    63   36   37 1    
    64   36   68 1    
    65   37   42 ar   
    66   37   38 ar   
    67   38   39 ar   
    68   38   69 1    
    69   39   40 ar   
    70   39   70 1    
    71   40   41 ar   
    72   40   43 1    
    73   41   42 ar   
    74   41   71 1    
    75   42   72 1    
    76   43   44 1    
    77   44   73 1    
    78   44   74 1    
    79   44   75 1    
    80   45   76 1    
    81   45   77 1    
    82   45   78 1    
@<TRIPOS>SUBSTRUCTURE
     1 UNK         1 GROUP             0       ****    0 ROOT    
