@<TRIPOS>MOLECULE
ZINC39668752_3072
69   73    1
SMALL
USER_CHARGES


@<TRIPOS>ATOM
      1 C1          2.1637   47.8912   18.3868 C.3       1 UNK         0.0000 
      2 C2          0.8502   47.8901   19.1776 C.3       1 UNK         0.0000 
      3 H3          1.1276   47.7785   20.2287 H         1 UNK         0.0000 
      4 C4          0.0354   49.1918   18.9503 C.3       1 UNK         0.0000 
      5 N5          0.2547   50.1992   19.9945 N.am      1 UNK         0.0000 
      6 C6         -0.6054   50.4834   20.9883 C.2       1 UNK         0.0000 
      7 O7         -1.7153   49.9576   21.0546 O.2       1 UNK         0.0000 
      8 C8         -0.2396   51.5385   22.0679 C.3       1 UNK         0.0000 
      9 H9         -0.9230   52.3748   21.9170 H         1 UNK         0.0000 
     10 C10         1.1858   52.0938   21.8610 C.3       1 UNK         0.0000 
     11 N11         1.5799   52.5469   23.1956 N.am      1 UNK         0.0000 
     12 C12         0.6505   52.0696   24.2257 C.3       1 UNK         0.0000 
     13 C13        -0.2509   51.0221   23.5356 C.3       1 UNK         0.0000 
     14 C14         0.3483   49.5825   23.6964 C.3       1 UNK         0.0000 
     15 C15         0.4277   49.1265   25.1708 C.3       1 UNK         0.0000 
     16 N16        -0.9799   49.2176   25.7961 N.4       1 UNK         0.0000 
     17 C17        -1.6544   50.5943   25.6352 C.3       1 UNK         0.0000 
     18 C18        -1.6782   50.9411   24.1331 C.3       1 UNK         0.0000 
     19 C19         2.7063   53.2968   23.3660 C.2       1 UNK         0.0000 
     20 O20         3.4207   53.6240   22.4172 O.2       1 UNK         0.0000 
     21 C21         3.1007   53.7199   24.6974 C.2       1 UNK         0.0000 
     22 C22         4.2683   54.3430   25.1278 C.2       1 UNK         0.0000 
     23 C23         4.1370   54.5622   26.4996 C.2       1 UNK         0.0000 
     24 C24         2.8819   54.0966   26.8598 C.2       1 UNK         0.0000 
     25 O25         2.2656   53.5882   25.7628 O.3       1 UNK         0.0000 
     26 C26         2.0993   54.1028   28.1175 C.ar      1 UNK         0.0000 
     27 C27         1.3142   52.9994   28.4628 C.ar      1 UNK         0.0000 
     28 C28         0.5726   53.0171   29.6410 C.ar      1 UNK         0.0000 
     29 C29         0.6119   54.1400   30.4624 C.ar      1 UNK         0.0000 
     30 C30         1.3737   55.2518   30.1093 C.ar      1 UNK         0.0000 
     31 C31         2.1275   55.2315   28.9389 C.ar      1 UNK         0.0000 
     32 F32        -0.0954   54.1508   31.6130 F         1 UNK         0.0000 
     33 O33         0.1305   46.7300   18.7443 O.3       1 UNK         0.0000 
     34 C34        -0.8641   46.1877   19.5377 C.ar      1 UNK         0.0000 
     35 C35        -1.3123   46.7278   20.7546 C.ar      1 UNK         0.0000 
     36 C36        -2.3394   46.1003   21.4616 C.ar      1 UNK         0.0000 
     37 C37        -2.8878   44.9248   20.9389 C.ar      1 UNK         0.0000 
     38 N38        -2.4630   44.3661   19.7768 N.ar      1 UNK         0.0000 
     39 C39        -1.4742   45.0039   19.0978 C.ar      1 UNK         0.0000 
     40 H40         2.8405   48.6742   18.7297 H         1 UNK         0.0000 
     41 H41         2.6811   46.9359   18.4787 H         1 UNK         0.0000 
     42 H42         1.9892   48.0525   17.3203 H         1 UNK         0.0000 
     43 H43         0.2937   49.6377   17.9887 H         1 UNK         0.0000 
     44 H44        -1.0263   48.9525   18.8507 H         1 UNK         0.0000 
     45 H45         1.1139   50.7259   19.9241 H         1 UNK         0.0000 
     46 H46         1.8861   51.2949   21.6086 H         1 UNK         0.0000 
     47 H47         1.2080   52.8912   21.1145 H         1 UNK         0.0000 
     48 H48         0.0241   52.9206   24.5037 H         1 UNK         0.0000 
     49 H49         1.1057   51.6854   25.1371 H         1 UNK         0.0000 
     50 H50        -0.2156   48.8475   23.1212 H         1 UNK         0.0000 
     51 H51         1.3602   49.5541   23.2850 H         1 UNK         0.0000 
     52 H52         0.7140   48.0833   25.2593 H         1 UNK         0.0000 
     53 H53         1.0980   49.7149   25.7956 H         1 UNK         0.0000 
     54 H54        -1.5695   48.5207   25.3698 H         1 UNK         0.0000 
     55 H55        -2.6540   50.4892   26.0581 H         1 UNK         0.0000 
     56 H56        -1.0865   51.3028   26.2392 H         1 UNK         0.0000 
     57 H57        -2.1625   51.9135   24.0246 H         1 UNK         0.0000 
     58 H58        -2.3071   50.2431   23.5767 H         1 UNK         0.0000 
     59 H59         5.1162   54.6038   24.5101 H         1 UNK         0.0000 
     60 H60         4.8642   55.0250   27.1487 H         1 UNK         0.0000 
     61 H61         1.2859   52.1265   27.8265 H         1 UNK         0.0000 
     62 H62        -0.0315   52.1648   29.9231 H         1 UNK         0.0000 
     63 H63         1.3884   56.1199   30.7544 H         1 UNK         0.0000 
     64 H64         2.7123   56.0968   28.6690 H         1 UNK         0.0000 
     65 H65        -0.8881   47.6335   21.1599 H         1 UNK         0.0000 
     66 H66        -2.7036   46.5263   22.3870 H         1 UNK         0.0000 
     67 H67        -3.6935   44.4193   21.4487 H         1 UNK         0.0000 
     68 H68        -1.1574   44.5503   18.1691 H         1 UNK         0.0000 
     69 H69        -0.9538   48.9509   26.7822 H         1 UNK         0.0000 
@<TRIPOS>BOND
     1    1    2 1    
     2    1   40 1    
     3    1   41 1    
     4    1   42 1    
     5    2    3 1    
     6    2    4 1    
     7    2   33 1    
     8    4    5 1    
     9    4   43 1    
    10    4   44 1    
    11    5    6 am   BACKBONE|DICT|INTERRES
    12    5   45 1    
    13    6    7 2    
    14    6    8 1    
    15    8    9 1    
    16    8   13 1    
    17    8   10 1    
    18   10   11 1    
    19   10   46 1    
    20   10   47 1    
    21   11   12 1    
    22   11   19 am   BACKBONE|DICT|INTERRES
    23   12   13 1    
    24   12   48 1    
    25   12   49 1    
    26   13   18 1    
    27   13   14 1    
    28   14   15 1    
    29   14   50 1    
    30   14   51 1    
    31   15   16 1    
    32   15   52 1    
    33   15   53 1    
    34   16   17 1    
    35   16   54 1    
    36   16   69 1    
    37   17   18 1    
    38   17   55 1    
    39   17   56 1    
    40   18   57 1    
    41   18   58 1    
    42   19   20 2    
    43   19   21 1    
    44   21   25 1    
    45   21   22 2    
    46   22   23 1    
    47   22   59 1    
    48   23   24 2    
    49   23   60 1    
    50   24   25 1    
    51   24   26 1    
    52   26   31 ar   
    53   26   27 ar   
    54   27   28 ar   
    55   27   61 1    
    56   28   29 ar   
    57   28   62 1    
    58   29   30 ar   
    59   29   32 1    
    60   30   31 ar   
    61   30   63 1    
    62   31   64 1    
    63   33   34 1    
    64   34   39 ar   
    65   34   35 ar   
    66   35   36 ar   
    67   35   65 1    
    68   36   37 ar   
    69   36   66 1    
    70   37   38 ar   
    71   37   67 1    
    72   38   39 ar   
    73   39   68 1    
@<TRIPOS>SUBSTRUCTURE
     1 UNK         1 GROUP             0       ****    0 ROOT    
