@<TRIPOS>MOLECULE
ZINC13019523_5931
47   49    1
SMALL
USER_CHARGES


@<TRIPOS>ATOM
      1 C1          5.2645   54.5327   19.7452 C.3       1 UNK         0.0000 
      2 C2          4.3920   54.1072   20.9426 C.3       1 UNK         0.0000 
      3 H3          3.5048   54.7386   20.9305 H         1 UNK         0.0000 
      4 C4          3.9506   52.6383   20.8057 C.2       1 UNK         0.0000 
      5 O5          4.7257   51.7227   21.0911 O.2       1 UNK         0.0000 
      6 N6          2.6718   52.4506   20.4210 N.am      1 UNK         0.0000 
      7 C7          1.9601   51.2443   20.4934 C.ar      1 UNK         0.0000 
      8 C8          2.0352   50.4625   21.6564 C.ar      1 UNK         0.0000 
      9 C9          1.2835   49.3010   21.7753 C.ar      1 UNK         0.0000 
     10 C10         0.4547   48.9019   20.7305 C.ar      1 UNK         0.0000 
     11 C11         0.3695   49.6726   19.5718 C.ar      1 UNK         0.0000 
     12 C12         1.1049   50.8604   19.4404 C.ar      1 UNK         0.0000 
     13 C13         0.9660   51.7070   18.1672 C.3       1 UNK         0.0000 
     14 F14         0.4560   52.8975   18.4817 F         1 UNK         0.0000 
     15 F15         2.1557   51.8906   17.5957 F         1 UNK         0.0000 
     16 F16         0.1591   51.1466   17.2632 F         1 UNK         0.0000 
     17 S17         5.1787   54.4701   22.5584 S.3       1 UNK         0.0000 
     18 C18         3.9069   54.0991   23.7615 C.ar      1 UNK         0.0000 
     19 N19         2.7681   53.5227   23.4691 N.2       1 UNK         0.0000 
     20 N20         2.0781   53.2975   24.6442 N.2       1 UNK         0.0000 
     21 C21         2.7876   53.7953   25.6281 C.ar      1 UNK         0.0000 
     22 N22         3.9633   54.3599   25.1288 N.pl3     1 UNK         0.0000 
     23 C23         4.9884   55.1263   25.8618 C.3       1 UNK         0.0000 
     24 C24         6.3793   54.5003   25.9459 C.2       1 UNK         0.0000 
     25 O25         6.7473   53.6967   25.0719 O.co2     1 UNK         0.0000 
     26 C26         2.3035   53.6928   27.0553 C.ar      1 UNK         0.0000 
     27 C27         2.3850   54.7380   27.9849 C.ar      1 UNK         0.0000 
     28 C28         1.8958   54.5831   29.2801 C.ar      1 UNK         0.0000 
     29 C29         1.3080   53.3778   29.6552 C.ar      1 UNK         0.0000 
     30 C30         1.1893   52.3370   28.7399 C.ar      1 UNK         0.0000 
     31 C31         1.6751   52.5018   27.4462 C.ar      1 UNK         0.0000 
     32 Cl32        0.7043   53.1749   31.2571 Cl        1 UNK         0.0000 
     33 H33         4.7383   54.3933   18.7995 H         1 UNK         0.0000 
     34 H34         5.5303   55.5877   19.8112 H         1 UNK         0.0000 
     35 H35         6.1917   53.9618   19.6837 H         1 UNK         0.0000 
     36 H36         2.1528   53.2530   20.0895 H         1 UNK         0.0000 
     37 H37         2.6637   50.7633   22.4823 H         1 UNK         0.0000 
     38 H38         1.3476   48.7180   22.6827 H         1 UNK         0.0000 
     39 H39        -0.1264   47.9965   20.8195 H         1 UNK         0.0000 
     40 H40        -0.2849   49.3404   18.7793 H         1 UNK         0.0000 
     41 H41         5.0997   56.0962   25.3793 H         1 UNK         0.0000 
     42 H42         4.6623   55.2951   26.8802 H         1 UNK         0.0000 
     43 H43         2.7828   55.6959   27.7021 H         1 UNK         0.0000 
     44 H44         1.9588   55.4016   29.9822 H         1 UNK         0.0000 
     45 H45         0.7115   51.4100   29.0246 H         1 UNK         0.0000 
     46 H46         1.5487   51.6950   26.7399 H         1 UNK         0.0000 
     47 O47         7.1041   54.8976   26.8802 O.co2     1 UNK         0.0000 
@<TRIPOS>BOND
     1    1    2 1    
     2    1   33 1    
     3    1   34 1    
     4    1   35 1    
     5    2    3 1    
     6    2    4 1    
     7    2   17 1    
     8    4    5 2    
     9    4    6 am   BACKBONE|DICT|INTERRES
    10    6    7 1    
    11    6   36 1    
    12    7   12 ar   
    13    7    8 ar   
    14    8    9 ar   
    15    8   37 1    
    16    9   10 ar   
    17    9   38 1    
    18   10   11 ar   
    19   10   39 1    
    20   11   12 ar   
    21   11   40 1    
    22   12   13 1    
    23   13   14 1    
    24   13   15 1    
    25   13   16 1    
    26   17   18 1    
    27   18   22 ar   
    28   18   19 ar   
    29   19   20 ar   
    30   20   21 ar   
    31   21   22 ar   
    32   21   26 1    
    33   22   23 1    
    34   23   24 1    
    35   23   41 1    
    36   23   42 1    
    37   24   25 2    
    38   24   47 1    
    39   26   31 ar   
    40   26   27 ar   
    41   27   28 ar   
    42   27   43 1    
    43   28   29 ar   
    44   28   44 1    
    45   29   30 ar   
    46   29   32 1    
    47   30   31 ar   
    48   30   45 1    
    49   31   46 1    
@<TRIPOS>SUBSTRUCTURE
     1 UNK         1 GROUP             0       ****    0 ROOT    
