@<TRIPOS>MOLECULE
ZINC23767207_2552
50   51    1
SMALL
USER_CHARGES


@<TRIPOS>ATOM
      1 C1          6.3241   54.4410   22.2930 C.3       1 UNK         0.0000 
      2 C2          5.5871   54.4699   23.6158 C.ar      1 UNK         0.0000 
      3 C3          6.2990   54.8629   24.7528 C.ar      1 UNK         0.0000 
      4 C4          5.6649   54.9307   25.9888 C.ar      1 UNK         0.0000 
      5 C5          4.3155   54.5994   26.0915 C.ar      1 UNK         0.0000 
      6 C6          3.6026   54.1842   24.9684 C.ar      1 UNK         0.0000 
      7 C7          4.2299   54.1126   23.7219 C.ar      1 UNK         0.0000 
      8 C8          3.4085   53.7036   22.5062 C.3       1 UNK         0.0000 
      9 S9          3.4808   54.7400   27.6351 S.3       1 UNK         0.0000 
     10 C10         4.2698   53.6769   28.8940 C.3       1 UNK         0.0000 
     11 H11         4.7229   54.3613   29.6116 H         1 UNK         0.0000 
     12 C12         5.4019   52.7883   28.3387 C.3       1 UNK         0.0000 
     13 C13         3.1986   52.9003   29.6887 C.2       1 UNK         0.0000 
     14 O14         3.3138   51.6969   29.9211 O.2       1 UNK         0.0000 
     15 N15         2.1215   53.6034   30.0819 N.am      1 UNK         0.0000 
     16 C16         0.8612   53.0010   30.5230 C.3       1 UNK         0.0000 
     17 H17         1.0992   52.1158   31.1209 H         1 UNK         0.0000 
     18 C18         0.0963   53.9610   31.4479 C.3       1 UNK         0.0000 
     19 C19        -0.0233   52.5316   29.3551 C.ar      1 UNK         0.0000 
     20 C20        -1.1061   51.6968   29.6257 C.ar      1 UNK         0.0000 
     21 C21        -1.9553   51.2966   28.6002 C.ar      1 UNK         0.0000 
     22 C22        -1.6776   51.6502   27.2814 C.ar      1 UNK         0.0000 
     23 C23        -0.5785   52.4508   26.9902 C.ar      1 UNK         0.0000 
     24 C24         0.2334   52.8985   28.0247 C.ar      1 UNK         0.0000 
     25 S25        -2.7016   51.0112   25.9684 S.o2      1 UNK         0.0000 
     26 O26        -4.0697   50.9263   26.4893 O.2       1 UNK         0.0000 
     27 O27        -2.4000   51.7632   24.7453 O.2       1 UNK         0.0000 
     28 N28        -2.1154   49.3852   25.7488 N.pl3     1 UNK         0.0000 
     29 H29         6.2977   55.4195   21.8127 H         1 UNK         0.0000 
     30 H30         7.3655   54.1685   22.4776 H         1 UNK         0.0000 
     31 H31         5.9045   53.6989   21.6132 H         1 UNK         0.0000 
     32 H32         7.3426   55.1317   24.6723 H         1 UNK         0.0000 
     33 H33         6.2131   55.2573   26.8601 H         1 UNK         0.0000 
     34 H34         2.5561   53.9338   25.0659 H         1 UNK         0.0000 
     35 H35         3.7428   52.7383   22.1249 H         1 UNK         0.0000 
     36 H36         2.3421   53.6412   22.7284 H         1 UNK         0.0000 
     37 H37         3.5254   54.4361   21.7058 H         1 UNK         0.0000 
     38 H38         5.5044   51.8552   28.8822 H         1 UNK         0.0000 
     39 H39         5.2093   52.4967   27.3090 H         1 UNK         0.0000 
     40 H40         6.3639   53.3005   28.3585 H         1 UNK         0.0000 
     41 H41         2.0710   54.5684   29.7890 H         1 UNK         0.0000 
     42 H42        -0.7504   53.4519   31.9049 H         1 UNK         0.0000 
     43 H43         0.7044   54.3168   32.2759 H         1 UNK         0.0000 
     44 H44        -0.2703   54.8342   30.9076 H         1 UNK         0.0000 
     45 H45        -1.3042   51.3662   30.6374 H         1 UNK         0.0000 
     46 H46        -2.7847   50.6408   28.8290 H         1 UNK         0.0000 
     47 H47        -0.3487   52.7249   25.9705 H         1 UNK         0.0000 
     48 H48         1.0610   53.5358   27.7690 H         1 UNK         0.0000 
     49 H49        -1.1816   49.3568   25.3371 H         1 UNK         0.0000 
     50 H50        -2.0957   48.8819   26.6502 H         1 UNK         0.0000 
@<TRIPOS>BOND
     1    1    2 1    
     2    1   29 1    
     3    1   30 1    
     4    1   31 1    
     5    2    7 ar   
     6    2    3 ar   
     7    3    4 ar   
     8    3   32 1    
     9    4    5 ar   
    10    4   33 1    
    11    5    6 ar   
    12    5    9 1    
    13    6    7 ar   
    14    6   34 1    
    15    7    8 1    
    16    8   35 1    
    17    8   36 1    
    18    8   37 1    
    19    9   10 1    
    20   10   11 1    
    21   10   12 1    
    22   10   13 1    
    23   12   38 1    
    24   12   39 1    
    25   12   40 1    
    26   13   14 2    
    27   13   15 am   BACKBONE|DICT|INTERRES
    28   15   16 1    
    29   15   41 1    
    30   16   17 1    
    31   16   18 1    
    32   16   19 1    
    33   18   42 1    
    34   18   43 1    
    35   18   44 1    
    36   19   24 ar   
    37   19   20 ar   
    38   20   21 ar   
    39   20   45 1    
    40   21   22 ar   
    41   21   46 1    
    42   22   23 ar   
    43   22   25 1    
    44   23   24 ar   
    45   23   47 1    
    46   24   48 1    
    47   25   26 2    
    48   25   27 2    
    49   25   28 1    
    50   28   49 1    
    51   28   50 1    
@<TRIPOS>SUBSTRUCTURE
     1 UNK         1 GROUP             0       ****    0 ROOT    
