@<TRIPOS>MOLECULE
ZINC09281119_207
45   49    1
SMALL
USER_CHARGES


@<TRIPOS>ATOM
      1 C1          8.0353   55.6968   20.3648 C.ar      1 UNK         0.0000 
      2 C2          7.5074   55.6038   21.6481 C.ar      1 UNK         0.0000 
      3 C3          6.2696   55.0025   21.8551 C.ar      1 UNK         0.0000 
      4 C4          5.5034   54.5305   20.7811 C.ar      1 UNK         0.0000 
      5 C5          6.0280   54.6805   19.4849 C.ar      1 UNK         0.0000 
      6 C6          7.2943   55.2375   19.2814 C.ar      1 UNK         0.0000 
      7 C7          5.2511   54.2419   18.3302 C.2       1 UNK         0.0000 
      8 C8          4.0699   53.6191   18.4265 C.2       1 UNK         0.0000 
      9 C9          4.0717   53.9937   20.9895 C.3       1 UNK         0.0000 
     10 H10         3.4723   54.8964   21.0713 H         1 UNK         0.0000 
     11 C11         3.8119   53.0102   22.1572 C.3       1 UNK         0.0000 
     12 H12         4.6857   52.9280   22.8054 H         1 UNK         0.0000 
     13 C13         3.4319   51.6692   21.5984 C.3       1 UNK         0.0000 
     14 H14         4.1787   50.9277   21.8864 H         1 UNK         0.0000 
     15 C15         3.3950   51.7879   20.0452 C.3       1 UNK         0.0000 
     16 H16         4.3044   51.3437   19.6553 H         1 UNK         0.0000 
     17 C17         2.1551   51.2555   19.2805 C.2       1 UNK         0.0000 
     18 O18         1.0738   51.8365   19.3565 O.2       1 UNK         0.0000 
     19 N19         2.3044   50.1737   18.5199 N.am      1 UNK         0.0000 
     20 C20         2.1409   51.2998   22.3260 C.2       1 UNK         0.0000 
     21 O21         1.5926   50.2004   22.2376 O.2       1 UNK         0.0000 
     22 N22         1.7664   52.3528   23.0974 N.am      1 UNK         0.0000 
     23 C23         2.6261   53.4063   23.0370 C.2       1 UNK         0.0000 
     24 O24         2.5317   54.4865   23.6214 O.2       1 UNK         0.0000 
     25 C25         0.6032   52.3293   23.8906 C.ar      1 UNK         0.0000 
     26 C26         0.7058   52.1798   25.2789 C.ar      1 UNK         0.0000 
     27 C27        -0.4489   52.0967   26.0530 C.ar      1 UNK         0.0000 
     28 C28        -1.6988   52.1843   25.4424 C.ar      1 UNK         0.0000 
     29 C29        -1.8062   52.3382   24.0615 C.ar      1 UNK         0.0000 
     30 C30        -0.6549   52.4025   23.2815 C.ar      1 UNK         0.0000 
     31 Br31       -3.2754   52.1009   26.5049 Br        1 UNK         0.0000 
     32 H32         9.0115   56.1352   20.2078 H         1 UNK         0.0000 
     33 H33         8.0651   55.9988   22.4815 H         1 UNK         0.0000 
     34 H34         5.8834   54.9456   22.8625 H         1 UNK         0.0000 
     35 H35         7.7040   55.3304   18.2851 H         1 UNK         0.0000 
     36 H36         5.6517   54.4032   17.3384 H         1 UNK         0.0000 
     37 H37         3.5278   53.2694   17.5572 H         1 UNK         0.0000 
     38 H38         3.2295   49.8558   18.2290 H         1 UNK         0.0000 
     39 H39         1.5012   49.8064   18.0358 H         1 UNK         0.0000 
     40 H40         1.6725   52.1095   25.7560 H         1 UNK         0.0000 
     41 H41        -0.3772   51.9662   27.1233 H         1 UNK         0.0000 
     42 H42        -2.7799   52.3954   23.5983 H         1 UNK         0.0000 
     43 H43        -0.7389   52.4950   22.2079 H         1 UNK         0.0000 
     44 N44         3.4684   53.2971   19.7345 N.4       1 UNK         0.0000 
     45 H45         2.5067   53.6260   19.7103 H         1 UNK         0.0000 
@<TRIPOS>BOND
     1    1    6 ar   
     2    1    2 ar   
     3    1   32 1    
     4    2    3 ar   
     5    2   33 1    
     6    3    4 ar   
     7    3   34 1    
     8    4    9 1    
     9    4    5 ar   
    10    5    6 ar   
    11    5    7 1    
    12    6   35 1    
    13    7    8 2    
    14    7   36 1    
    15    8   37 1    
    16    8   44 1    
    17    9   10 1    
    18    9   11 1    
    19    9   44 1    
    20   11   12 1    
    21   11   23 1    
    22   11   13 1    
    23   13   14 1    
    24   13   15 1    
    25   13   20 1    
    26   15   16 1    
    27   15   17 1    
    28   15   44 1    
    29   17   18 2    
    30   17   19 am   BACKBONE|DICT|INTERRES
    31   19   38 1    
    32   19   39 1    
    33   20   21 2    
    34   20   22 am   BACKBONE|DICT|INTERRES
    35   22   23 am   BACKBONE|DICT|INTERRES
    36   22   25 1    
    37   23   24 2    
    38   25   30 ar   
    39   25   26 ar   
    40   26   27 ar   
    41   26   40 1    
    42   27   28 ar   
    43   27   41 1    
    44   28   29 ar   
    45   28   31 1    
    46   29   30 ar   
    47   29   42 1    
    48   30   43 1    
    49   44   45 1    
@<TRIPOS>SUBSTRUCTURE
     1 UNK         1 GROUP             0       ****    0 ROOT    
