ZINC22783320_2429
                    3D
 Schrodinger Suite 2024-2.
 65 70  0  0  1  0            999 V2000
   -4.3845   51.2593   23.3244 C   0  0  0  0  0  0
   -2.9468   50.7441   23.4283 C   0  0  1  0  0  0
   -3.0183   49.6552   23.3776 H   0  0  0  0  0  0
   -2.0521   51.2057   22.2398 C   0  0  0  0  0  0
   -2.4135   52.0720   21.4419 O   0  0  0  0  0  0
   -0.8688   50.5806   22.1527 N   0  0  0  0  0  0
    0.2283   50.7381   21.2043 C   0  0  0  0  0  0
   -0.1313   50.1764   19.7952 C   0  0  0  0  0  0
    1.0943   50.2284   18.8452 C   0  0  2  0  0  0
    2.2439   49.3803   19.4505 C   0  0  0  0  0  0
    2.6367   49.9598   20.8307 C   0  0  2  0  0  0
    1.4180   49.9118   21.7697 C   0  0  0  0  0  0
    3.1154   51.4206   20.6707 C   0  0  0  0  0  0
    1.9627   52.2672   20.0781 C   0  0  1  0  0  0
    1.5670   51.6974   18.6913 C   0  0  0  0  0  0
    0.7318   52.2098   21.0288 C   0  0  0  0  0  0
   -2.3375   51.0749   24.7384 N   0  0  0  0  0  0
   -2.3121   52.4933   25.1434 C   0  0  0  0  0  0
   -1.9649   52.6483   26.6386 C   0  0  0  0  0  0
   -0.6417   51.9186   26.9329 N   0  3  0  0  0  0
   -0.8538   50.4229   26.6410 C   0  0  0  0  0  0
   -1.1926   50.2400   25.1545 C   0  0  0  0  0  0
   -0.1311   52.1399   28.3853 C   0  0  0  0  0  0
    1.3389   52.5774   28.3295 C   0  0  0  0  0  0
    2.0452   52.2178   29.3507 N   0  5  0  0  0  0
    3.3574   52.4801   29.4756 C   0  0  0  0  0  0
    4.0392   52.1043   30.4261 O   0  0  0  0  0  0
    3.9207   53.2403   28.3454 C   0  0  0  0  0  0
    3.0691   53.5869   27.2884 C   0  0  0  0  0  0
    1.7416   53.2476   27.2871 N   0  0  0  0  0  0
    3.7472   54.2848   26.2802 C   0  0  0  0  0  0
    5.0997   54.4548   26.5616 C   0  0  0  0  0  0
    5.5589   53.7464   28.0828 S   0  0  0  0  0  0
   -4.8641   50.8570   22.4304 H   0  0  0  0  0  0
   -4.9561   50.9297   24.1915 H   0  0  0  0  0  0
   -4.4190   52.3446   23.2821 H   0  0  0  0  0  0
   -0.6906   49.8964   22.8699 H   0  0  0  0  0  0
   -0.9572   50.7413   19.3637 H   0  0  0  0  0  0
   -0.4851   49.1473   19.8799 H   0  0  0  0  0  0
    0.8227   49.8270   17.8665 H   0  0  0  0  0  0
    1.9405   48.3347   19.5457 H   0  0  0  0  0  0
    3.1044   49.3815   18.7829 H   0  0  0  0  0  0
    3.4222   49.3632   21.2831 H   0  0  0  0  0  0
    1.1215   48.8730   21.9269 H   0  0  0  0  0  0
    1.7058   50.2868   22.7559 H   0  0  0  0  0  0
    3.9900   51.4640   20.0189 H   0  0  0  0  0  0
    3.4328   51.8292   21.6304 H   0  0  0  0  0  0
    2.3053   53.2967   19.9631 H   0  0  0  0  0  0
    0.7831   52.3045   18.2420 H   0  0  0  0  0  0
    2.4170   51.7465   18.0073 H   0  0  0  0  0  0
    0.9898   52.6428   21.9961 H   0  0  0  0  0  0
   -0.0624   52.8387   20.6271 H   0  0  0  0  0  0
   -1.5025   52.9627   24.5780 H   0  0  0  0  0  0
   -3.2466   53.0138   24.9384 H   0  0  0  0  0  0
   -2.7403   52.2296   27.2844 H   0  0  0  0  0  0
   -1.8024   53.6966   26.8817 H   0  0  0  0  0  0
   -1.6690   50.0969   27.2821 H   0  0  0  0  0  0
    0.0711   49.9041   26.8935 H   0  0  0  0  0  0
   -1.3626   49.1837   24.9454 H   0  0  0  0  0  0
   -0.3124   50.5909   24.6126 H   0  0  0  0  0  0
   -0.7333   52.9243   28.8412 H   0  0  0  0  0  0
   -0.2846   51.2192   28.9511 H   0  0  0  0  0  0
    3.2653   54.6402   25.3801 H   0  0  0  0  0  0
    5.8435   54.9478   25.9511 H   0  0  0  0  0  0
    0.0952   52.2951   26.3440 H   0  0  0  0  0  0
  1  2  1  0  0  0
  1 34  1  0  0  0
  1 35  1  0  0  0
  1 36  1  0  0  0
  2  3  1  0  0  0
  2  4  1  0  0  0
  2 17  1  0  0  0
  4  5  2  0  0  0
  4  6  1  0  0  0
  6  7  1  0  0  0
  6 37  1  0  0  0
  7 12  1  0  0  0
  7 16  1  0  0  0
  7  8  1  0  0  0
  8  9  1  0  0  0
  8 38  1  0  0  0
  8 39  1  0  0  0
  9 15  1  0  0  0
  9 10  1  0  0  0
  9 40  1  0  0  0
 10 11  1  0  0  0
 10 41  1  0  0  0
 10 42  1  0  0  0
 11 12  1  0  0  0
 11 13  1  0  0  0
 11 43  1  0  0  0
 12 44  1  0  0  0
 12 45  1  0  0  0
 13 14  1  0  0  0
 13 46  1  0  0  0
 13 47  1  0  0  0
 14 15  1  0  0  0
 14 16  1  0  0  0
 14 48  1  0  0  0
 15 49  1  0  0  0
 15 50  1  0  0  0
 16 51  1  0  0  0
 16 52  1  0  0  0
 17 22  1  0  0  0
 17 18  1  0  0  0
 18 19  1  0  0  0
 18 53  1  0  0  0
 18 54  1  0  0  0
 19 20  1  0  0  0
 19 55  1  0  0  0
 19 56  1  0  0  0
 20 21  1  0  0  0
 20 23  1  0  0  0
 20 65  1  0  0  0
 21 22  1  0  0  0
 21 57  1  0  0  0
 21 58  1  0  0  0
 22 59  1  0  0  0
 22 60  1  0  0  0
 23 24  1  0  0  0
 23 61  1  0  0  0
 23 62  1  0  0  0
 24 30  2  0  0  0
 24 25  1  0  0  0
 25 26  1  0  0  0
 26 27  2  0  0  0
 26 28  1  0  0  0
 28 33  1  0  0  0
 28 29  2  0  0  0
 29 30  1  0  0  0
 29 31  1  0  0  0
 31 32  2  0  0  0
 31 63  1  0  0  0
 32 33  1  0  0  0
 32 64  1  0  0  0
M  CHG  2  20   1  25  -1
M  END
> <i_i_glide_confnum>
9

> <i_i_glide_lignum>
2430

> <i_i_glide_posenum>
260

> <i_i_glide_rotatable_bonds>
6

> <i_m_Source_File_Index>
5712

> <b_m_subgroup_collapsed>
0

> <r_i_docking_score>
-4.6739

> <r_i_glide_ecoul>
-7.02742

> <r_i_glide_eff_state_penalty>
0

> <r_i_glide_einternal>
5.82635

> <r_i_glide_emodel>
-52.2512

> <r_i_glide_energy>
-41.2025

> <r_i_glide_erotb>
0.483905

> <r_i_glide_esite>
-0.031611

> <r_i_glide_evdw>
-34.1751

> <r_i_glide_gscore>
-4.6739

> <r_i_glide_hbond>
-0.157988

> <r_i_glide_ligand_efficiency>
-0.146059

> <r_i_glide_ligand_efficiency_ln>
-1.04661

> <r_i_glide_ligand_efficiency_sa>
-0.46371

> <r_i_glide_lipo>
-1.63453

> <r_i_glide_metal>
0

> <r_i_glide_rewards>
-0.570812

> <s_i_glide_gridfile>
wee1_glide-grid

> <s_m_Source_File>
wee1_decoys_glide_SP.sdf

> <s_m_Source_Path>
/Users/zhangxujun/Desktop

> <s_m_entry_id>
5987

> <s_m_entry_name>
wee1_decoys_glide_SP.5712

> <s_m_subgroup_title>
wee1_decoys_glide_SP

> <s_m_subgroupid>
wee1_decoys_glide_SP


$$$$
