@<TRIPOS>MOLECULE
ZINC09846785_1216
61   65    1
SMALL
USER_CHARGES


@<TRIPOS>ATOM
      1 C1          5.5203   54.8966   20.6948 C.2       1 UNK         0.0000 
      2 C2          4.5934   54.3723   21.6022 C.2       1 UNK         0.0000 
      3 C3          5.0475   54.3402   22.9211 C.2       1 UNK         0.0000 
      4 S4          6.7034   54.9011   22.9920 S.3       1 UNK         0.0000 
      5 C5          6.7044   55.2821   21.3025 C.2       1 UNK         0.0000 
      6 C6          4.2240   53.9283   24.0641 C.2       1 UNK         0.0000 
      7 C7          4.4409   53.9304   25.4083 C.2       1 UNK         0.0000 
      8 C8          5.7645   54.3995   26.0582 C.3       1 UNK         0.0000 
      9 C9          6.0208   53.9160   27.5023 C.3       1 UNK         0.0000 
     10 C10         4.7568   53.9920   28.3565 C.3       1 UNK         0.0000 
     11 C11         3.6701   53.0995   27.7226 C.3       1 UNK         0.0000 
     12 H12         4.0843   52.0967   27.7214 H         1 UNK         0.0000 
     13 C13         3.3629   53.4535   26.2820 C.2       1 UNK         0.0000 
     14 N14         2.1431   53.1733   25.9939 N.2       1 UNK         0.0000 
     15 N15         1.4827   52.7430   27.1160 N.am      1 UNK         0.0000 
     16 C16         2.2753   52.9938   28.3201 C.3       1 UNK         0.0000 
     17 H17         2.2349   52.1488   29.0124 H         1 UNK         0.0000 
     18 C18         1.7819   54.1852   29.1192 C.2       1 UNK         0.0000 
     19 C19         1.1878   54.2173   30.3723 C.2       1 UNK         0.0000 
     20 C20         1.0391   55.5064   30.8818 C.2       1 UNK         0.0000 
     21 C21         1.4602   56.4928   30.0221 C.2       1 UNK         0.0000 
     22 S22         1.9044   55.8072   28.5151 S.3       1 UNK         0.0000 
     23 C23         0.3767   51.9483   27.1067 C.2       1 UNK         0.0000 
     24 O24        -0.0636   51.4475   28.1457 O.2       1 UNK         0.0000 
     25 C25        -0.3819   51.6732   25.7903 C.3       1 UNK         0.0000 
     26 C26        -2.5955   50.3753   25.4832 C.3       1 UNK         0.0000 
     27 C27        -3.2797   49.0411   25.8502 C.3       1 UNK         0.0000 
     28 C28        -2.5400   47.8175   25.2415 C.3       1 UNK         0.0000 
     29 C29        -1.0011   47.8497   25.4313 C.3       1 UNK         0.0000 
     30 C30        -0.3679   49.2117   25.1058 C.3       1 UNK         0.0000 
     31 C31        -3.1034   46.4973   25.8208 C.2       1 UNK         0.0000 
     32 O32        -3.6955   45.6968   25.1017 O.2       1 UNK         0.0000 
     33 N33        -2.8957   46.2415   27.1135 N.am      1 UNK         0.0000 
     34 H34         5.3245   55.0035   19.6374 H         1 UNK         0.0000 
     35 H35         3.6035   54.0558   21.3039 H         1 UNK         0.0000 
     36 H36         7.5854   55.7005   20.8375 H         1 UNK         0.0000 
     37 H37         3.2649   53.5717   23.7114 H         1 UNK         0.0000 
     38 H38         6.6251   54.0750   25.4796 H         1 UNK         0.0000 
     39 H39         5.7793   55.4901   26.0413 H         1 UNK         0.0000 
     40 H40         6.3835   52.8877   27.4822 H         1 UNK         0.0000 
     41 H41         6.8204   54.4997   27.9603 H         1 UNK         0.0000 
     42 H42         4.4592   55.0341   28.4401 H         1 UNK         0.0000 
     43 H43         4.9687   53.6502   29.3683 H         1 UNK         0.0000 
     44 H44         0.9468   53.3270   30.9369 H         1 UNK         0.0000 
     45 H45         0.7045   55.6967   31.8871 H         1 UNK         0.0000 
     46 H46         1.4990   57.5612   30.1828 H         1 UNK         0.0000 
     47 H47         0.2387   51.6818   24.8924 H         1 UNK         0.0000 
     48 H48        -1.1544   52.4370   25.6941 H         1 UNK         0.0000 
     49 H49        -2.6286   50.6063   24.4166 H         1 UNK         0.0000 
     50 H50        -3.0501   51.1869   26.0551 H         1 UNK         0.0000 
     51 H51        -4.3084   49.0951   25.4894 H         1 UNK         0.0000 
     52 H52        -3.2617   49.0107   26.9421 H         1 UNK         0.0000 
     53 H53        -2.7462   47.7913   24.1698 H         1 UNK         0.0000 
     54 H54        -0.7651   47.6974   26.4817 H         1 UNK         0.0000 
     55 H55        -0.5024   47.1037   24.8110 H         1 UNK         0.0000 
     56 H56        -0.4226   49.4728   24.0472 H         1 UNK         0.0000 
     57 H57         0.6729   49.2218   25.4389 H         1 UNK         0.0000 
     58 H58        -2.4117   46.9427   27.6816 H         1 UNK         0.0000 
     59 H59        -3.2081   45.3799   27.5418 H         1 UNK         0.0000 
     60 N60        -1.1118   50.2994   25.9118 N.4       1 UNK         0.0000 
     61 H61        -1.0887   50.0530   26.9016 H         1 UNK         0.0000 
@<TRIPOS>BOND
     1    1    5 2    
     2    1    2 1    
     3    1   34 1    
     4    2    3 2    
     5    2   35 1    
     6    3    4 1    
     7    3    6 1    
     8    4    5 1    
     9    5   36 1    
    10    6    7 2    
    11    6   37 1    
    12    7   13 1    
    13    7    8 1    
    14    8    9 1    
    15    8   38 1    
    16    8   39 1    
    17    9   10 1    
    18    9   40 1    
    19    9   41 1    
    20   10   11 1    
    21   10   42 1    
    22   10   43 1    
    23   11   12 1    
    24   11   16 1    
    25   11   13 1    
    26   13   14 2    
    27   14   15 1    
    28   15   16 1    
    29   15   23 am   BACKBONE|DICT|INTERRES
    30   16   17 1    
    31   16   18 1    
    32   18   22 1    
    33   18   19 2    
    34   19   20 1    
    35   19   44 1    
    36   20   21 2    
    37   20   45 1    
    38   21   22 1    
    39   21   46 1    
    40   23   24 2    
    41   23   25 1    
    42   25   47 1    
    43   25   48 1    
    44   25   60 1    
    45   26   27 1    
    46   26   49 1    
    47   26   50 1    
    48   26   60 1    
    49   27   28 1    
    50   27   51 1    
    51   27   52 1    
    52   28   29 1    
    53   28   31 1    
    54   28   53 1    
    55   29   30 1    
    56   29   54 1    
    57   29   55 1    
    58   30   56 1    
    59   30   57 1    
    60   30   60 1    
    61   31   32 2    
    62   31   33 am   BACKBONE|DICT|INTERRES
    63   33   58 1    
    64   33   59 1    
    65   60   61 1    
@<TRIPOS>SUBSTRUCTURE
     1 UNK         1 GROUP             0       ****    0 ROOT    
