ZINC53049673_6205
                    3D
 Schrodinger Suite 2024-2.
 58 59  0  0  1  0            999 V2000
    3.0757   53.1342   15.4889 C   0  0  0  0  0  0
    4.4736   52.8971   16.0733 C   0  0  1  0  0  0
    4.4965   51.9248   16.5692 H   0  0  0  0  0  0
    5.4816   52.8973   14.8993 C   0  0  0  0  0  0
    6.0259   53.9515   14.5608 O   0  0  0  0  0  0
    5.6736   51.6941   14.3042 N   0  0  0  0  0  0
    6.5534   51.3166   13.3436 C   0  0  0  0  0  0
    6.5083   50.1723   12.8966 O   0  0  0  0  0  0
    7.4789   52.2087   12.9321 N   0  0  0  0  0  0
    8.6593   51.9325   12.1134 C   0  0  0  0  0  0
    9.3213   53.2476   11.6702 C   0  0  0  0  0  0
    9.6675   51.0012   12.8177 C   0  0  0  0  0  0
    4.9379   53.8971   17.1850 N   0  3  2  0  0  0
    6.3389   53.5273   17.7596 C   0  0  0  0  0  0
    6.7193   54.4623   18.9191 C   0  0  0  0  0  0
    5.6287   54.3468   20.0057 C   0  0  2  0  0  0
    4.3076   54.8994   19.4418 C   0  0  0  0  0  0
    3.8486   53.9791   18.2963 C   0  0  0  0  0  0
    6.0573   55.1484   21.2565 C   0  0  0  0  0  0
    6.4590   56.3086   21.1443 O   0  0  0  0  0  0
    6.0092   54.4938   22.4318 N   0  0  0  0  0  0
    6.5232   54.9922   23.7097 C   0  0  0  0  0  0
    5.6875   54.6405   24.9404 C   0  0  0  0  0  0
    6.3355   54.4321   26.1619 C   0  0  0  0  0  0
    5.6025   54.1140   27.3007 C   0  0  0  0  0  0
    4.2186   53.9836   27.2187 C   0  0  0  0  0  0
    3.5664   54.1667   26.0022 C   0  0  0  0  0  0
    4.2978   54.4942   24.8633 C   0  0  0  0  0  0
    3.5061   53.6856   28.3270 F   0  0  0  0  0  0
    2.8750   52.4647   14.6503 H   0  0  0  0  0  0
    2.3123   52.9309   16.2413 H   0  0  0  0  0  0
    2.9734   54.1665   15.1492 H   0  0  0  0  0  0
    5.0929   50.9408   14.6417 H   0  0  0  0  0  0
    7.3447   53.1698   13.2157 H   0  0  0  0  0  0
    8.3194   51.4295   11.2043 H   0  0  0  0  0  0
   10.2109   53.0513   11.0721 H   0  0  0  0  0  0
    9.6428   53.8422   12.5297 H   0  0  0  0  0  0
    8.6536   53.8525   11.0540 H   0  0  0  0  0  0
   10.5770   50.8989   12.2268 H   0  0  0  0  0  0
    9.9662   51.3906   13.7924 H   0  0  0  0  0  0
    9.2682   49.9932   12.9410 H   0  0  0  0  0  0
    6.2914   52.4958   18.0861 H   0  0  0  0  0  0
    7.0726   53.6287   16.9603 H   0  0  0  0  0  0
    7.6879   54.1030   19.2753 H   0  0  0  0  0  0
    6.8003   55.4722   18.5120 H   0  0  0  0  0  0
    5.5112   53.3138   20.3426 H   0  0  0  0  0  0
    4.4194   55.9000   19.0191 H   0  0  0  0  0  0
    3.5049   54.8533   20.1812 H   0  0  0  0  0  0
    2.9569   54.4104   17.8398 H   0  0  0  0  0  0
    3.6422   52.9574   18.6328 H   0  0  0  0  0  0
    5.7154   53.5289   22.4289 H   0  0  0  0  0  0
    7.5042   54.5388   23.8274 H   0  0  0  0  0  0
    6.7026   56.0699   23.6962 H   0  0  0  0  0  0
    7.4099   54.5041   26.2380 H   0  0  0  0  0  0
    6.1020   53.9623   28.2442 H   0  0  0  0  0  0
    2.4927   54.0605   25.9481 H   0  0  0  0  0  0
    3.7799   54.6440   23.9284 H   0  0  0  0  0  0
    5.0315   54.8172   16.7781 H   0  0  0  0  0  0
  1  2  1  0  0  0
  1 30  1  0  0  0
  1 31  1  0  0  0
  1 32  1  0  0  0
  2  3  1  0  0  0
  2  4  1  0  0  0
  2 13  1  0  0  0
  4  5  2  0  0  0
  4  6  1  0  0  0
  6  7  1  0  0  0
  6 33  1  0  0  0
  7  8  2  0  0  0
  7  9  1  0  0  0
  9 10  1  0  0  0
  9 34  1  0  0  0
 10 11  1  0  0  0
 10 12  1  0  0  0
 10 35  1  0  0  0
 11 36  1  0  0  0
 11 37  1  0  0  0
 11 38  1  0  0  0
 12 39  1  0  0  0
 12 40  1  0  0  0
 12 41  1  0  0  0
 13 18  1  0  0  0
 13 14  1  0  0  0
 13 58  1  0  0  0
 14 15  1  0  0  0
 14 42  1  0  0  0
 14 43  1  0  0  0
 15 16  1  0  0  0
 15 44  1  0  0  0
 15 45  1  0  0  0
 16 17  1  0  0  0
 16 19  1  0  0  0
 16 46  1  0  0  0
 17 18  1  0  0  0
 17 47  1  0  0  0
 17 48  1  0  0  0
 18 49  1  0  0  0
 18 50  1  0  0  0
 19 20  2  0  0  0
 19 21  1  0  0  0
 21 22  1  0  0  0
 21 51  1  0  0  0
 22 23  1  0  0  0
 22 52  1  0  0  0
 22 53  1  0  0  0
 23 28  2  0  0  0
 23 24  1  0  0  0
 24 25  2  0  0  0
 24 54  1  0  0  0
 25 26  1  0  0  0
 25 55  1  0  0  0
 26 27  2  0  0  0
 26 29  1  0  0  0
 27 28  1  0  0  0
 27 56  1  0  0  0
 28 57  1  0  0  0
M  CHG  1  13   1
M  END
> <i_i_glide_confnum>
74

> <i_i_glide_lignum>
6206

> <i_i_glide_posenum>
289

> <i_i_glide_rotatable_bonds>
10

> <i_m_Source_File_Index>
561

> <b_m_subgroup_collapsed>
0

> <r_i_docking_score>
-3.83178

> <r_i_glide_ecoul>
-4.33286

> <r_i_glide_eff_state_penalty>
0

> <r_i_glide_einternal>
6.18487

> <r_i_glide_emodel>
-41.5242

> <r_i_glide_energy>
-34.3288

> <r_i_glide_erotb>
1.00942

> <r_i_glide_esite>
-0.0485121

> <r_i_glide_evdw>
-29.9959

> <r_i_glide_gscore>
-3.83178

> <r_i_glide_hbond>
0

> <r_i_glide_ligand_efficiency>
-0.136849

> <r_i_glide_ligand_efficiency_ln>
-0.884486

> <r_i_glide_ligand_efficiency_sa>
-0.415555

> <r_i_glide_lipo>
-2.0147

> <r_i_glide_metal>
0

> <r_i_glide_rewards>
-0.628261

> <s_i_glide_gridfile>
wee1_glide-grid

> <s_m_Source_File>
wee1_decoys_glide_SP.sdf

> <s_m_Source_Path>
/Users/zhangxujun/Desktop

> <s_m_entry_id>
836

> <s_m_entry_name>
wee1_decoys_glide_SP.561

> <s_m_subgroup_title>
wee1_decoys_glide_SP

> <s_m_subgroupid>
wee1_decoys_glide_SP


$$$$
