ZINC40406545_5314
                    3D
 Schrodinger Suite 2024-2.
 65 69  0  0  1  0            999 V2000
   -7.9200   45.0560   28.3959 C   0  0  0  0  0  0
   -7.5361   46.3370   28.7873 C   0  0  0  0  0  0
   -6.2160   46.7455   28.6170 C   0  0  0  0  0  0
   -5.2759   45.8736   28.0598 C   0  0  0  0  0  0
   -5.6708   44.5822   27.6817 C   0  0  0  0  0  0
   -6.9931   44.1777   27.8416 C   0  0  0  0  0  0
   -3.8218   46.3392   27.8916 C   0  0  0  0  0  0
   -3.3350   46.3374   26.4290 C   0  0  0  0  0  0
   -3.6958   45.4388   25.6680 O   0  0  0  0  0  0
   -2.4801   47.3243   26.0817 N   0  0  0  0  0  0
   -1.9794   47.6579   24.8035 C   0  0  0  0  0  0
   -2.5208   47.1765   23.5999 C   0  0  0  0  0  0
   -1.9903   47.5738   22.3746 C   0  0  0  0  0  0
   -0.9274   48.4710   22.3337 C   0  0  0  0  0  0
   -0.3907   48.9902   23.5158 C   0  0  0  0  0  0
   -0.9171   48.5722   24.7471 C   0  0  0  0  0  0
    0.7490   50.0168   23.4558 C   0  0  2  0  0  0
    1.2580   49.9767   24.4230 H   0  0  0  0  0  0
    0.4442   51.4933   23.1327 C   0  0  1  0  0  0
    0.2689   52.0731   24.0400 H   0  0  0  0  0  0
    1.6926   51.8950   22.4918 N   0  0  0  0  0  0
    2.3872   50.7868   22.0140 C   0  0  0  0  0  0
    3.3727   50.7240   21.2825 O   0  0  0  0  0  0
    1.7334   49.6992   22.4827 O   0  0  0  0  0  0
    2.1228   53.2768   22.2530 C   0  0  0  0  0  0
    3.3288   53.6961   23.0805 C   0  0  0  0  0  0
    3.1572   54.0965   24.4075 C   0  0  0  0  0  0
    4.2594   54.4965   25.1605 C   0  0  0  0  0  0
    5.5283   54.4967   24.5821 C   0  0  0  0  0  0
    5.7056   54.0997   23.2573 C   0  0  0  0  0  0
    4.6018   53.7078   22.5022 C   0  0  0  0  0  0
   -0.8071   51.6978   22.2330 C   0  0  0  0  0  0
   -1.9031   51.8435   22.7737 O   0  0  0  0  0  0
   -0.6200   51.6987   20.8922 N   0  0  0  0  0  0
   -1.5769   51.7108   19.8657 C   0  0  0  0  0  0
   -2.8956   51.2624   20.0259 C   0  0  0  0  0  0
   -3.7741   51.2973   18.9475 C   0  0  0  0  0  0
   -3.3377   51.7725   17.7141 C   0  0  0  0  0  0
   -2.0234   52.2006   17.5422 C   0  0  0  0  0  0
   -1.1417   52.1633   18.6188 C   0  0  0  0  0  0
   -8.9458   44.7405   28.5260 H   0  0  0  0  0  0
   -8.2619   47.0125   29.2157 H   0  0  0  0  0  0
   -5.9262   47.7428   28.9197 H   0  0  0  0  0  0
   -4.9494   43.8842   27.2820 H   0  0  0  0  0  0
   -7.2957   43.1823   27.5502 H   0  0  0  0  0  0
   -3.6973   47.3370   28.3146 H   0  0  0  0  0  0
   -3.1665   45.6967   28.4750 H   0  0  0  0  0  0
   -2.0959   47.8647   26.8564 H   0  0  0  0  0  0
   -3.3699   46.5111   23.5837 H   0  0  0  0  0  0
   -2.4164   47.2021   21.4546 H   0  0  0  0  0  0
   -0.5341   48.7768   21.3749 H   0  0  0  0  0  0
   -0.5008   48.9629   25.6660 H   0  0  0  0  0  0
    2.3596   53.3928   21.1933 H   0  0  0  0  0  0
    1.3018   53.9633   22.4563 H   0  0  0  0  0  0
    2.1739   54.0968   24.8552 H   0  0  0  0  0  0
    4.1322   54.8001   26.1905 H   0  0  0  0  0  0
    6.3848   54.8002   25.1679 H   0  0  0  0  0  0
    6.6933   54.0996   22.8190 H   0  0  0  0  0  0
    4.7375   53.3971   21.4744 H   0  0  0  0  0  0
    0.3388   51.7114   20.5763 H   0  0  0  0  0  0
   -3.2490   50.8760   20.9698 H   0  0  0  0  0  0
   -4.7892   50.9497   19.0654 H   0  0  0  0  0  0
   -4.0192   51.7972   16.8769 H   0  0  0  0  0  0
   -1.6880   52.5564   16.5784 H   0  0  0  0  0  0
   -0.1209   52.4957   18.4756 H   0  0  0  0  0  0
  1  6  2  0  0  0
  1  2  1  0  0  0
  1 41  1  0  0  0
  2  3  2  0  0  0
  2 42  1  0  0  0
  3  4  1  0  0  0
  3 43  1  0  0  0
  4  5  2  0  0  0
  4  7  1  0  0  0
  5  6  1  0  0  0
  5 44  1  0  0  0
  6 45  1  0  0  0
  7  8  1  0  0  0
  7 46  1  0  0  0
  7 47  1  0  0  0
  8  9  2  0  0  0
  8 10  1  0  0  0
 10 11  1  0  0  0
 10 48  1  0  0  0
 11 16  2  0  0  0
 11 12  1  0  0  0
 12 13  2  0  0  0
 12 49  1  0  0  0
 13 14  1  0  0  0
 13 50  1  0  0  0
 14 15  2  0  0  0
 14 51  1  0  0  0
 15 16  1  0  0  0
 15 17  1  0  0  0
 16 52  1  0  0  0
 17 18  1  0  0  0
 17 24  1  0  0  0
 17 19  1  0  0  0
 19 20  1  0  0  0
 19 21  1  0  0  0
 19 32  1  0  0  0
 21 22  1  0  0  0
 21 25  1  0  0  0
 22 23  2  0  0  0
 22 24  1  0  0  0
 25 26  1  0  0  0
 25 53  1  0  0  0
 25 54  1  0  0  0
 26 31  2  0  0  0
 26 27  1  0  0  0
 27 28  2  0  0  0
 27 55  1  0  0  0
 28 29  1  0  0  0
 28 56  1  0  0  0
 29 30  2  0  0  0
 29 57  1  0  0  0
 30 31  1  0  0  0
 30 58  1  0  0  0
 31 59  1  0  0  0
 32 33  2  0  0  0
 32 34  1  0  0  0
 34 35  1  0  0  0
 34 60  1  0  0  0
 35 40  2  0  0  0
 35 36  1  0  0  0
 36 37  2  0  0  0
 36 61  1  0  0  0
 37 38  1  0  0  0
 37 62  1  0  0  0
 38 39  2  0  0  0
 38 63  1  0  0  0
 39 40  1  0  0  0
 39 64  1  0  0  0
 40 65  1  0  0  0
M  END
> <i_i_glide_confnum>
53

> <i_i_glide_lignum>
5315

> <i_i_glide_posenum>
260

> <i_i_glide_rotatable_bonds>
10

> <i_m_Source_File_Index>
1328

> <b_m_subgroup_collapsed>
0

> <r_i_docking_score>
-5.71264

> <r_i_glide_ecoul>
-13.1598

> <r_i_glide_eff_state_penalty>
0

> <r_i_glide_einternal>
5.07557

> <r_i_glide_emodel>
-69.7945

> <r_i_glide_energy>
-52.2008

> <r_i_glide_erotb>
0.720233

> <r_i_glide_esite>
-0.211235

> <r_i_glide_evdw>
-39.041

> <r_i_glide_gscore>
-5.71264

> <r_i_glide_hbond>
-0.32

> <r_i_glide_ligand_efficiency>
-0.150333

> <r_i_glide_ligand_efficiency_ln>
-1.23181

> <r_i_glide_ligand_efficiency_sa>
-0.505414

> <r_i_glide_lipo>
-1.59556

> <r_i_glide_metal>
0

> <r_i_glide_rewards>
-0.380058

> <s_i_glide_gridfile>
wee1_glide-grid

> <s_m_Source_File>
wee1_decoys_glide_SP.sdf

> <s_m_Source_Path>
/Users/zhangxujun/Desktop

> <s_m_entry_id>
1603

> <s_m_entry_name>
wee1_decoys_glide_SP.1328

> <s_m_subgroup_title>
wee1_decoys_glide_SP

> <s_m_subgroupid>
wee1_decoys_glide_SP


$$$$
