@<TRIPOS>MOLECULE
ZINC02845130_5574
52   54    1
SMALL
USER_CHARGES


@<TRIPOS>ATOM
      1 C1          6.6614   54.0542   27.8519 C.3       1 UNK         0.0000 
      2 C2          5.6922   54.0249   26.6864 C.ar      1 UNK         0.0000 
      3 C3          6.1762   54.1225   25.3789 C.ar      1 UNK         0.0000 
      4 C4          5.2881   54.0982   24.3067 C.ar      1 UNK         0.0000 
      5 C5          3.9140   53.9959   24.5398 C.ar      1 UNK         0.0000 
      6 C6          3.4297   53.8818   25.8458 C.ar      1 UNK         0.0000 
      7 C7          4.3195   53.9058   26.9181 C.ar      1 UNK         0.0000 
      8 S8          2.7695   54.0538   23.1612 S.o2      1 UNK         0.0000 
      9 O9          3.5045   54.7122   22.0784 O.2       1 UNK         0.0000 
     10 O10         1.5191   54.6029   23.6891 O.2       1 UNK         0.0000 
     11 N11         2.4475   52.3686   22.5997 N.pl3     1 UNK         0.0000 
     12 C12         3.3864   51.7618   21.6599 C.3       1 UNK         0.0000 
     13 C13         2.6938   51.1909   20.4162 C.2       1 UNK         0.0000 
     14 O14         2.6616   49.9712   20.2544 O.2       1 UNK         0.0000 
     15 N15         2.1076   52.0963   19.6074 N.am      1 UNK         0.0000 
     16 C16         1.3715   51.8628   18.4355 C.ar      1 UNK         0.0000 
     17 C17         1.5520   50.7468   17.6058 C.ar      1 UNK         0.0000 
     18 C18         0.7822   50.6041   16.4528 C.ar      1 UNK         0.0000 
     19 C19        -0.1693   51.5692   16.1181 C.ar      1 UNK         0.0000 
     20 C20        -0.3525   52.6945   16.9329 C.ar      1 UNK         0.0000 
     21 C21         0.4307   52.8327   18.0836 C.ar      1 UNK         0.0000 
     22 C22        -1.3879   53.7658   16.5947 C.3       1 UNK         0.0000 
     23 F23        -2.0917   54.0974   17.6810 F         1 UNK         0.0000 
     24 F24        -2.2482   53.3556   15.6580 F         1 UNK         0.0000 
     25 F25        -0.7645   54.8554   16.1422 F         1 UNK         0.0000 
     26 C26         1.3853   51.6090   23.1534 C.ar      1 UNK         0.0000 
     27 C27         1.5744   50.2816   23.5577 C.ar      1 UNK         0.0000 
     28 C28         0.5211   49.5374   24.0902 C.ar      1 UNK         0.0000 
     29 C29        -0.7463   50.1034   24.2097 C.ar      1 UNK         0.0000 
     30 C30        -0.9797   51.4195   23.7840 C.ar      1 UNK         0.0000 
     31 C31         0.0939   52.1487   23.2513 C.ar      1 UNK         0.0000 
     32 N32        -2.3301   52.0252   23.8845 N.pl3     1 UNK         0.0000 
     33 O33        -2.4550   53.2243   23.6470 O.co2     1 UNK         0.0000 
     34 O34        -3.2752   51.3059   24.1951 O.co2     1 UNK         0.0000 
     35 H35         7.5053   54.7103   27.6348 H         1 UNK         0.0000 
     36 H36         6.1884   54.4471   28.7541 H         1 UNK         0.0000 
     37 H37         7.0432   53.0527   28.0567 H         1 UNK         0.0000 
     38 H38         7.2347   54.2098   25.1893 H         1 UNK         0.0000 
     39 H39         5.6721   54.1806   23.2993 H         1 UNK         0.0000 
     40 H40         2.3701   53.7945   26.0327 H         1 UNK         0.0000 
     41 H41         3.9426   53.8286   27.9273 H         1 UNK         0.0000 
     42 H42         4.0258   50.9913   22.0816 H         1 UNK         0.0000 
     43 H43         4.1287   52.4703   21.2931 H         1 UNK         0.0000 
     44 H44         2.1509   53.0639   19.9041 H         1 UNK         0.0000 
     45 H45         2.3038   50.0017   17.8200 H         1 UNK         0.0000 
     46 H46         0.9355   49.7467   15.8133 H         1 UNK         0.0000 
     47 H47        -0.7528   51.4404   15.2165 H         1 UNK         0.0000 
     48 H48         0.3052   53.6971   18.7158 H         1 UNK         0.0000 
     49 H49         2.5429   49.8118   23.4754 H         1 UNK         0.0000 
     50 H50         0.6900   48.5180   24.4124 H         1 UNK         0.0000 
     51 H51        -1.5455   49.5112   24.6365 H         1 UNK         0.0000 
     52 H52        -0.0920   53.1421   22.8839 H         1 UNK         0.0000 
@<TRIPOS>BOND
     1    1    2 1    
     2    1   35 1    
     3    1   36 1    
     4    1   37 1    
     5    2    7 ar   
     6    2    3 ar   
     7    3    4 ar   
     8    3   38 1    
     9    4    5 ar   
    10    4   39 1    
    11    5    6 ar   
    12    5    8 1    
    13    6    7 ar   
    14    6   40 1    
    15    7   41 1    
    16    8    9 2    
    17    8   10 2    
    18    8   11 1    
    19   11   12 1    
    20   11   26 1    
    21   12   13 1    
    22   12   42 1    
    23   12   43 1    
    24   13   14 2    
    25   13   15 am   BACKBONE|DICT|INTERRES
    26   15   16 1    
    27   15   44 1    
    28   16   21 ar   
    29   16   17 ar   
    30   17   18 ar   
    31   17   45 1    
    32   18   19 ar   
    33   18   46 1    
    34   19   20 ar   
    35   19   47 1    
    36   20   21 ar   
    37   20   22 1    
    38   21   48 1    
    39   22   23 1    
    40   22   24 1    
    41   22   25 1    
    42   26   31 ar   
    43   26   27 ar   
    44   27   28 ar   
    45   27   49 1    
    46   28   29 ar   
    47   28   50 1    
    48   29   30 ar   
    49   29   51 1    
    50   30   31 ar   
    51   30   32 1    
    52   31   52 1    
    53   32   33 2    
    54   32   34 1    
@<TRIPOS>SUBSTRUCTURE
     1 UNK         1 GROUP             0       ****    0 ROOT    
