@<TRIPOS>MOLECULE
ZINC13398062_3307
56   59    1
SMALL
USER_CHARGES


@<TRIPOS>ATOM
      1 C1          2.4962   49.9160   19.8549 C.ar      1 UNK         0.0000 
      2 C2          2.0104   48.7712   19.2314 C.ar      1 UNK         0.0000 
      3 C3          1.2241   48.8848   18.0850 C.ar      1 UNK         0.0000 
      4 C4          0.9027   50.1417   17.5735 C.ar      1 UNK         0.0000 
      5 C5          1.3950   51.2861   18.1938 C.ar      1 UNK         0.0000 
      6 C6          2.2131   51.1810   19.3205 C.ar      1 UNK         0.0000 
      7 N7          2.7101   52.3952   19.8294 N.am      1 UNK         0.0000 
      8 C8          3.7135   52.6205   20.7018 C.2       1 UNK         0.0000 
      9 O9          4.3613   51.7485   21.2823 O.2       1 UNK         0.0000 
     10 C10         4.0306   54.1088   20.9112 C.3       1 UNK         0.0000 
     11 S11         5.4513   54.4940   21.9936 S.3       1 UNK         0.0000 
     12 C12         4.9788   54.3032   23.6919 C.ar      1 UNK         0.0000 
     13 C13         3.6434   54.0950   24.0650 C.ar      1 UNK         0.0000 
     14 C14         3.2992   53.9515   25.4084 C.ar      1 UNK         0.0000 
     15 C15         4.2930   54.0076   26.3823 C.ar      1 UNK         0.0000 
     16 C16         5.6283   54.2456   26.0165 C.ar      1 UNK         0.0000 
     17 C17         5.9700   54.3904   24.6729 C.ar      1 UNK         0.0000 
     18 O18         6.6540   54.2575   26.9409 O.3       1 UNK         0.0000 
     19 C19         6.2098   54.3593   28.2986 C.3       1 UNK         0.0000 
     20 C20         4.9821   53.4605   28.5594 C.3       1 UNK         0.0000 
     21 O21         3.9090   53.8517   27.6979 O.3       1 UNK         0.0000 
     22 S22         0.6186   47.4022   17.2863 S.o2      1 UNK         0.0000 
     23 O23        -0.0328   47.8000   16.0327 O.2       1 UNK         0.0000 
     24 O24         1.7245   46.4387   17.2866 O.2       1 UNK         0.0000 
     25 N25        -0.6327   46.8297   18.3998 N.pl3     1 UNK         0.0000 
     26 C26        -1.9833   47.4394   18.2733 C.3       1 UNK         0.0000 
     27 C27        -2.7575   47.3361   19.6061 C.3       1 UNK         0.0000 
     28 C28        -2.7689   45.8866   20.1328 C.3       1 UNK         0.0000 
     29 C29        -1.3139   45.3407   20.2468 C.3       1 UNK         0.0000 
     30 H30        -0.7543   45.9419   20.9649 H         1 UNK         0.0000 
     31 C31        -0.5917   45.4205   18.8756 C.3       1 UNK         0.0000 
     32 C32        -1.3021   43.9150   20.8496 C.2       1 UNK         0.0000 
     33 O33        -0.4962   43.0544   20.4149 O.co2     1 UNK         0.0000 
     34 H34         3.1044   49.7936   20.7368 H         1 UNK         0.0000 
     35 H35         2.2610   47.7995   19.6296 H         1 UNK         0.0000 
     36 H36         0.2924   50.2343   16.6864 H         1 UNK         0.0000 
     37 H37         1.1610   52.2520   17.7680 H         1 UNK         0.0000 
     38 H38         2.3035   53.2192   19.4103 H         1 UNK         0.0000 
     39 H39         3.1370   54.6153   21.2807 H         1 UNK         0.0000 
     40 H40         4.2501   54.5418   19.9368 H         1 UNK         0.0000 
     41 H41         2.8559   54.0279   23.3345 H         1 UNK         0.0000 
     42 H42         2.2719   53.7786   25.6925 H         1 UNK         0.0000 
     43 H43         7.0005   54.5505   24.3922 H         1 UNK         0.0000 
     44 H44         7.0304   54.0959   28.9659 H         1 UNK         0.0000 
     45 H45         5.9061   55.3890   28.4896 H         1 UNK         0.0000 
     46 H46         5.2502   52.4236   28.3597 H         1 UNK         0.0000 
     47 H47         4.6619   53.5316   29.5978 H         1 UNK         0.0000 
     48 H48        -1.8952   48.4744   17.9383 H         1 UNK         0.0000 
     49 H49        -2.5443   46.8577   17.5383 H         1 UNK         0.0000 
     50 H50        -2.3022   47.9962   20.3478 H         1 UNK         0.0000 
     51 H51        -3.7810   47.6921   19.4710 H         1 UNK         0.0000 
     52 H52        -3.2759   45.8768   21.1010 H         1 UNK         0.0000 
     53 H53        -3.3485   45.2764   19.4341 H         1 UNK         0.0000 
     54 H54        -1.1546   44.8082   18.1665 H         1 UNK         0.0000 
     55 H55         0.4430   45.0787   18.9421 H         1 UNK         0.0000 
     56 O56        -2.0955   43.6956   21.7898 O.co2     1 UNK         0.0000 
@<TRIPOS>BOND
     1    1    6 ar   
     2    1    2 ar   
     3    1   34 1    
     4    2    3 ar   
     5    2   35 1    
     6    3    4 ar   
     7    3   22 1    
     8    4    5 ar   
     9    4   36 1    
    10    5    6 ar   
    11    5   37 1    
    12    6    7 1    
    13    7    8 am   BACKBONE|DICT|INTERRES
    14    7   38 1    
    15    8    9 2    
    16    8   10 1    
    17   10   11 1    
    18   10   39 1    
    19   10   40 1    
    20   11   12 1    
    21   12   17 ar   
    22   12   13 ar   
    23   13   14 ar   
    24   13   41 1    
    25   14   15 ar   
    26   14   42 1    
    27   15   21 1    
    28   15   16 ar   
    29   16   17 ar   
    30   16   18 1    
    31   17   43 1    
    32   18   19 1    
    33   19   20 1    
    34   19   44 1    
    35   19   45 1    
    36   20   21 1    
    37   20   46 1    
    38   20   47 1    
    39   22   23 2    
    40   22   24 2    
    41   22   25 1    
    42   25   31 1    
    43   25   26 1    
    44   26   27 1    
    45   26   48 1    
    46   26   49 1    
    47   27   28 1    
    48   27   50 1    
    49   27   51 1    
    50   28   29 1    
    51   28   52 1    
    52   28   53 1    
    53   29   30 1    
    54   29   31 1    
    55   29   32 1    
    56   31   54 1    
    57   31   55 1    
    58   32   33 2    
    59   32   56 1    
@<TRIPOS>SUBSTRUCTURE
     1 UNK         1 GROUP             0       ****    0 ROOT    
