@<TRIPOS>MOLECULE
ZINC63572993_1208
62   66    1
SMALL
USER_CHARGES


@<TRIPOS>ATOM
      1 C1         -7.3360   52.3889   24.7603 C.3       1 UNK         0.0000 
      2 O2         -6.2493   53.0426   25.4070 O.3       1 UNK         0.0000 
      3 C3         -4.9845   52.4955   25.3162 C.ar      1 UNK         0.0000 
      4 C4         -4.6767   51.3107   24.6310 C.ar      1 UNK         0.0000 
      5 C5         -3.3618   50.8535   24.5770 C.ar      1 UNK         0.0000 
      6 C6         -2.3362   51.5729   25.1978 C.ar      1 UNK         0.0000 
      7 C7         -2.6520   52.7308   25.9117 C.ar      1 UNK         0.0000 
      8 C8         -3.9636   53.1930   25.9570 C.ar      1 UNK         0.0000 
      9 C9         -0.8913   51.0723   25.0642 C.3       1 UNK         0.0000 
     10 H10        -1.0150   50.0066   24.8701 H         1 UNK         0.0000 
     11 C11         0.0155   51.1060   26.3454 C.3       1 UNK         0.0000 
     12 H12         0.7506   50.3087   26.2439 H         1 UNK         0.0000 
     13 C13         0.7112   52.4339   26.5618 C.2       1 UNK         0.0000 
     14 C14         0.5415   52.8253   27.8324 C.2       1 UNK         0.0000 
     15 C15         0.9902   54.0278   28.5481 C.2       1 UNK         0.0000 
     16 C16         0.7056   54.2088   29.8628 C.2       1 UNK         0.0000 
     17 C17        -0.0480   53.1431   30.5175 C.2       1 UNK         0.0000 
     18 C18        -0.4955   52.0406   29.8610 C.2       1 UNK         0.0000 
     19 C19        -0.2254   51.8680   28.5002 C.2       1 UNK         0.0000 
     20 N20        -0.5868   50.8968   27.6800 N.pl3     1 UNK         0.0000 
     21 O21         1.0312   55.3091   30.6001 O.3       1 UNK         0.0000 
     22 C22         1.6947   56.4098   29.9787 C.3       1 UNK         0.0000 
     23 C23         1.3778   53.0630   25.3562 C.3       1 UNK         0.0000 
     24 C24         0.3531   53.0972   24.2051 C.3       1 UNK         0.0000 
     25 N25        -0.1248   51.7163   23.9550 N.am      1 UNK         0.0000 
     26 C26         0.1099   51.1531   22.7348 C.2       1 UNK         0.0000 
     27 O27         0.7743   51.7250   21.8672 O.2       1 UNK         0.0000 
     28 N28        -0.4137   49.9215   22.5436 N.am      1 UNK         0.0000 
     29 C29        -0.2054   49.0542   21.4552 C.ar      1 UNK         0.0000 
     30 C30         1.0116   49.0198   20.7566 C.ar      1 UNK         0.0000 
     31 C31         1.1921   48.1343   19.7008 C.ar      1 UNK         0.0000 
     32 C32         0.1618   47.2769   19.3257 C.ar      1 UNK         0.0000 
     33 C33        -1.0463   47.2935   20.0231 C.ar      1 UNK         0.0000 
     34 C34        -1.2443   48.1747   21.1022 C.ar      1 UNK         0.0000 
     35 O35        -2.4145   48.2290   21.8428 O.3       1 UNK         0.0000 
     36 C36        -3.5058   47.3844   21.4949 C.3       1 UNK         0.0000 
     37 Cl37        2.7044   48.0967   18.8804 Cl        1 UNK         0.0000 
     38 H38        -7.1766   52.3098   23.6849 H         1 UNK         0.0000 
     39 H39        -7.5045   51.3922   25.1708 H         1 UNK         0.0000 
     40 H40        -8.2468   52.9668   24.9142 H         1 UNK         0.0000 
     41 H41        -5.4408   50.7392   24.1273 H         1 UNK         0.0000 
     42 H42        -3.1444   49.9481   24.0289 H         1 UNK         0.0000 
     43 H43        -1.8834   53.2965   26.4122 H         1 UNK         0.0000 
     44 H44        -4.1916   54.1066   26.4844 H         1 UNK         0.0000 
     45 H45         1.5380   54.7898   28.0164 H         1 UNK         0.0000 
     46 H46        -0.2646   53.2329   31.5742 H         1 UNK         0.0000 
     47 H47        -1.0538   51.2969   30.4172 H         1 UNK         0.0000 
     48 H48         2.6767   56.1272   29.5966 H         1 UNK         0.0000 
     49 H49         1.1043   56.8363   29.1666 H         1 UNK         0.0000 
     50 H50         1.8479   57.1981   30.7168 H         1 UNK         0.0000 
     51 H51         1.7248   54.0734   25.5721 H         1 UNK         0.0000 
     52 H52         2.2602   52.4973   25.0539 H         1 UNK         0.0000 
     53 H53        -0.5123   53.6973   24.4818 H         1 UNK         0.0000 
     54 H54         0.7531   53.5888   23.3155 H         1 UNK         0.0000 
     55 H55        -1.0612   49.5788   23.2355 H         1 UNK         0.0000 
     56 H56         1.8343   49.6635   21.0333 H         1 UNK         0.0000 
     57 H57         0.3028   46.5938   18.5007 H         1 UNK         0.0000 
     58 H58        -1.8196   46.6102   19.7098 H         1 UNK         0.0000 
     59 H59        -3.8569   47.5818   20.4809 H         1 UNK         0.0000 
     60 H60        -3.2416   46.3298   21.5850 H         1 UNK         0.0000 
     61 H61        -4.3367   47.5752   22.1740 H         1 UNK         0.0000 
     62 H62        -1.1166   50.0523   27.9382 H         1 UNK         0.0000 
@<TRIPOS>BOND
     1    1    2 1    
     2    1   38 1    
     3    1   39 1    
     4    1   40 1    
     5    2    3 1    
     6    3    8 ar   
     7    3    4 ar   
     8    4    5 ar   
     9    4   41 1    
    10    5    6 ar   
    11    5   42 1    
    12    6    7 ar   
    13    6    9 1    
    14    7    8 ar   
    15    7   43 1    
    16    8   44 1    
    17    9   10 1    
    18    9   25 1    
    19    9   11 1    
    20   11   12 1    
    21   11   20 1    
    22   11   13 1    
    23   13   14 2    
    24   13   23 1    
    25   14   19 1    
    26   14   15 1    
    27   15   16 2    
    28   15   45 1    
    29   16   17 1    
    30   16   21 1    
    31   17   18 2    
    32   17   46 1    
    33   18   19 1    
    34   18   47 1    
    35   19   20 2    
    36   20   62 1    
    37   21   22 1    
    38   22   48 1    
    39   22   49 1    
    40   22   50 1    
    41   23   24 1    
    42   23   51 1    
    43   23   52 1    
    44   24   25 1    
    45   24   53 1    
    46   24   54 1    
    47   25   26 am   BACKBONE|DICT|INTERRES
    48   26   27 2    
    49   26   28 am   BACKBONE|DICT|INTERRES
    50   28   29 1    
    51   28   55 1    
    52   29   34 ar   
    53   29   30 ar   
    54   30   31 ar   
    55   30   56 1    
    56   31   32 ar   
    57   31   37 1    
    58   32   33 ar   
    59   32   57 1    
    60   33   34 ar   
    61   33   58 1    
    62   34   35 1    
    63   35   36 1    
    64   36   59 1    
    65   36   60 1    
    66   36   61 1    
@<TRIPOS>SUBSTRUCTURE
     1 UNK         1 GROUP             0       ****    0 ROOT    
