ZINC32910360_5393
                    3D
 Schrodinger Suite 2024-2.
 59 63  0  0  1  0            999 V2000
    6.7003   54.8966   22.7601 C   0  0  0  0  0  0
    6.7042   55.2966   24.0889 C   0  0  0  0  0  0
    5.6147   55.0231   24.9057 C   0  0  0  0  0  0
    4.5014   54.3147   24.3925 C   0  0  0  0  0  0
    4.4927   53.8423   23.0497 C   0  0  0  0  0  0
    5.6188   54.1907   22.2370 C   0  0  0  0  0  0
    3.3616   53.0503   22.6236 C   0  0  0  0  0  0
    2.3057   52.8003   23.5477 C   0  0  0  0  0  0
    2.4054   53.3491   24.8492 C   0  0  0  0  0  0
    3.4711   54.0966   25.2313 N   0  0  0  0  0  0
    1.3974   53.0532   25.9286 C   0  0  0  0  0  0
    1.6982   53.2657   27.2375 C   0  0  0  0  0  0
    0.9288   53.0596   28.4491 C   0  0  0  0  0  0
    0.1005   51.9917   28.7880 C   0  0  0  0  0  0
   -0.4211   52.0966   30.0805 C   0  0  0  0  0  0
    0.0441   53.2122   30.7576 C   0  0  0  0  0  0
    1.0966   54.1736   29.7751 S   0  0  0  0  0  0
    0.0654   52.4985   25.4280 C   0  0  0  0  0  0
    0.3638   51.3626   24.4484 C   0  0  0  0  0  0
    1.0876   51.9135   23.2106 C   0  0  0  0  0  0
    3.3578   52.4267   21.2518 C   0  0  0  0  0  0
    4.3637   51.9464   20.7242 O   0  0  0  0  0  0
    2.1474   52.4969   20.6369 O   0  0  0  0  0  0
    1.9525   52.1192   19.2700 C   0  0  0  0  0  0
    1.6048   50.6252   19.1337 C   0  0  0  0  0  0
    1.4660   49.9051   20.1298 O   0  0  0  0  0  0
    1.4660   50.2025   17.8626 N   0  0  0  0  0  0
    1.5046   48.8356   17.6279 N   0  0  0  0  0  0
    0.4611   48.2557   17.0034 C   0  0  0  0  0  0
   -0.6093   48.8137   16.7428 O   0  0  0  0  0  0
    0.6929   46.8147   16.6257 C   0  0  0  0  0  0
    1.9274   46.4165   16.0831 C   0  0  0  0  0  0
    2.1532   45.0862   15.7359 C   0  0  0  0  0  0
    1.1559   44.1334   15.9315 C   0  0  0  0  0  0
   -0.0693   44.5138   16.4768 C   0  0  0  0  0  0
   -0.3048   45.8448   16.8258 C   0  0  0  0  0  0
   -1.5033   46.1678   17.3690 F   0  0  0  0  0  0
    7.5469   55.1332   22.1316 H   0  0  0  0  0  0
    7.5435   55.8492   24.4798 H   0  0  0  0  0  0
    5.6067   55.3549   25.9343 H   0  0  0  0  0  0
    5.6563   53.9080   21.1969 H   0  0  0  0  0  0
    2.6722   53.6598   27.4873 H   0  0  0  0  0  0
   -0.1105   51.1518   28.1413 H   0  0  0  0  0  0
   -1.0832   51.3628   30.5231 H   0  0  0  0  0  0
   -0.1807   53.4947   31.7769 H   0  0  0  0  0  0
   -0.5626   52.1367   26.2375 H   0  0  0  0  0  0
   -0.5142   53.2740   24.9243 H   0  0  0  0  0  0
    0.9706   50.5930   24.9294 H   0  0  0  0  0  0
   -0.5633   50.8735   24.1459 H   0  0  0  0  0  0
    0.3841   52.5033   22.6212 H   0  0  0  0  0  0
    1.3782   51.0613   22.5955 H   0  0  0  0  0  0
    1.1515   52.7319   18.8548 H   0  0  0  0  0  0
    2.8442   52.3196   18.6698 H   0  0  0  0  0  0
    1.8105   50.7391   17.0786 H   0  0  0  0  0  0
    2.4543   48.5464   17.4188 H   0  0  0  0  0  0
    2.7211   47.1348   15.9179 H   0  0  0  0  0  0
    3.1044   44.7974   15.3177 H   0  0  0  0  0  0
    1.3324   43.1023   15.6611 H   0  0  0  0  0  0
   -0.8436   43.7771   16.6302 H   0  0  0  0  0  0
  1  6  2  0  0  0
  1  2  1  0  0  0
  1 38  1  0  0  0
  2  3  2  0  0  0
  2 39  1  0  0  0
  3  4  1  0  0  0
  3 40  1  0  0  0
  4 10  2  0  0  0
  4  5  1  0  0  0
  5  6  1  0  0  0
  5  7  2  0  0  0
  6 41  1  0  0  0
  7  8  1  0  0  0
  7 21  1  0  0  0
  8 20  1  0  0  0
  8  9  2  0  0  0
  9 10  1  0  0  0
  9 11  1  0  0  0
 11 12  2  0  0  0
 11 18  1  0  0  0
 12 13  1  0  0  0
 12 42  1  0  0  0
 13 17  1  0  0  0
 13 14  2  0  0  0
 14 15  1  0  0  0
 14 43  1  0  0  0
 15 16  2  0  0  0
 15 44  1  0  0  0
 16 17  1  0  0  0
 16 45  1  0  0  0
 18 19  1  0  0  0
 18 46  1  0  0  0
 18 47  1  0  0  0
 19 20  1  0  0  0
 19 48  1  0  0  0
 19 49  1  0  0  0
 20 50  1  0  0  0
 20 51  1  0  0  0
 21 22  2  0  0  0
 21 23  1  0  0  0
 23 24  1  0  0  0
 24 25  1  0  0  0
 24 52  1  0  0  0
 24 53  1  0  0  0
 25 26  2  0  0  0
 25 27  1  0  0  0
 27 28  1  0  0  0
 27 54  1  0  0  0
 28 29  1  0  0  0
 28 55  1  0  0  0
 29 30  2  0  0  0
 29 31  1  0  0  0
 31 36  2  0  0  0
 31 32  1  0  0  0
 32 33  2  0  0  0
 32 56  1  0  0  0
 33 34  1  0  0  0
 33 57  1  0  0  0
 34 35  2  0  0  0
 34 58  1  0  0  0
 35 36  1  0  0  0
 35 59  1  0  0  0
 36 37  1  0  0  0
M  END
> <i_i_glide_confnum>
160

> <i_i_glide_lignum>
5394

> <i_i_glide_posenum>
297

> <i_i_glide_rotatable_bonds>
9

> <i_m_Source_File_Index>
614

> <b_m_subgroup_collapsed>
0

> <r_i_docking_score>
-5.72771

> <r_i_glide_ecoul>
-5.26677

> <r_i_glide_eff_state_penalty>
0

> <r_i_glide_einternal>
6.0129

> <r_i_glide_emodel>
-66.3855

> <r_i_glide_energy>
-49.3909

> <r_i_glide_erotb>
0.540406

> <r_i_glide_esite>
-0.230557

> <r_i_glide_evdw>
-44.1241

> <r_i_glide_gscore>
-5.72771

> <r_i_glide_hbond>
-0.139926

> <r_i_glide_ligand_efficiency>
-0.154803

> <r_i_glide_ligand_efficiency_ln>
-1.24221

> <r_i_glide_ligand_efficiency_sa>
-0.515837

> <r_i_glide_lipo>
-2.82079

> <r_i_glide_metal>
0

> <r_i_glide_rewards>
-0.0806203

> <s_i_glide_gridfile>
wee1_glide-grid

> <s_m_Source_File>
wee1_decoys_glide_SP.sdf

> <s_m_Source_Path>
/Users/zhangxujun/Desktop

> <s_m_entry_id>
889

> <s_m_entry_name>
wee1_decoys_glide_SP.614

> <s_m_subgroup_title>
wee1_decoys_glide_SP

> <s_m_subgroupid>
wee1_decoys_glide_SP


$$$$
