ZINC37359407_5096
                    3D
 Schrodinger Suite 2024-2.
 66 71  0  0  1  0            999 V2000
    5.3103   53.8643   28.2461 C   0  0  0  0  0  0
    4.7135   54.5768   29.2792 C   0  0  0  0  0  0
    3.3606   54.8972   29.2157 C   0  0  0  0  0  0
    2.6084   54.5386   28.1031 C   0  0  0  0  0  0
    3.1975   53.8381   27.0325 C   0  0  0  0  0  0
    4.5510   53.4870   27.1403 C   0  0  0  0  0  0
    2.4081   53.4302   25.8360 C   0  0  0  0  0  0
    2.8421   53.5248   24.4945 C   0  0  0  0  0  0
    3.9718   53.9680   23.7501 C   0  0  0  0  0  0
    3.7009   53.6917   22.4102 N   0  0  0  0  0  0
    2.4870   53.1055   22.2393 N   0  0  0  0  0  0
    1.9621   53.0102   23.4937 C   0  0  0  0  0  0
    0.7682   52.4687   23.7693 N   0  0  0  0  0  0
    0.4151   52.4578   25.0865 C   0  0  0  0  0  0
    1.1935   52.8943   26.1080 N   0  0  0  0  0  0
   -0.8013   51.8843   25.4617 N   0  0  0  0  0  0
   -1.5476   52.3989   26.6266 C   0  0  0  0  0  0
   -2.2925   51.2957   27.3811 C   0  0  0  0  0  0
   -3.2610   50.4817   26.4965 C   0  0  0  0  0  0
   -2.5473   50.1165   25.1670 C   0  0  0  0  0  0
   -1.7547   51.2781   24.5171 C   0  0  0  0  0  0
   -3.6957   49.2040   27.2818 N   0  3  0  0  0  0
   -4.4240   48.1521   26.3983 C   0  0  0  0  0  0
   -4.7806   46.9098   27.2351 C   0  0  0  0  0  0
   -5.6210   47.2622   28.4685 C   0  0  0  0  0  0
   -4.8945   48.2991   29.3322 C   0  0  0  0  0  0
   -4.5422   49.5688   28.5371 C   0  0  0  0  0  0
    4.5292   53.8863   21.2589 C   0  0  0  0  0  0
    4.3690   53.0815   20.1165 C   0  0  0  0  0  0
    5.1446   53.2965   18.9758 C   0  0  0  0  0  0
    6.0905   54.3183   18.9527 C   0  0  0  0  0  0
    6.2676   55.1198   20.0760 C   0  0  0  0  0  0
    5.5038   54.8957   21.2211 C   0  0  0  0  0  0
    7.1789   56.1179   20.0651 F   0  0  0  0  0  0
    5.1327   54.4942   24.2543 N   0  0  0  0  0  0
    1.3017   54.8963   28.0820 F   0  0  0  0  0  0
    6.3581   53.6061   28.2984 H   0  0  0  0  0  0
    5.3160   54.9098   30.1065 H   0  0  0  0  0  0
    2.8943   55.4587   30.0102 H   0  0  0  0  0  0
    5.0230   52.8968   26.3694 H   0  0  0  0  0  0
   -0.8926   52.8896   27.3459 H   0  0  0  0  0  0
   -2.2435   53.1681   26.2838 H   0  0  0  0  0  0
   -1.5378   50.6312   27.8078 H   0  0  0  0  0  0
   -2.7974   51.7069   28.2519 H   0  0  0  0  0  0
   -4.1209   51.1122   26.2554 H   0  0  0  0  0  0
   -3.2545   49.7004   24.4503 H   0  0  0  0  0  0
   -1.8347   49.3081   25.3452 H   0  0  0  0  0  0
   -2.4198   52.0496   24.1245 H   0  0  0  0  0  0
   -1.2141   50.8618   23.6677 H   0  0  0  0  0  0
   -5.2961   48.6415   25.9568 H   0  0  0  0  0  0
   -3.7299   47.8340   25.6211 H   0  0  0  0  0  0
   -5.3216   46.1950   26.6140 H   0  0  0  0  0  0
   -3.8616   46.4063   27.5469 H   0  0  0  0  0  0
   -5.8223   46.3673   29.0581 H   0  0  0  0  0  0
   -6.5948   47.6487   28.1617 H   0  0  0  0  0  0
   -3.9750   47.8685   29.7390 H   0  0  0  0  0  0
   -5.5074   48.5659   30.1951 H   0  0  0  0  0  0
   -3.9257   50.1863   29.1912 H   0  0  0  0  0  0
   -5.4203   50.1272   28.2015 H   0  0  0  0  0  0
    3.6452   52.2782   20.0934 H   0  0  0  0  0  0
    5.0112   52.6576   18.1145 H   0  0  0  0  0  0
    6.6896   54.4859   18.0685 H   0  0  0  0  0  0
    5.6792   55.5611   22.0460 H   0  0  0  0  0  0
    5.2232   54.6938   25.2400 H   0  0  0  0  0  0
    5.9491   54.6573   23.6812 H   0  0  0  0  0  0
   -2.8304   48.7776   27.6478 H   0  0  0  0  0  0
  1  6  2  0  0  0
  1  2  1  0  0  0
  1 37  1  0  0  0
  2  3  2  0  0  0
  2 38  1  0  0  0
  3  4  1  0  0  0
  3 39  1  0  0  0
  4  5  2  0  0  0
  4 36  1  0  0  0
  5  6  1  0  0  0
  5  7  1  0  0  0
  6 40  1  0  0  0
  7 15  2  0  0  0
  7  8  1  0  0  0
  8 12  1  0  0  0
  8  9  2  0  0  0
  9 10  1  0  0  0
  9 35  1  0  0  0
 10 11  1  0  0  0
 10 28  1  0  0  0
 11 12  2  0  0  0
 12 13  1  0  0  0
 13 14  2  0  0  0
 14 15  1  0  0  0
 14 16  1  0  0  0
 16 21  1  0  0  0
 16 17  1  0  0  0
 17 18  1  0  0  0
 17 41  1  0  0  0
 17 42  1  0  0  0
 18 19  1  0  0  0
 18 43  1  0  0  0
 18 44  1  0  0  0
 19 20  1  0  0  0
 19 22  1  0  0  0
 19 45  1  0  0  0
 20 21  1  0  0  0
 20 46  1  0  0  0
 20 47  1  0  0  0
 21 48  1  0  0  0
 21 49  1  0  0  0
 22 27  1  0  0  0
 22 23  1  0  0  0
 22 66  1  0  0  0
 23 24  1  0  0  0
 23 50  1  0  0  0
 23 51  1  0  0  0
 24 25  1  0  0  0
 24 52  1  0  0  0
 24 53  1  0  0  0
 25 26  1  0  0  0
 25 54  1  0  0  0
 25 55  1  0  0  0
 26 27  1  0  0  0
 26 56  1  0  0  0
 26 57  1  0  0  0
 27 58  1  0  0  0
 27 59  1  0  0  0
 28 33  2  0  0  0
 28 29  1  0  0  0
 29 30  2  0  0  0
 29 60  1  0  0  0
 30 31  1  0  0  0
 30 61  1  0  0  0
 31 32  2  0  0  0
 31 62  1  0  0  0
 32 33  1  0  0  0
 32 34  1  0  0  0
 33 63  1  0  0  0
 35 64  1  0  0  0
 35 65  1  0  0  0
M  CHG  1  22   1
M  END
> <i_i_glide_confnum>
18

> <i_i_glide_lignum>
5097

> <i_i_glide_posenum>
20

> <i_i_glide_rotatable_bonds>
4

> <i_m_Source_File_Index>
728

> <b_m_subgroup_collapsed>
0

> <r_i_docking_score>
-6.11803

> <r_i_glide_ecoul>
-3.34594

> <r_i_glide_eff_state_penalty>
0

> <r_i_glide_einternal>
4.68183

> <r_i_glide_emodel>
-62.6355

> <r_i_glide_energy>
-46.1532

> <r_i_glide_erotb>
0.338261

> <r_i_glide_esite>
-0.106054

> <r_i_glide_evdw>
-42.8073

> <r_i_glide_gscore>
-6.11803

> <r_i_glide_hbond>
-0.2

> <r_i_glide_ligand_efficiency>
-0.169945

> <r_i_glide_ligand_efficiency_ln>
-1.33479

> <r_i_glide_ligand_efficiency_sa>
-0.561147

> <r_i_glide_lipo>
-2.4016

> <r_i_glide_metal>
0

> <r_i_glide_rewards>
-1.10639

> <s_i_glide_gridfile>
wee1_glide-grid

> <s_m_Source_File>
wee1_decoys_glide_SP.sdf

> <s_m_Source_Path>
/Users/zhangxujun/Desktop

> <s_m_entry_id>
1003

> <s_m_entry_name>
wee1_decoys_glide_SP.728

> <s_m_subgroup_title>
wee1_decoys_glide_SP

> <s_m_subgroupid>
wee1_decoys_glide_SP


$$$$
