ZINC15673896_261
                    3D
 Schrodinger Suite 2024-2.
 58 62  0  0  1  0            999 V2000
    0.3925   51.1129   26.4711 C   0  0  0  0  0  0
   -0.8993   51.5717   25.8306 C   0  0  0  0  0  0
   -1.1519   51.9048   24.4824 C   0  0  0  0  0  0
   -2.4948   52.2509   24.4603 C   0  0  0  0  0  0
   -2.9508   52.0940   25.7489 N   0  0  0  0  0  0
   -1.9742   51.7013   26.5756 N   0  0  0  0  0  0
   -4.2564   52.3123   26.2482 C   0  0  0  0  0  0
   -4.8260   53.5836   26.0831 C   0  0  0  0  0  0
   -6.0950   53.8605   26.5902 C   0  0  0  0  0  0
   -6.8042   52.8735   27.2667 C   0  0  0  0  0  0
   -6.2537   51.6033   27.4234 C   0  0  0  0  0  0
   -4.9852   51.2957   26.9087 C   0  0  0  0  0  0
   -4.4820   49.9092   27.0487 N   0  3  0  0  0  0
   -3.9369   49.3857   26.0809 O   0  0  0  0  0  0
   -4.6959   49.3302   28.1094 O   0  5  0  0  0  0
   -3.3794   52.6905   23.3193 C   0  0  0  0  0  0
   -0.2036   51.9154   23.2921 C   0  0  1  0  0  0
   -0.8008   52.0772   22.3979 H   0  0  0  0  0  0
    0.8611   53.0074   23.3746 C   0  0  0  0  0  0
    2.2281   52.3300   23.3256 C   0  0  1  0  0  0
    2.7289   52.4157   24.2878 H   0  0  0  0  0  0
    1.9042   50.8762   23.0474 C   0  0  0  0  0  0
    0.5833   50.6439   23.0752 C   0  0  0  0  0  0
    3.6874   54.3368   22.5601 C   0  0  0  0  0  0
    4.8596   54.3424   23.5263 C   0  0  0  0  0  0
    6.1997   54.4323   23.1985 C   0  0  0  0  0  0
    6.9771   54.4500   24.3256 N   0  0  0  0  0  0
    7.9869   54.5233   24.2760 H   0  0  0  0  0  0
    6.1732   54.4005   25.4438 C   0  0  0  0  0  0
    4.8232   54.3476   24.9713 C   0  0  0  0  0  0
    3.7875   54.3227   25.9200 C   0  0  0  0  0  0
    4.1029   54.3266   27.2773 C   0  0  0  0  0  0
    5.4256   54.3669   27.7052 C   0  0  0  0  0  0
    6.4905   54.4067   26.8069 C   0  0  0  0  0  0
    0.7003   50.1386   26.0943 H   0  0  0  0  0  0
    1.2062   51.8081   26.2685 H   0  0  0  0  0  0
    0.3182   51.0183   27.5557 H   0  0  0  0  0  0
   -4.2760   54.3707   25.5886 H   0  0  0  0  0  0
   -6.5284   54.8432   26.4798 H   0  0  0  0  0  0
   -7.7878   53.0870   27.6614 H   0  0  0  0  0  0
   -6.8261   50.8415   27.9346 H   0  0  0  0  0  0
   -2.8955   52.5749   22.3519 H   0  0  0  0  0  0
   -4.2947   52.0993   23.2817 H   0  0  0  0  0  0
   -3.6667   53.7381   23.4042 H   0  0  0  0  0  0
    0.7604   53.6222   24.2708 H   0  0  0  0  0  0
    0.7457   53.6917   22.5353 H   0  0  0  0  0  0
    2.6700   50.1249   22.9030 H   0  0  0  0  0  0
    0.0998   49.6853   22.9471 H   0  0  0  0  0  0
    2.8141   54.8972   22.8899 H   0  0  0  0  0  0
    3.9661   54.6877   21.5648 H   0  0  0  0  0  0
    6.6748   54.5085   22.2310 H   0  0  0  0  0  0
    2.7555   54.2990   25.6102 H   0  0  0  0  0  0
    3.3082   54.2995   28.0102 H   0  0  0  0  0  0
    5.6345   54.3745   28.7654 H   0  0  0  0  0  0
    7.5039   54.4387   27.1701 H   0  0  0  0  0  0
    3.2172   52.8962   22.2923 N   0  3  0  0  0  0
    2.7492   52.8785   21.3951 H   0  0  0  0  0  0
    4.0286   52.2991   22.2210 H   0  0  0  0  0  0
  1  2  1  0  0  0
  1 35  1  0  0  0
  1 36  1  0  0  0
  1 37  1  0  0  0
  2  6  2  0  0  0
  2  3  1  0  0  0
  3  4  2  0  0  0
  3 17  1  0  0  0
  4  5  1  0  0  0
  4 16  1  0  0  0
  5  6  1  0  0  0
  5  7  1  0  0  0
  7 12  2  0  0  0
  7  8  1  0  0  0
  8  9  2  0  0  0
  8 38  1  0  0  0
  9 10  1  0  0  0
  9 39  1  0  0  0
 10 11  2  0  0  0
 10 40  1  0  0  0
 11 12  1  0  0  0
 11 41  1  0  0  0
 12 13  1  0  0  0
 13 14  2  0  0  0
 13 15  1  0  0  0
 16 42  1  0  0  0
 16 43  1  0  0  0
 16 44  1  0  0  0
 17 18  1  0  0  0
 17 23  1  0  0  0
 17 19  1  0  0  0
 19 20  1  0  0  0
 19 45  1  0  0  0
 19 46  1  0  0  0
 20 21  1  0  0  0
 20 22  1  0  0  0
 20 56  1  0  0  0
 22 23  2  0  0  0
 22 47  1  0  0  0
 23 48  1  0  0  0
 24 25  1  0  0  0
 24 49  1  0  0  0
 24 50  1  0  0  0
 24 56  1  0  0  0
 25 30  1  0  0  0
 25 26  2  0  0  0
 26 27  1  0  0  0
 26 51  1  0  0  0
 27 28  1  0  0  0
 27 29  1  0  0  0
 29 34  2  0  0  0
 29 30  1  0  0  0
 30 31  2  0  0  0
 31 32  1  0  0  0
 31 52  1  0  0  0
 32 33  2  0  0  0
 32 53  1  0  0  0
 33 34  1  0  0  0
 33 54  1  0  0  0
 34 55  1  0  0  0
 56 57  1  0  0  0
 56 58  1  0  0  0
M  CHG  3  13   1  15  -1  56   1
M  END
> <i_i_glide_confnum>
180

> <i_i_glide_lignum>
262

> <i_i_glide_posenum>
384

> <i_i_glide_rotatable_bonds>
6

> <i_m_Source_File_Index>
4328

> <b_m_subgroup_collapsed>
0

> <r_i_docking_score>
-5.2453

> <r_i_glide_ecoul>
1.58147

> <r_i_glide_eff_state_penalty>
0

> <r_i_glide_einternal>
2.17044

> <r_i_glide_emodel>
-51.0915

> <r_i_glide_energy>
-38.5926

> <r_i_glide_erotb>
0.540915

> <r_i_glide_esite>
-0.151993

> <r_i_glide_evdw>
-40.1741

> <r_i_glide_gscore>
-5.2453

> <r_i_glide_hbond>
-0.32

> <r_i_glide_ligand_efficiency>
-0.163916

> <r_i_glide_ligand_efficiency_ln>
-1.17457

> <r_i_glide_ligand_efficiency_sa>
-0.5204

> <r_i_glide_lipo>
-2.98028

> <r_i_glide_metal>
0

> <r_i_glide_rewards>
-0.562457

> <s_i_glide_gridfile>
wee1_glide-grid

> <s_m_Source_File>
wee1_decoys_glide_SP.sdf

> <s_m_Source_Path>
/Users/zhangxujun/Desktop

> <s_m_entry_id>
4603

> <s_m_entry_name>
wee1_decoys_glide_SP.4328

> <s_m_subgroup_title>
wee1_decoys_glide_SP

> <s_m_subgroupid>
wee1_decoys_glide_SP


$$$$
