@<TRIPOS>MOLECULE
ZINC44854146_6060
75   79    1
SMALL
USER_CHARGES


@<TRIPOS>ATOM
      1 C1          0.5662   54.4288   31.2783 C.3       1 UNK         0.0000 
      2 C2          1.0809   53.5506   30.1288 C.3       1 UNK         0.0000 
      3 C3          0.5908   54.0562   28.7602 C.3       1 UNK         0.0000 
      4 C4          1.1383   53.1889   27.6138 C.3       1 UNK         0.0000 
      5 N5          2.6077   53.2570   27.6233 N.pl3     1 UNK         0.0000 
      6 C6          3.1161   52.6298   28.8577 C.3       1 UNK         0.0000 
      7 C7          2.6202   53.4108   30.0953 C.3       1 UNK         0.0000 
      8 C8          3.3980   53.6908   26.5616 C.ar      1 UNK         0.0000 
      9 C9          4.7161   54.1143   26.7757 C.ar      1 UNK         0.0000 
     10 C10         5.5241   54.4916   25.7085 C.ar      1 UNK         0.0000 
     11 C11         5.0374   54.4488   24.3963 C.ar      1 UNK         0.0000 
     12 C12         3.6994   54.0967   24.1891 C.ar      1 UNK         0.0000 
     13 C13         2.8985   53.7074   25.2544 C.ar      1 UNK         0.0000 
     14 C14         5.9888   54.7595   23.2214 C.3       1 UNK         0.0000 
     15 H15         6.3040   55.7977   23.3476 H         1 UNK         0.0000 
     16 C16         7.2881   53.9459   23.3108 C.3       1 UNK         0.0000 
     17 N17         5.3993   54.6838   21.8671 N.am      1 UNK         0.0000 
     18 C18         4.9855   53.5802   21.2115 C.2       1 UNK         0.0000 
     19 O19         5.1041   52.4436   21.6729 O.2       1 UNK         0.0000 
     20 C20         4.3484   53.7927   19.8253 C.3       1 UNK         0.0000 
     21 H21         4.0530   54.8415   19.7825 H         1 UNK         0.0000 
     22 C22         3.1091   52.8787   19.6457 C.3       1 UNK         0.0000 
     23 C23         2.5320   53.0630   18.2263 C.3       1 UNK         0.0000 
     24 C24         3.5767   52.7693   17.1381 C.3       1 UNK         0.0000 
     25 N25         4.8029   53.6959   17.3573 N.4       1 UNK         0.0000 
     26 C26         5.4336   53.5120   18.7633 C.3       1 UNK         0.0000 
     27 C27         5.8638   53.4464   16.2519 C.3       1 UNK         0.0000 
     28 C28         7.0970   54.3462   16.3625 C.ar      1 UNK         0.0000 
     29 C29         6.9105   55.7303   16.3920 C.ar      1 UNK         0.0000 
     30 C30         7.9784   56.5993   16.5470 C.ar      1 UNK         0.0000 
     31 C31         9.2717   56.1087   16.6693 C.ar      1 UNK         0.0000 
     32 C32         9.5197   54.7153   16.6188 C.ar      1 UNK         0.0000 
     33 C33         8.4248   53.8041   16.4564 C.ar      1 UNK         0.0000 
     34 C34         8.7265   52.4096   16.3977 C.ar      1 UNK         0.0000 
     35 C35        10.0390   51.9560   16.4830 C.ar      1 UNK         0.0000 
     36 C36        11.0868   52.8490   16.6457 C.ar      1 UNK         0.0000 
     37 C37        10.8425   54.2160   16.7187 C.ar      1 UNK         0.0000 
     38 H38         1.0697   55.3986   31.2928 H         1 UNK         0.0000 
     39 H39         0.7049   53.9482   32.2469 H         1 UNK         0.0000 
     40 H40        -0.4943   54.6268   31.1731 H         1 UNK         0.0000 
     41 H41         0.6717   52.5446   30.2496 H         1 UNK         0.0000 
     42 H42        -0.4962   54.0722   28.7358 H         1 UNK         0.0000 
     43 H43         0.8877   55.0953   28.6043 H         1 UNK         0.0000 
     44 H44         0.8286   52.1478   27.7386 H         1 UNK         0.0000 
     45 H45         0.7046   53.5229   26.6762 H         1 UNK         0.0000 
     46 H46         2.7545   51.6000   28.8934 H         1 UNK         0.0000 
     47 H47         4.2031   52.5553   28.8631 H         1 UNK         0.0000 
     48 H48         3.0897   54.3973   30.0808 H         1 UNK         0.0000 
     49 H49         2.9768   52.9337   31.0106 H         1 UNK         0.0000 
     50 H50         5.1320   54.1462   27.7707 H         1 UNK         0.0000 
     51 H51         6.5415   54.7933   25.9103 H         1 UNK         0.0000 
     52 H52         3.2632   54.0824   23.2032 H         1 UNK         0.0000 
     53 H53         1.8950   53.3868   25.0266 H         1 UNK         0.0000 
     54 H54         7.8338   54.1110   24.2364 H         1 UNK         0.0000 
     55 H55         7.0700   52.8916   23.2749 H         1 UNK         0.0000 
     56 H56         7.9517   54.1761   22.4821 H         1 UNK         0.0000 
     57 H57         5.1749   55.5747   21.4473 H         1 UNK         0.0000 
     58 H58         3.3817   51.8232   19.7208 H         1 UNK         0.0000 
     59 H59         2.3187   53.1282   20.3545 H         1 UNK         0.0000 
     60 H60         1.6823   52.3931   18.0925 H         1 UNK         0.0000 
     61 H61         2.1408   54.0718   18.0881 H         1 UNK         0.0000 
     62 H62         3.9046   51.7278   17.1577 H         1 UNK         0.0000 
     63 H63         3.1744   53.0079   16.1522 H         1 UNK         0.0000 
     64 H64         6.2439   54.2387   18.8378 H         1 UNK         0.0000 
     65 H65         5.8263   52.4957   18.7932 H         1 UNK         0.0000 
     66 H66         6.0600   52.3780   16.3119 H         1 UNK         0.0000 
     67 H67         5.3478   53.6336   15.3072 H         1 UNK         0.0000 
     68 H68         5.9151   56.1437   16.3088 H         1 UNK         0.0000 
     69 H69         7.8030   57.6653   16.5787 H         1 UNK         0.0000 
     70 H70        10.1010   56.7927   16.7890 H         1 UNK         0.0000 
     71 H71         7.9565   51.6690   16.2789 H         1 UNK         0.0000 
     72 H72        10.2427   50.8960   16.4353 H         1 UNK         0.0000 
     73 H73        12.0991   52.4785   16.7234 H         1 UNK         0.0000 
     74 H74        11.6659   54.9057   16.8524 H         1 UNK         0.0000 
     75 H75         4.4886   54.6511   17.2829 H         1 UNK         0.0000 
@<TRIPOS>BOND
     1    1    2 1    
     2    1   38 1    
     3    1   39 1    
     4    1   40 1    
     5    2    7 1    
     6    2    3 1    
     7    2   41 1    
     8    3    4 1    
     9    3   42 1    
    10    3   43 1    
    11    4    5 1    
    12    4   44 1    
    13    4   45 1    
    14    5    6 1    
    15    5    8 1    
    16    6    7 1    
    17    6   46 1    
    18    6   47 1    
    19    7   48 1    
    20    7   49 1    
    21    8   13 ar   
    22    8    9 ar   
    23    9   10 ar   
    24    9   50 1    
    25   10   11 ar   
    26   10   51 1    
    27   11   12 ar   
    28   11   14 1    
    29   12   13 ar   
    30   12   52 1    
    31   13   53 1    
    32   14   15 1    
    33   14   16 1    
    34   14   17 1    
    35   16   54 1    
    36   16   55 1    
    37   16   56 1    
    38   17   18 am   BACKBONE|DICT|INTERRES
    39   17   57 1    
    40   18   19 2    
    41   18   20 1    
    42   20   21 1    
    43   20   26 1    
    44   20   22 1    
    45   22   23 1    
    46   22   58 1    
    47   22   59 1    
    48   23   24 1    
    49   23   60 1    
    50   23   61 1    
    51   24   25 1    
    52   24   62 1    
    53   24   63 1    
    54   25   26 1    
    55   25   27 1    
    56   25   75 1    
    57   26   64 1    
    58   26   65 1    
    59   27   28 1    
    60   27   66 1    
    61   27   67 1    
    62   28   33 ar   
    63   28   29 ar   
    64   29   30 ar   
    65   29   68 1    
    66   30   31 ar   
    67   30   69 1    
    68   31   32 ar   
    69   31   70 1    
    70   32   37 ar   
    71   32   33 ar   
    72   33   34 ar   
    73   34   35 ar   
    74   34   71 1    
    75   35   36 ar   
    76   35   72 1    
    77   36   37 ar   
    78   36   73 1    
    79   37   74 1    
@<TRIPOS>SUBSTRUCTURE
     1 UNK         1 GROUP             0       ****    0 ROOT    
