ZINC00143633_3817
                    3D
 Schrodinger Suite 2024-2.
 48 50  0  0  1  0            999 V2000
    0.5763   51.6079   28.4136 C   0  0  0  0  0  0
    0.4604   51.3307   26.9253 C   0  0  0  0  0  0
    0.1214   50.0645   26.4814 C   0  0  0  0  0  0
    0.0298   49.7557   25.1233 C   0  0  0  0  0  0
    0.1779   50.7785   24.1535 C   0  0  0  0  0  0
    0.5529   52.0726   24.6201 C   0  0  0  0  0  0
    0.7042   52.3217   25.9880 C   0  0  0  0  0  0
    0.7936   53.2744   23.7218 C   0  0  0  0  0  0
   -0.1277   50.4709   22.6501 C   0  0  2  0  0  0
   -0.0122   49.3933   22.5435 H   0  0  0  0  0  0
    0.9421   50.9695   21.6239 C   0  0  1  0  0  0
    0.9593   52.0508   21.5626 H   0  0  0  0  0  0
    2.3852   50.5070   21.9602 C   0  0  0  0  0  0
    3.3690   50.9361   20.8662 C   0  0  0  0  0  0
    2.9994   50.3447   19.4958 C   0  0  0  0  0  0
    1.4966   50.3257   19.2612 C   0  0  0  0  0  0
    0.5443   50.6033   20.1860 C   0  0  0  0  0  0
   -0.8692   50.6633   19.8164 C   0  0  0  0  0  0
   -1.8613   50.7695   20.7306 C   0  0  0  0  0  0
   -1.6315   50.7573   22.2551 C   0  0  0  0  0  0
   -2.1288   52.0207   22.8266 C   0  0  0  0  0  0
   -2.5320   53.0047   23.2817 N   0  0  0  0  0  0
   -2.5294   49.7294   22.8213 C   0  0  0  0  0  0
   -3.2493   48.9329   23.2560 N   0  0  0  0  0  0
   -3.1853   50.8838   20.3541 N   0  0  0  0  0  0
   -1.2277   50.6598   18.4267 C   0  0  0  0  0  0
   -1.5598   50.6648   17.3183 N   0  0  0  0  0  0
   -0.2060   48.2849   24.7835 C   0  0  0  0  0  0
    0.9370   52.6165   28.6206 H   0  0  0  0  0  0
   -0.3911   51.4721   28.8989 H   0  0  0  0  0  0
    1.2668   50.8979   28.8718 H   0  0  0  0  0  0
   -0.0759   49.2972   27.2099 H   0  0  0  0  0  0
    0.9938   53.3034   26.3315 H   0  0  0  0  0  0
    0.6735   54.2176   24.2558 H   0  0  0  0  0  0
    1.7963   53.2526   23.2938 H   0  0  0  0  0  0
    0.0629   53.2972   22.9242 H   0  0  0  0  0  0
    2.4192   49.4244   22.0987 H   0  0  0  0  0  0
    2.7040   50.9361   22.9092 H   0  0  0  0  0  0
    3.3653   52.0250   20.7936 H   0  0  0  0  0  0
    4.3893   50.6640   21.1282 H   0  0  0  0  0  0
    3.4964   50.9311   18.7229 H   0  0  0  0  0  0
    3.3791   49.3293   19.3872 H   0  0  0  0  0  0
    1.1928   50.0856   18.2511 H   0  0  0  0  0  0
   -3.9318   50.8894   21.0353 H   0  0  0  0  0  0
   -3.4511   50.8467   19.3795 H   0  0  0  0  0  0
   -0.5091   47.7074   25.6577 H   0  0  0  0  0  0
   -0.9825   48.1266   24.0469 H   0  0  0  0  0  0
    0.7044   47.8457   24.3829 H   0  0  0  0  0  0
  1  2  1  0  0  0
  1 29  1  0  0  0
  1 30  1  0  0  0
  1 31  1  0  0  0
  2  7  2  0  0  0
  2  3  1  0  0  0
  3  4  2  0  0  0
  3 32  1  0  0  0
  4  5  1  0  0  0
  4 28  1  0  0  0
  5  6  2  0  0  0
  5  9  1  0  0  0
  6  7  1  0  0  0
  6  8  1  0  0  0
  7 33  1  0  0  0
  8 34  1  0  0  0
  8 35  1  0  0  0
  8 36  1  0  0  0
  9 10  1  0  0  0
  9 20  1  0  0  0
  9 11  1  0  0  0
 11 12  1  0  0  0
 11 17  1  0  0  0
 11 13  1  0  0  0
 13 14  1  0  0  0
 13 37  1  0  0  0
 13 38  1  0  0  0
 14 15  1  0  0  0
 14 39  1  0  0  0
 14 40  1  0  0  0
 15 16  1  0  0  0
 15 41  1  0  0  0
 15 42  1  0  0  0
 16 17  2  0  0  0
 16 43  1  0  0  0
 17 18  1  0  0  0
 18 19  2  0  0  0
 18 26  1  0  0  0
 19 20  1  0  0  0
 19 25  1  0  0  0
 20 21  1  0  0  0
 20 23  1  0  0  0
 21 22  3  0  0  0
 23 24  3  0  0  0
 25 44  1  0  0  0
 25 45  1  0  0  0
 26 27  3  0  0  0
 28 46  1  0  0  0
 28 47  1  0  0  0
 28 48  1  0  0  0
M  END
> <i_i_glide_confnum>
1

> <i_i_glide_lignum>
3818

> <i_i_glide_posenum>
379

> <i_i_glide_rotatable_bonds>
4

> <i_m_Source_File_Index>
5333

> <b_m_subgroup_collapsed>
0

> <r_i_docking_score>
-2.86277

> <r_i_glide_ecoul>
-1.53688

> <r_i_glide_eff_state_penalty>
0

> <r_i_glide_einternal>
7.75744

> <r_i_glide_emodel>
-23.0179

> <r_i_glide_energy>
-22.5051

> <r_i_glide_erotb>
0.161709

> <r_i_glide_esite>
-0.00451978

> <r_i_glide_evdw>
-20.9682

> <r_i_glide_gscore>
-2.86277

> <r_i_glide_hbond>
0

> <r_i_glide_ligand_efficiency>
-0.110107

> <r_i_glide_ligand_efficiency_ln>
-0.672313

> <r_i_glide_ligand_efficiency_sa>
-0.32619

> <r_i_glide_lipo>
-0.646577

> <r_i_glide_metal>
0

> <r_i_glide_rewards>
-1.09444

> <s_i_glide_gridfile>
wee1_glide-grid

> <s_m_Source_File>
wee1_decoys_glide_SP.sdf

> <s_m_Source_Path>
/Users/zhangxujun/Desktop

> <s_m_entry_id>
5608

> <s_m_entry_name>
wee1_decoys_glide_SP.5333

> <s_m_subgroup_title>
wee1_decoys_glide_SP

> <s_m_subgroupid>
wee1_decoys_glide_SP


$$$$
