ZINC09374567_5906
                    3D
 Schrodinger Suite 2024-2.
 63 65  0  0  1  0            999 V2000
   -0.0818   52.7356   30.0433 C   0  0  0  0  0  0
    0.2982   52.5832   28.5761 C   0  0  0  0  0  0
   -0.2573   51.5340   27.8383 C   0  0  0  0  0  0
    0.0614   51.3636   26.4928 C   0  0  0  0  0  0
    0.9224   52.2580   25.8548 C   0  0  0  0  0  0
    1.5040   53.2965   26.5962 C   0  0  0  0  0  0
    1.1917   53.4707   27.9504 C   0  0  0  0  0  0
    1.8298   54.6231   28.7148 C   0  0  0  0  0  0
    1.2190   52.0195   24.5041 N   0  0  0  0  0  0
    1.5465   52.9065   23.5435 C   0  0  0  0  0  0
    1.5074   54.1299   23.6809 O   0  0  0  0  0  0
    2.0264   52.3005   22.2160 C   0  0  0  0  0  0
    0.7229   51.8888   20.9958 S   0  0  0  0  0  0
   -0.3452   50.6547   21.7488 C   0  0  0  0  0  0
   -1.6553   50.5651   21.4456 C   0  0  0  0  0  0
   -2.5376   49.6148   22.2529 C   0  0  1  0  0  0
   -3.2306   49.1568   21.5440 H   0  0  0  0  0  0
   -1.6562   48.4435   22.8589 C   0  0  1  0  0  0
   -1.4134   47.7817   22.0268 H   0  0  0  0  0  0
   -0.2349   48.8973   23.3370 C   0  0  0  0  0  0
    0.3044   48.3037   24.2666 O   0  0  0  0  0  0
    0.3348   49.8857   22.6865 N   0  5  0  0  0  0
   -2.3951   47.5541   23.8903 C   0  0  0  0  0  0
   -2.7112   46.3910   23.6190 O   0  0  0  0  0  0
   -2.6043   48.1661   25.0767 O   0  0  0  0  0  0
   -3.2146   47.4756   26.1544 C   0  0  0  0  0  0
   -3.3910   50.4000   23.2632 C   0  0  0  0  0  0
   -2.7852   51.2944   24.1531 C   0  0  0  0  0  0
   -3.5532   52.0099   25.0635 C   0  0  0  0  0  0
   -4.9408   51.8411   25.0938 C   0  0  0  0  0  0
   -5.5476   50.9406   24.2129 C   0  0  0  0  0  0
   -4.7772   50.2231   23.3018 C   0  0  0  0  0  0
   -5.7969   52.6340   26.0814 C   0  0  0  0  0  0
   -5.7056   52.0456   27.4995 C   0  0  0  0  0  0
   -5.4799   54.1428   26.0574 C   0  0  0  0  0  0
   -2.2573   51.4095   20.4641 C   0  0  0  0  0  0
   -2.7658   52.0966   19.6818 N   0  0  0  0  0  0
   -0.4956   53.7272   30.2267 H   0  0  0  0  0  0
   -0.8254   52.0010   30.3586 H   0  0  0  0  0  0
    0.7971   52.6225   30.6778 H   0  0  0  0  0  0
   -0.9356   50.8336   28.3052 H   0  0  0  0  0  0
   -0.3715   50.5310   25.9555 H   0  0  0  0  0  0
    2.2000   53.9726   26.1219 H   0  0  0  0  0  0
    2.3745   54.2472   29.5803 H   0  0  0  0  0  0
    2.5270   55.1938   28.1005 H   0  0  0  0  0  0
    1.0637   55.3067   29.0803 H   0  0  0  0  0  0
    1.0778   51.0663   24.1803 H   0  0  0  0  0  0
    2.6870   53.0254   21.7397 H   0  0  0  0  0  0
    2.6414   51.4183   22.3985 H   0  0  0  0  0  0
   -3.3634   48.1617   26.9871 H   0  0  0  0  0  0
   -4.1875   47.0724   25.8689 H   0  0  0  0  0  0
   -2.5819   46.6562   26.4989 H   0  0  0  0  0  0
   -1.7156   51.4394   24.1421 H   0  0  0  0  0  0
   -3.0624   52.6894   25.7448 H   0  0  0  0  0  0
   -6.6182   50.7957   24.2302 H   0  0  0  0  0  0
   -5.2612   49.5328   22.6266 H   0  0  0  0  0  0
   -6.8359   52.5452   25.7589 H   0  0  0  0  0  0
   -4.6880   52.0955   27.8873 H   0  0  0  0  0  0
   -6.3550   52.5808   28.1925 H   0  0  0  0  0  0
   -6.0081   50.9977   27.5117 H   0  0  0  0  0  0
   -5.4825   54.5168   25.0343 H   0  0  0  0  0  0
   -6.2182   54.7120   26.6226 H   0  0  0  0  0  0
   -4.5013   54.3619   26.4841 H   0  0  0  0  0  0
  1  2  1  0  0  0
  1 38  1  0  0  0
  1 39  1  0  0  0
  1 40  1  0  0  0
  2  7  2  0  0  0
  2  3  1  0  0  0
  3  4  2  0  0  0
  3 41  1  0  0  0
  4  5  1  0  0  0
  4 42  1  0  0  0
  5  6  2  0  0  0
  5  9  1  0  0  0
  6  7  1  0  0  0
  6 43  1  0  0  0
  7  8  1  0  0  0
  8 44  1  0  0  0
  8 45  1  0  0  0
  8 46  1  0  0  0
  9 10  1  0  0  0
  9 47  1  0  0  0
 10 11  2  0  0  0
 10 12  1  0  0  0
 12 13  1  0  0  0
 12 48  1  0  0  0
 12 49  1  0  0  0
 13 14  1  0  0  0
 14 22  1  0  0  0
 14 15  2  0  0  0
 15 16  1  0  0  0
 15 36  1  0  0  0
 16 17  1  0  0  0
 16 18  1  0  0  0
 16 27  1  0  0  0
 18 19  1  0  0  0
 18 20  1  0  0  0
 18 23  1  0  0  0
 20 21  2  0  0  0
 20 22  1  0  0  0
 23 24  2  0  0  0
 23 25  1  0  0  0
 25 26  1  0  0  0
 26 50  1  0  0  0
 26 51  1  0  0  0
 26 52  1  0  0  0
 27 32  2  0  0  0
 27 28  1  0  0  0
 28 29  2  0  0  0
 28 53  1  0  0  0
 29 30  1  0  0  0
 29 54  1  0  0  0
 30 31  2  0  0  0
 30 33  1  0  0  0
 31 32  1  0  0  0
 31 55  1  0  0  0
 32 56  1  0  0  0
 33 34  1  0  0  0
 33 35  1  0  0  0
 33 57  1  0  0  0
 34 58  1  0  0  0
 34 59  1  0  0  0
 34 60  1  0  0  0
 35 61  1  0  0  0
 35 62  1  0  0  0
 35 63  1  0  0  0
 36 37  3  0  0  0
M  CHG  1  22  -1
M  END
> <i_i_glide_confnum>
70

> <i_i_glide_lignum>
5907

> <i_i_glide_posenum>
290

> <i_i_glide_rotatable_bonds>
10

> <i_m_Source_File_Index>
4302

> <b_m_subgroup_collapsed>
0

> <r_i_docking_score>
-3.51825

> <r_i_glide_ecoul>
-5.16228

> <r_i_glide_eff_state_penalty>
0

> <r_i_glide_einternal>
1.99748

> <r_i_glide_emodel>
-48.4767

> <r_i_glide_energy>
-40.788

> <r_i_glide_erotb>
0.591904

> <r_i_glide_esite>
-0.0466733

> <r_i_glide_evdw>
-35.6257

> <r_i_glide_gscore>
-3.51825

> <r_i_glide_hbond>
-0.32

> <r_i_glide_ligand_efficiency>
-0.100522

> <r_i_glide_ligand_efficiency_ln>
-0.772335

> <r_i_glide_ligand_efficiency_sa>
-0.328813

> <r_i_glide_lipo>
-0.921778

> <r_i_glide_metal>
0

> <r_i_glide_rewards>
-0.266078

> <s_i_glide_gridfile>
wee1_glide-grid

> <s_m_Source_File>
wee1_decoys_glide_SP.sdf

> <s_m_Source_Path>
/Users/zhangxujun/Desktop

> <s_m_entry_id>
4577

> <s_m_entry_name>
wee1_decoys_glide_SP.4302

> <s_m_subgroup_title>
wee1_decoys_glide_SP

> <s_m_subgroupid>
wee1_decoys_glide_SP


$$$$
