@<TRIPOS>MOLECULE
ZINC36050679_5656
53   56    1
SMALL
USER_CHARGES


@<TRIPOS>ATOM
      1 C1         -0.2466   52.0598   19.7416 C.3       1 UNK         0.0000 
      2 C2          0.6399   50.9667   20.3239 C.ar      1 UNK         0.0000 
      3 C3          0.4659   49.6571   19.8629 C.ar      1 UNK         0.0000 
      4 C4          1.2700   48.6258   20.3410 C.ar      1 UNK         0.0000 
      5 C5          2.2498   48.8961   21.2907 C.ar      1 UNK         0.0000 
      6 C6          2.4323   50.1908   21.7571 C.ar      1 UNK         0.0000 
      7 C7          1.6413   51.2392   21.2818 C.ar      1 UNK         0.0000 
      8 C8          1.9231   52.6565   21.8057 C.3       1 UNK         0.0000 
      9 H9          1.2420   53.3138   21.2843 H         1 UNK         0.0000 
     10 C10         1.6660   52.8441   23.3390 C.2       1 UNK         0.0000 
     11 C11         2.6227   53.4126   24.1382 C.2       1 UNK         0.0000 
     12 N12         3.7901   53.9231   23.6562 N.2       1 UNK         0.0000 
     13 C13         4.0675   53.7717   22.4233 C.2       1 UNK         0.0000 
     14 N14         3.3035   53.1254   21.4516 N.pl3     1 UNK         0.0000 
     15 C15         3.8610   53.1577   20.1751 C.2       1 UNK         0.0000 
     16 C16         4.9944   53.8775   20.1270 C.2       1 UNK         0.0000 
     17 S17         5.5038   54.4975   21.6845 S.3       1 UNK         0.0000 
     18 C18         3.3404   52.5043   18.9875 C.2       1 UNK         0.0000 
     19 C19         3.1454   53.0662   17.7815 C.2       1 UNK         0.0000 
     20 O20         3.2930   54.2926   17.4213 O.co2     1 UNK         0.0000 
     21 N21         2.7049   52.2564   16.7500 N.pl3     1 UNK         0.0000 
     22 C22         2.6066   52.4282   15.3566 C.ar      1 UNK         0.0000 
     23 C23         1.7026   51.6024   14.6828 C.ar      1 UNK         0.0000 
     24 C24         1.5692   51.6826   13.2986 C.ar      1 UNK         0.0000 
     25 C25         2.3529   52.5832   12.5813 C.ar      1 UNK         0.0000 
     26 C26         3.2690   53.4018   13.2381 C.ar      1 UNK         0.0000 
     27 C27         3.3991   53.3222   14.6227 C.ar      1 UNK         0.0000 
     28 F28         2.2327   52.6550   11.2370 F         1 UNK         0.0000 
     29 C29         2.5369   53.7060   25.6357 C.3       1 UNK         0.0000 
     30 C30         0.3854   52.3268   23.8575 C.2       1 UNK         0.0000 
     31 O31        -0.6586   52.3813   23.2030 O.2       1 UNK         0.0000 
     32 O32         0.4847   51.7288   25.0686 O.3       1 UNK         0.0000 
     33 C33        -0.6470   51.1262   25.6819 C.3       1 UNK         0.0000 
     34 H34        -0.8975   51.6874   18.9501 H         1 UNK         0.0000 
     35 H35        -0.8670   52.4959   20.5231 H         1 UNK         0.0000 
     36 H36         0.3613   52.8563   19.3103 H         1 UNK         0.0000 
     37 H37        -0.2870   49.4342   19.1213 H         1 UNK         0.0000 
     38 H38         1.1365   47.6196   19.9733 H         1 UNK         0.0000 
     39 H39         2.8720   48.0991   21.6683 H         1 UNK         0.0000 
     40 H40         3.2049   50.3868   22.4817 H         1 UNK         0.0000 
     41 H41         5.5923   54.0457   19.2428 H         1 UNK         0.0000 
     42 H42         3.1329   51.4489   19.0826 H         1 UNK         0.0000 
     43 H43         2.5293   51.3005   17.0168 H         1 UNK         0.0000 
     44 H44         1.1003   50.8937   15.2319 H         1 UNK         0.0000 
     45 H45         0.8653   51.0460   12.7833 H         1 UNK         0.0000 
     46 H46         3.8800   54.0905   12.6728 H         1 UNK         0.0000 
     47 H47         4.1320   53.9449   15.1133 H         1 UNK         0.0000 
     48 H48         1.5112   53.8184   25.9796 H         1 UNK         0.0000 
     49 H49         3.0047   52.8971   26.1962 H         1 UNK         0.0000 
     50 H50         3.0550   54.6298   25.9031 H         1 UNK         0.0000 
     51 H51        -0.3595   50.6751   26.6322 H         1 UNK         0.0000 
     52 H52        -1.4260   51.8641   25.8768 H         1 UNK         0.0000 
     53 H53        -1.0636   50.3421   25.0481 H         1 UNK         0.0000 
@<TRIPOS>BOND
     1    1    2 1    
     2    1   34 1    
     3    1   35 1    
     4    1   36 1    
     5    2    7 ar   
     6    2    3 ar   
     7    3    4 ar   
     8    3   37 1    
     9    4    5 ar   
    10    4   38 1    
    11    5    6 ar   
    12    5   39 1    
    13    6    7 ar   
    14    6   40 1    
    15    7    8 1    
    16    8    9 1    
    17    8   14 1    
    18    8   10 1    
    19   10   11 2    
    20   10   30 1    
    21   11   12 1    
    22   11   29 1    
    23   12   13 2    
    24   13   17 1    
    25   13   14 1    
    26   14   15 1    
    27   15   16 2    
    28   15   18 1    
    29   16   17 1    
    30   16   41 1    
    31   18   19 2    
    32   18   42 1    
    33   19   20 1    
    34   19   21 1    
    35   21   22 1    
    36   21   43 1    
    37   22   27 ar   
    38   22   23 ar   
    39   23   24 ar   
    40   23   44 1    
    41   24   25 ar   
    42   24   45 1    
    43   25   26 ar   
    44   25   28 1    
    45   26   27 ar   
    46   26   46 1    
    47   27   47 1    
    48   29   48 1    
    49   29   49 1    
    50   29   50 1    
    51   30   31 2    
    52   30   32 1    
    53   32   33 1    
    54   33   51 1    
    55   33   52 1    
    56   33   53 1    
@<TRIPOS>SUBSTRUCTURE
     1 UNK         1 GROUP             0       ****    0 ROOT    
