@<TRIPOS>MOLECULE
ZINC36050880_5959
57   60    1
SMALL
USER_CHARGES


@<TRIPOS>ATOM
      1 C1         -5.6699   53.6824   25.2915 C.3       1 UNK         0.0000 
      2 C2         -4.4509   53.2387   24.4808 C.3       1 UNK         0.0000 
      3 O3         -3.4153   52.8436   25.3681 O.3       1 UNK         0.0000 
      4 C4         -2.1913   52.4970   24.9024 C.2       1 UNK         0.0000 
      5 O5         -1.8989   52.5308   23.7043 O.2       1 UNK         0.0000 
      6 C6         -1.1985   52.2127   25.9648 C.2       1 UNK         0.0000 
      7 C7         -1.5278   51.7895   27.2254 C.2       1 UNK         0.0000 
      8 N8         -0.6217   51.6958   28.2400 N.2       1 UNK         0.0000 
      9 C9          0.5708   52.1010   28.0487 C.2       1 UNK         0.0000 
     10 N10         1.1151   52.6031   26.8677 N.pl3     1 UNK         0.0000 
     11 C11         0.2850   52.5731   25.6255 C.3       1 UNK         0.0000 
     12 H12         0.3051   53.5949   25.2556 H         1 UNK         0.0000 
     13 C13         0.8644   51.7179   24.4925 C.ar      1 UNK         0.0000 
     14 C14         1.4256   52.3311   23.3662 C.ar      1 UNK         0.0000 
     15 C15         1.7945   51.5642   22.2643 C.ar      1 UNK         0.0000 
     16 C16         1.5916   50.1863   22.2852 C.ar      1 UNK         0.0000 
     17 C17         1.0644   49.5670   23.4146 C.ar      1 UNK         0.0000 
     18 C18         0.7044   50.3280   24.5205 C.ar      1 UNK         0.0000 
     19 Cl19        1.9518   49.2393   20.8905 Cl        1 UNK         0.0000 
     20 C20         2.3852   53.1572   27.0040 C.2       1 UNK         0.0000 
     21 C21         2.8915   52.9438   28.2337 C.2       1 UNK         0.0000 
     22 S22         1.8038   52.0967   29.3176 S.3       1 UNK         0.0000 
     23 C23         3.1036   53.8897   25.9663 C.2       1 UNK         0.0000 
     24 C24         4.4306   54.1252   25.8838 C.2       1 UNK         0.0000 
     25 O25         5.4080   53.7735   26.6441 O.co2     1 UNK         0.0000 
     26 N26         4.8857   54.8964   24.8411 N.pl3     1 UNK         0.0000 
     27 C27         6.2171   55.1157   24.2754 C.3       1 UNK         0.0000 
     28 C28         6.4327   54.5942   22.8321 C.3       1 UNK         0.0000 
     29 H29         7.0557   53.6999   22.8986 H         1 UNK         0.0000 
     30 C30         5.1967   54.2327   22.0029 C.3       1 UNK         0.0000 
     31 C31         5.6333   54.4509   20.5679 C.3       1 UNK         0.0000 
     32 C32         6.8540   55.3726   20.6683 C.3       1 UNK         0.0000 
     33 O33         7.0426   55.6263   22.0604 O.3       1 UNK         0.0000 
     34 C34        -2.8893   51.2885   27.7071 C.3       1 UNK         0.0000 
     35 H35        -6.4701   54.0148   24.6290 H         1 UNK         0.0000 
     36 H36        -6.0534   52.8645   25.9017 H         1 UNK         0.0000 
     37 H37        -5.4167   54.5049   25.9595 H         1 UNK         0.0000 
     38 H38        -4.1102   54.0621   23.8492 H         1 UNK         0.0000 
     39 H39        -4.7162   52.4070   23.8274 H         1 UNK         0.0000 
     40 H40         1.5374   53.4031   23.3202 H         1 UNK         0.0000 
     41 H41         2.2023   52.0419   21.3847 H         1 UNK         0.0000 
     42 H42         0.9193   48.4973   23.4304 H         1 UNK         0.0000 
     43 H43         0.2673   49.8431   25.3840 H         1 UNK         0.0000 
     44 H44         3.8582   53.2659   28.5918 H         1 UNK         0.0000 
     45 H45         2.4911   54.3157   25.1867 H         1 UNK         0.0000 
     46 H46         4.1689   55.3040   24.2615 H         1 UNK         0.0000 
     47 H47         7.0172   54.7784   24.9368 H         1 UNK         0.0000 
     48 H48         6.3163   56.2005   24.2548 H         1 UNK         0.0000 
     49 H49         4.3663   54.8976   22.2412 H         1 UNK         0.0000 
     50 H50         4.8274   53.2315   22.2289 H         1 UNK         0.0000 
     51 H51         4.8354   54.8941   19.9701 H         1 UNK         0.0000 
     52 H52         5.9044   53.5066   20.0923 H         1 UNK         0.0000 
     53 H53         6.6998   56.3140   20.1370 H         1 UNK         0.0000 
     54 H54         7.7455   54.8954   20.2598 H         1 UNK         0.0000 
     55 H55        -3.4637   52.0966   28.1561 H         1 UNK         0.0000 
     56 H56        -3.4753   50.8638   26.8941 H         1 UNK         0.0000 
     57 H57        -2.7864   50.4968   28.4503 H         1 UNK         0.0000 
@<TRIPOS>BOND
     1    1    2 1    
     2    1   35 1    
     3    1   36 1    
     4    1   37 1    
     5    2    3 1    
     6    2   38 1    
     7    2   39 1    
     8    3    4 1    
     9    4    5 2    
    10    4    6 1    
    11    6   11 1    
    12    6    7 2    
    13    7    8 1    
    14    7   34 1    
    15    8    9 2    
    16    9   22 1    
    17    9   10 1    
    18   10   11 1    
    19   10   20 1    
    20   11   12 1    
    21   11   13 1    
    22   13   18 ar   
    23   13   14 ar   
    24   14   15 ar   
    25   14   40 1    
    26   15   16 ar   
    27   15   41 1    
    28   16   17 ar   
    29   16   19 1    
    30   17   18 ar   
    31   17   42 1    
    32   18   43 1    
    33   20   21 2    
    34   20   23 1    
    35   21   22 1    
    36   21   44 1    
    37   23   24 2    
    38   23   45 1    
    39   24   25 1    
    40   24   26 1    
    41   26   27 1    
    42   26   46 1    
    43   27   28 1    
    44   27   47 1    
    45   27   48 1    
    46   28   29 1    
    47   28   33 1    
    48   28   30 1    
    49   30   31 1    
    50   30   49 1    
    51   30   50 1    
    52   31   32 1    
    53   31   51 1    
    54   31   52 1    
    55   32   33 1    
    56   32   53 1    
    57   32   54 1    
    58   34   55 1    
    59   34   56 1    
    60   34   57 1    
@<TRIPOS>SUBSTRUCTURE
     1 UNK         1 GROUP             0       ****    0 ROOT    
