ZINC39970960_2987
                    3D
 Schrodinger Suite 2024-2.
 57 60  0  0  1  0            999 V2000
    6.3399   54.0979   26.7138 C   0  0  0  0  0  0
    5.6160   53.6979   27.8396 C   0  0  0  0  0  0
    4.2304   53.8697   27.8886 C   0  0  0  0  0  0
    3.5830   54.4960   26.8185 C   0  0  0  0  0  0
    4.2937   54.8644   25.6822 C   0  0  0  0  0  0
    5.6743   54.6560   25.6194 C   0  0  0  0  0  0
    6.4163   55.0629   24.4916 N   0  0  0  0  0  0
    6.2316   54.7975   23.1594 C   0  0  0  0  0  0
    5.1042   53.6967   22.5694 S   0  0  0  0  0  0
    7.0783   55.5388   22.3765 N   0  0  0  0  0  0
    7.2182   55.6340   20.9767 C   0  0  0  0  0  0
    8.5187   55.6966   20.4815 C   0  0  0  0  0  0
    8.7487   55.6538   19.1112 C   0  0  0  0  0  0
    7.6718   55.5664   18.2315 C   0  0  0  0  0  0
    6.3626   55.5979   18.7125 C   0  0  0  0  0  0
    6.1363   55.6509   20.0848 C   0  0  0  0  0  0
    7.9885   55.3118   16.4908 S   0  0  0  0  0  0
    9.2126   56.0567   16.1720 O   0  0  0  0  0  0
    6.7438   55.5863   15.7638 O   0  0  0  0  0  0
    8.3673   53.5732   16.3858 N   0  0  0  0  0  0
    9.2029   53.1748   15.2274 C   0  0  0  0  0  0
    8.3704   53.1804   13.9276 C   0  0  0  0  0  0
    7.1192   52.2754   14.0645 C   0  0  0  0  0  0
    6.3209   52.5139   15.3719 C   0  0  0  0  0  0
    7.2484   52.6182   16.6051 C   0  0  0  0  0  0
    3.5421   53.4491   29.0146 O   0  0  0  0  0  0
    2.2735   52.8937   28.9391 C   0  0  0  0  0  0
    1.8030   52.2125   27.8074 C   0  0  0  0  0  0
    0.5072   51.7078   27.7711 C   0  0  0  0  0  0
   -0.3252   51.8688   28.8740 C   0  0  0  0  0  0
    0.1432   52.4969   30.0272 C   0  0  0  0  0  0
    1.4415   53.0045   30.0555 C   0  0  0  0  0  0
   -1.9511   51.2967   28.7935 Cl  0  0  0  0  0  0
    7.4086   53.9475   26.6926 H   0  0  0  0  0  0
    6.1293   53.2458   28.6748 H   0  0  0  0  0  0
    2.5186   54.6669   26.8589 H   0  0  0  0  0  0
    3.7630   55.2966   24.8488 H   0  0  0  0  0  0
    7.2570   55.5706   24.7169 H   0  0  0  0  0  0
    7.8331   55.9859   22.8772 H   0  0  0  0  0  0
    9.3629   55.7093   21.1543 H   0  0  0  0  0  0
    9.7654   55.6368   18.7422 H   0  0  0  0  0  0
    5.5236   55.5441   18.0329 H   0  0  0  0  0  0
    5.1171   55.6520   20.4388 H   0  0  0  0  0  0
    9.5143   52.1422   15.3944 H   0  0  0  0  0  0
   10.1261   53.7552   15.2147 H   0  0  0  0  0  0
    8.9843   52.8385   13.0936 H   0  0  0  0  0  0
    8.0723   54.2010   13.6823 H   0  0  0  0  0  0
    6.4671   52.4046   13.2003 H   0  0  0  0  0  0
    7.4407   51.2329   14.0414 H   0  0  0  0  0  0
    5.7080   53.4090   15.2808 H   0  0  0  0  0  0
    5.6104   51.6996   15.5222 H   0  0  0  0  0  0
    7.6981   51.6310   16.7238 H   0  0  0  0  0  0
    6.7600   52.8141   17.5602 H   0  0  0  0  0  0
    2.4325   52.0968   26.9395 H   0  0  0  0  0  0
    0.1445   51.2017   26.8880 H   0  0  0  0  0  0
   -0.4968   52.5921   30.8940 H   0  0  0  0  0  0
    1.7942   53.5014   30.9433 H   0  0  0  0  0  0
  1  6  2  0  0  0
  1  2  1  0  0  0
  1 34  1  0  0  0
  2  3  2  0  0  0
  2 35  1  0  0  0
  3  4  1  0  0  0
  3 26  1  0  0  0
  4  5  2  0  0  0
  4 36  1  0  0  0
  5  6  1  0  0  0
  5 37  1  0  0  0
  6  7  1  0  0  0
  7  8  1  0  0  0
  7 38  1  0  0  0
  8  9  2  0  0  0
  8 10  1  0  0  0
 10 11  1  0  0  0
 10 39  1  0  0  0
 11 16  2  0  0  0
 11 12  1  0  0  0
 12 13  2  0  0  0
 12 40  1  0  0  0
 13 14  1  0  0  0
 13 41  1  0  0  0
 14 15  2  0  0  0
 14 17  1  0  0  0
 15 16  1  0  0  0
 15 42  1  0  0  0
 16 43  1  0  0  0
 17 18  2  0  0  0
 17 19  2  0  0  0
 17 20  1  0  0  0
 20 25  1  0  0  0
 20 21  1  0  0  0
 21 22  1  0  0  0
 21 44  1  0  0  0
 21 45  1  0  0  0
 22 23  1  0  0  0
 22 46  1  0  0  0
 22 47  1  0  0  0
 23 24  1  0  0  0
 23 48  1  0  0  0
 23 49  1  0  0  0
 24 25  1  0  0  0
 24 50  1  0  0  0
 24 51  1  0  0  0
 25 52  1  0  0  0
 25 53  1  0  0  0
 26 27  1  0  0  0
 27 32  2  0  0  0
 27 28  1  0  0  0
 28 29  2  0  0  0
 28 54  1  0  0  0
 29 30  1  0  0  0
 29 55  1  0  0  0
 30 31  2  0  0  0
 30 33  1  0  0  0
 31 32  1  0  0  0
 31 56  1  0  0  0
 32 57  1  0  0  0
M  END
> <i_i_glide_confnum>
132

> <i_i_glide_lignum>
2988

> <i_i_glide_posenum>
293

> <i_i_glide_rotatable_bonds>
8

> <i_m_Source_File_Index>
5101

> <b_m_subgroup_collapsed>
0

> <r_i_docking_score>
-3.91397

> <r_i_glide_ecoul>
-0.992074

> <r_i_glide_eff_state_penalty>
0

> <r_i_glide_einternal>
4.69266

> <r_i_glide_emodel>
-53.5321

> <r_i_glide_energy>
-48.198

> <r_i_glide_erotb>
0.648449

> <r_i_glide_esite>
0

> <r_i_glide_evdw>
-47.206

> <r_i_glide_gscore>
-3.91397

> <r_i_glide_hbond>
-0.13093

> <r_i_glide_ligand_efficiency>
-0.118605

> <r_i_glide_ligand_efficiency_ln>
-0.870447

> <r_i_glide_ligand_efficiency_sa>
-0.38043

> <r_i_glide_lipo>
-2.86297

> <r_i_glide_metal>
0

> <r_i_glide_rewards>
0.940589

> <s_i_glide_gridfile>
wee1_glide-grid

> <s_m_Source_File>
wee1_decoys_glide_SP.sdf

> <s_m_Source_Path>
/Users/zhangxujun/Desktop

> <s_m_entry_id>
5376

> <s_m_entry_name>
wee1_decoys_glide_SP.5101

> <s_m_subgroup_title>
wee1_decoys_glide_SP

> <s_m_subgroupid>
wee1_decoys_glide_SP


$$$$
