@<TRIPOS>MOLECULE
ZINC63383861_658
63   68    1
SMALL
USER_CHARGES


@<TRIPOS>ATOM
      1 C1          1.1456   47.8718   18.2307 C.3       1 UNK         0.0000 
      2 C2          0.7713   49.0855   19.0981 C.3       1 UNK         0.0000 
      3 C3          0.9092   48.8561   20.6274 C.3       1 UNK         0.0000 
      4 H4          0.3142   47.9679   20.8455 H         1 UNK         0.0000 
      5 C5          2.3554   48.5231   21.0483 C.3       1 UNK         0.0000 
      6 N6          0.3558   49.9771   21.4257 N.am      1 UNK         0.0000 
      7 C7          0.8630   51.2368   21.4111 C.2       1 UNK         0.0000 
      8 O8          1.8071   51.6667   20.7499 O.2       1 UNK         0.0000 
      9 C9          0.0349   52.0869   22.3525 C.3       1 UNK         0.0000 
     10 H10        -0.4378   52.8958   21.8022 H         1 UNK         0.0000 
     11 C11         0.8268   52.5627   23.5837 C.3       1 UNK         0.0000 
     12 H12         1.6059   51.8307   23.8255 H         1 UNK         0.0000 
     13 N13        -0.1426   52.4964   24.6667 N.3       1 UNK         0.0000 
     14 C14        -1.0215   51.3439   24.4506 C.3       1 UNK         0.0000 
     15 C15        -1.0303   51.1723   22.8847 C.3       1 UNK         0.0000 
     16 H16        -1.9981   51.4761   22.4815 H         1 UNK         0.0000 
     17 C17        -0.7032   49.8101   22.2607 C.2       1 UNK         0.0000 
     18 O18        -1.3430   48.7773   22.4673 O.2       1 UNK         0.0000 
     19 C19        -2.3849   51.5149   25.0602 C.ar      1 UNK         0.0000 
     20 C20        -3.3800   52.4638   24.8174 C.ar      1 UNK         0.0000 
     21 C21        -4.5978   52.3740   25.4926 C.ar      1 UNK         0.0000 
     22 C22        -4.8222   51.3351   26.4023 C.ar      1 UNK         0.0000 
     23 C23        -3.8259   50.3856   26.6580 C.ar      1 UNK         0.0000 
     24 C24        -2.6070   50.4986   25.9742 C.ar      1 UNK         0.0000 
     25 N25        -1.4604   49.7232   26.0796 N.am      1 UNK         0.0000 
     26 C26        -0.4629   50.1417   25.2772 C.2       1 UNK         0.0000 
     27 O27         0.6736   49.6751   25.2064 O.2       1 UNK         0.0000 
     28 C28        -4.1114   49.2582   27.6378 C.3       1 UNK         0.0000 
     29 C29         1.4955   53.9509   23.4362 C.3       1 UNK         0.0000 
     30 C30         3.0132   53.9447   23.4319 C.2       1 UNK         0.0000 
     31 C31         3.8864   54.0932   24.4431 C.2       1 UNK         0.0000 
     32 C32         3.6628   54.2350   25.8895 C.2       1 UNK         0.0000 
     33 C33         4.6997   54.3746   26.7377 C.2       1 UNK         0.0000 
     34 C34         6.0431   54.3853   26.1771 C.2       1 UNK         0.0000 
     35 C35         6.2675   54.2663   24.8414 C.2       1 UNK         0.0000 
     36 C36         5.1957   54.1136   23.9535 C.2       1 UNK         0.0000 
     37 N37         5.1990   53.9866   22.6481 N.pl3     1 UNK         0.0000 
     38 C38         3.8197   53.8500   22.1519 C.3       1 UNK         0.0000 
     39 H39         0.9259   48.0665   17.1810 H         1 UNK         0.0000 
     40 H40         2.2109   47.6445   18.2950 H         1 UNK         0.0000 
     41 H41         0.5882   46.9828   18.5244 H         1 UNK         0.0000 
     42 H42        -0.2611   49.3586   18.8718 H         1 UNK         0.0000 
     43 H43         1.3795   49.9375   18.7863 H         1 UNK         0.0000 
     44 H44         2.7267   47.6332   20.5462 H         1 UNK         0.0000 
     45 H45         3.0547   49.3171   20.7787 H         1 UNK         0.0000 
     46 H46         2.4367   48.3548   22.1210 H         1 UNK         0.0000 
     47 H47         0.2961   52.4521   25.5784 H         1 UNK         0.0000 
     48 H48        -3.2197   53.2635   24.1071 H         1 UNK         0.0000 
     49 H49        -5.3765   53.0989   25.3022 H         1 UNK         0.0000 
     50 H50        -5.7748   51.2719   26.9091 H         1 UNK         0.0000 
     51 H51        -1.3408   48.9906   26.7775 H         1 UNK         0.0000 
     52 H52        -3.6772   48.3225   27.2846 H         1 UNK         0.0000 
     53 H53        -3.6951   49.4766   28.6216 H         1 UNK         0.0000 
     54 H54        -5.1807   49.0785   27.7431 H         1 UNK         0.0000 
     55 H55         1.1547   54.4607   22.5346 H         1 UNK         0.0000 
     56 H56         1.1863   54.5953   24.2592 H         1 UNK         0.0000 
     57 H57         2.6679   54.2213   26.3079 H         1 UNK         0.0000 
     58 H58         4.5461   54.4706   27.8037 H         1 UNK         0.0000 
     59 H59         6.8825   54.4796   26.8518 H         1 UNK         0.0000 
     60 H60         7.2865   54.2750   24.4826 H         1 UNK         0.0000 
     61 H61         3.7418   52.8863   21.6487 H         1 UNK         0.0000 
     62 H62         3.6217   54.6559   21.4428 H         1 UNK         0.0000 
     63 H63         6.0233   53.9757   22.0530 H         1 UNK         0.0000 
@<TRIPOS>BOND
     1    1    2 1    
     2    1   39 1    
     3    1   40 1    
     4    1   41 1    
     5    2    3 1    
     6    2   42 1    
     7    2   43 1    
     8    3    4 1    
     9    3    5 1    
    10    3    6 1    
    11    5   44 1    
    12    5   45 1    
    13    5   46 1    
    14    6   17 am   BACKBONE|DICT|INTERRES
    15    6    7 am   BACKBONE|DICT|INTERRES
    16    7    8 2    
    17    7    9 1    
    18    9   10 1    
    19    9   15 1    
    20    9   11 1    
    21   11   12 1    
    22   11   13 1    
    23   11   29 1    
    24   13   14 1    
    25   13   47 1    
    26   14   26 1    
    27   14   15 1    
    28   14   19 1    
    29   15   16 1    
    30   15   17 1    
    31   17   18 2    
    32   19   24 ar   
    33   19   20 ar   
    34   20   21 ar   
    35   20   48 1    
    36   21   22 ar   
    37   21   49 1    
    38   22   23 ar   
    39   22   50 1    
    40   23   24 ar   
    41   23   28 1    
    42   24   25 1    
    43   25   26 am   BACKBONE|DICT|INTERRES
    44   25   51 1    
    45   26   27 2    
    46   28   52 1    
    47   28   53 1    
    48   28   54 1    
    49   29   30 1    
    50   29   55 1    
    51   29   56 1    
    52   30   38 1    
    53   30   31 2    
    54   31   36 1    
    55   31   32 1    
    56   32   33 2    
    57   32   57 1    
    58   33   34 1    
    59   33   58 1    
    60   34   35 2    
    61   34   59 1    
    62   35   36 1    
    63   35   60 1    
    64   36   37 2    
    65   37   38 1    
    66   37   63 1    
    67   38   61 1    
    68   38   62 1    
@<TRIPOS>SUBSTRUCTURE
     1 UNK         1 GROUP             0       ****    0 ROOT    
