@<TRIPOS>MOLECULE
ZINC17113598_5844
47   50    1
SMALL
USER_CHARGES


@<TRIPOS>ATOM
      1 C1          0.2207   49.0878   23.2895 C.3       1 UNK         0.0000 
      2 C2         -0.1013   49.0417   21.7816 C.3       1 UNK         0.0000 
      3 C3         -1.2324   50.0219   21.4203 C.3       1 UNK         0.0000 
      4 S4          1.3469   49.1357   20.6590 S.3       1 UNK         0.0000 
      5 C5          2.0514   50.7643   20.9731 C.ar      1 UNK         0.0000 
      6 N6          3.0485   51.1011   20.0817 N.pl3     1 UNK         0.0000 
      7 C7          3.7548   52.2564   20.3072 C.ar      1 UNK         0.0000 
      8 C8          3.4601   53.0967   21.3291 C.ar      1 UNK         0.0000 
      9 C9          2.2127   52.8176   22.0816 C.ar      1 UNK         0.0000 
     10 N10         1.6846   51.5206   21.9384 N.2       1 UNK         0.0000 
     11 O11         1.6685   53.7229   22.7031 O.2       1 UNK         0.0000 
     12 C12         4.3907   54.3189   21.6335 C.3       1 UNK         0.0000 
     13 H13         3.8079   55.2398   21.6689 H         1 UNK         0.0000 
     14 C14         5.4148   54.5361   20.4375 C.2       1 UNK         0.0000 
     15 C15         6.3036   55.7330   20.4064 C.2       1 UNK         0.0000 
     16 C16         7.2293   55.9305   19.1944 C.3       1 UNK         0.0000 
     17 C17         7.6903   54.6022   18.5870 C.3       1 UNK         0.0000 
     18 C18         6.4859   53.7176   18.2418 C.3       1 UNK         0.0000 
     19 C19         5.5044   53.6392   19.4130 C.2       1 UNK         0.0000 
     20 N20         4.7610   52.4967   19.4315 N.pl3     1 UNK         0.0000 
     21 O21         6.3044   56.5865   21.2817 O.2       1 UNK         0.0000 
     22 C22         4.9735   54.3001   23.0710 C.ar      1 UNK         0.0000 
     23 C23         4.1480   54.4967   24.1925 C.ar      1 UNK         0.0000 
     24 C24         4.6541   54.4524   25.4860 C.ar      1 UNK         0.0000 
     25 C25         6.0092   54.2316   25.6773 C.ar      1 UNK         0.0000 
     26 C26         6.8502   54.0968   24.5804 C.ar      1 UNK         0.0000 
     27 C27         6.3408   54.1200   23.2923 C.ar      1 UNK         0.0000 
     28 Br28        6.7044   54.0967   27.4407 Br        1 UNK         0.0000 
     29 H29        -0.6090   48.6976   23.8798 H         1 UNK         0.0000 
     30 H30         0.4037   50.1001   23.6470 H         1 UNK         0.0000 
     31 H31         1.1023   48.4967   23.5302 H         1 UNK         0.0000 
     32 H32        -0.4956   48.0425   21.5919 H         1 UNK         0.0000 
     33 H33        -2.1187   49.8417   22.0296 H         1 UNK         0.0000 
     34 H34        -0.9390   51.0598   21.5767 H         1 UNK         0.0000 
     35 H35        -1.5278   49.9135   20.3764 H         1 UNK         0.0000 
     36 H36         6.6417   56.4699   18.4510 H         1 UNK         0.0000 
     37 H37         8.0656   56.5742   19.4679 H         1 UNK         0.0000 
     38 H38         8.2828   54.7863   17.6897 H         1 UNK         0.0000 
     39 H39         8.3596   54.0967   19.2817 H         1 UNK         0.0000 
     40 H40         6.9084   52.7291   18.0485 H         1 UNK         0.0000 
     41 H41         5.9772   54.0084   17.3218 H         1 UNK         0.0000 
     42 H42         5.0188   51.7456   18.7889 H         1 UNK         0.0000 
     43 H43         3.1092   54.7490   24.0968 H         1 UNK         0.0000 
     44 H44         3.9986   54.5918   26.3329 H         1 UNK         0.0000 
     45 H45         7.9044   53.9692   24.7045 H         1 UNK         0.0000 
     46 H46         7.0358   53.9983   22.4817 H         1 UNK         0.0000 
     47 H47         3.2821   50.4967   19.3053 H         1 UNK         0.0000 
@<TRIPOS>BOND
     1    1    2 1    
     2    1   29 1    
     3    1   30 1    
     4    1   31 1    
     5    2    3 1    
     6    2    4 1    
     7    2   32 1    
     8    3   33 1    
     9    3   34 1    
    10    3   35 1    
    11    4    5 1    
    12    5   10 ar   
    13    5    6 ar   
    14    6    7 ar   
    15    6   47 1    
    16    7    8 ar   
    17    7   20 1    
    18    8    9 ar   
    19    8   12 1    
    20    9   10 ar   
    21    9   11 2    
    22   12   13 1    
    23   12   22 1    
    24   12   14 1    
    25   14   15 1    
    26   14   19 2    
    27   15   21 2    
    28   15   16 1    
    29   16   17 1    
    30   16   36 1    
    31   16   37 1    
    32   17   18 1    
    33   17   38 1    
    34   17   39 1    
    35   18   40 1    
    36   18   41 1    
    37   18   19 1    
    38   19   20 1    
    39   20   42 1    
    40   22   27 ar   
    41   22   23 ar   
    42   23   24 ar   
    43   23   43 1    
    44   24   25 ar   
    45   24   44 1    
    46   25   26 ar   
    47   25   28 1    
    48   26   27 ar   
    49   26   45 1    
    50   27   46 1    
@<TRIPOS>SUBSTRUCTURE
     1 UNK         1 GROUP             0       ****    0 ROOT    
