@<TRIPOS>MOLECULE
ZINC45527476_3335
53   56    1
SMALL
USER_CHARGES


@<TRIPOS>ATOM
      1 C1          0.3043   53.7384   32.3850 C.3       1 UNK         0.0000 
      2 C2          1.0837   52.5069   31.8873 C.3       1 UNK         0.0000 
      3 O3          1.2219   52.4955   30.4676 O.3       1 UNK         0.0000 
      4 C4          0.2002   52.0969   29.6779 C.2       1 UNK         0.0000 
      5 O5         -0.8959   51.7133   30.0824 O.2       1 UNK         0.0000 
      6 C6          0.5358   52.0950   28.2606 C.ar      1 UNK         0.0000 
      7 C7         -0.1512   51.3564   27.3059 C.ar      1 UNK         0.0000 
      8 N8          0.4404   51.6420   26.1124 N.pl3     1 UNK         0.0000 
      9 N9          1.4519   52.4967   26.2322 N.2       1 UNK         0.0000 
     10 H10         0.1713   51.2506   25.2214 H         1 UNK         0.0000 
     11 C11         1.5326   52.7804   27.5192 C.ar      1 UNK         0.0000 
     12 S12         2.8334   53.9346   28.0968 S.o2      1 UNK         0.0000 
     13 O13         2.1592   54.7769   29.0906 O.2       1 UNK         0.0000 
     14 O14         3.8872   53.0387   28.5859 O.2       1 UNK         0.0000 
     15 N15         3.2117   54.7534   26.8144 N.2       1 UNK         0.0000 
     16 C16         4.2911   54.4938   26.0133 C.ar      1 UNK         0.0000 
     17 C17         5.5740   54.5283   26.5662 C.ar      1 UNK         0.0000 
     18 C18         6.7043   54.3899   25.7775 C.ar      1 UNK         0.0000 
     19 C19         6.5847   54.1539   24.4118 C.ar      1 UNK         0.0000 
     20 C20         5.3211   54.0966   23.8106 C.ar      1 UNK         0.0000 
     21 C21         4.1677   54.3110   24.6092 C.ar      1 UNK         0.0000 
     22 C22         2.7855   54.3576   23.9290 C.3       1 UNK         0.0000 
     23 C23         5.2011   53.7573   22.3348 C.2       1 UNK         0.0000 
     24 O24         4.5952   52.7293   22.0327 O.2       1 UNK         0.0000 
     25 N25         5.7057   54.6073   21.3943 N.am      1 UNK         0.0000 
     26 C26         6.4904   55.8234   21.6910 C.3       1 UNK         0.0000 
     27 C27         7.9200   55.6212   21.1349 C.3       1 UNK         0.0000 
     28 C28         7.8136   55.2960   19.6568 C.2       1 UNK         0.0000 
     29 C29         6.6985   54.6630   19.1086 C.2       1 UNK         0.0000 
     30 C30         6.8545   54.4178   17.7381 C.2       1 UNK         0.0000 
     31 C31         8.0820   54.8393   17.2497 C.2       1 UNK         0.0000 
     32 S32         9.0672   55.5514   18.4827 S.3       1 UNK         0.0000 
     33 C33         5.4785   54.3180   19.9533 C.3       1 UNK         0.0000 
     34 H34         0.3175   53.7961   33.4730 H         1 UNK         0.0000 
     35 H35        -0.7390   53.6943   32.0841 H         1 UNK         0.0000 
     36 H36         0.7047   54.6702   31.9874 H         1 UNK         0.0000 
     37 H37         2.0855   52.4981   32.3147 H         1 UNK         0.0000 
     38 H38         0.6063   51.5945   32.2452 H         1 UNK         0.0000 
     39 H39        -0.9793   50.6628   27.3760 H         1 UNK         0.0000 
     40 H40         5.7011   54.7034   27.6260 H         1 UNK         0.0000 
     41 H41         7.6669   54.4620   26.2499 H         1 UNK         0.0000 
     42 H42         7.4825   54.0062   23.8290 H         1 UNK         0.0000 
     43 H43         2.8388   54.8908   22.9815 H         1 UNK         0.0000 
     44 H44         2.4263   53.3475   23.7256 H         1 UNK         0.0000 
     45 H45         2.0308   54.8948   24.4961 H         1 UNK         0.0000 
     46 H46         6.0107   56.6623   21.1841 H         1 UNK         0.0000 
     47 H47         6.4910   56.0966   22.7460 H         1 UNK         0.0000 
     48 H48         8.5405   56.4967   21.3063 H         1 UNK         0.0000 
     49 H49         8.4216   54.8282   21.6807 H         1 UNK         0.0000 
     50 H50         6.1036   53.9361   17.1302 H         1 UNK         0.0000 
     51 H51         8.4524   54.7555   16.2372 H         1 UNK         0.0000 
     52 H52         5.1826   53.2839   19.7709 H         1 UNK         0.0000 
     53 H53         4.6056   54.8775   19.6136 H         1 UNK         0.0000 
@<TRIPOS>BOND
     1    1    2 1    
     2    1   34 1    
     3    1   35 1    
     4    1   36 1    
     5    2    3 1    
     6    2   37 1    
     7    2   38 1    
     8    3    4 1    
     9    4    5 2    
    10    4    6 1    
    11    6   11 ar   
    12    6    7 ar   
    13    7   39 1    
    14    7    8 ar   
    15    8   10 1    
    16    8    9 ar   
    17    9   11 ar   
    18   11   12 1    
    19   12   13 2    
    20   12   14 2    
    21   12   15 1    
    22   15   16 1    
    23   16   21 ar   
    24   16   17 ar   
    25   17   18 ar   
    26   17   40 1    
    27   18   19 ar   
    28   18   41 1    
    29   19   20 ar   
    30   19   42 1    
    31   20   21 ar   
    32   20   23 1    
    33   21   22 1    
    34   22   43 1    
    35   22   44 1    
    36   22   45 1    
    37   23   24 2    
    38   23   25 am   BACKBONE|DICT|INTERRES
    39   25   33 1    
    40   25   26 1    
    41   26   27 1    
    42   26   46 1    
    43   26   47 1    
    44   27   28 1    
    45   27   48 1    
    46   27   49 1    
    47   28   32 1    
    48   28   29 2    
    49   29   30 1    
    50   29   33 1    
    51   30   31 2    
    52   30   50 1    
    53   31   32 1    
    54   31   51 1    
    55   33   52 1    
    56   33   53 1    
@<TRIPOS>SUBSTRUCTURE
     1 UNK         1 GROUP             0       ****    0 ROOT    
