ZINC36072039_5910
                    3D
 Schrodinger Suite 2024-2.
 54 57  0  0  1  0            999 V2000
    0.4578   53.0977   31.0490 C   0  0  0  0  0  0
    0.4265   52.6356   29.5940 C   0  0  0  0  0  0
    1.4854   52.5060   28.7457 C   0  0  0  0  0  0
    1.2768   51.9200   27.3014 C   0  0  1  0  0  0
    1.9011   51.0309   27.2800 H   0  0  0  0  0  0
   -0.1104   51.3515   27.1817 N   0  0  0  0  0  0
   -0.6272   50.5388   26.1703 C   0  0  0  0  0  0
   -1.9734   50.4935   26.2125 C   0  0  0  0  0  0
   -2.6821   51.2982   27.5927 S   0  0  0  0  0  0
   -1.0509   51.6981   28.1508 C   0  0  0  0  0  0
   -0.8423   52.3074   29.2493 N   0  0  0  0  0  0
    0.1077   49.8394   25.1183 C   0  0  0  0  0  0
   -0.2912   49.7504   23.8300 C   0  0  0  0  0  0
   -1.2815   50.3201   23.2372 O   0  5  0  0  0  0
    0.3646   48.9251   22.9409 N   0  0  0  0  0  0
    0.6429   49.1342   21.5150 C   0  0  0  0  0  0
    1.7850   50.0883   21.2616 C   0  0  0  0  0  0
    2.6828   50.7449   22.0795 C   0  0  0  0  0  0
    3.5904   51.4077   21.2600 C   0  0  0  0  0  0
    3.1707   51.1759   19.9651 C   0  0  0  0  0  0
    2.0828   50.3606   19.9624 O   0  0  0  0  0  0
    1.7413   52.8050   26.0953 C   0  0  0  0  0  0
    0.9307   53.0171   24.9642 C   0  0  0  0  0  0
    1.4483   53.5906   23.8043 C   0  0  0  0  0  0
    2.7825   53.9808   23.7666 C   0  0  0  0  0  0
    3.5730   53.8868   24.9008 C   0  0  0  0  0  0
    3.0571   53.2964   26.0460 C   0  0  0  0  0  0
    3.5025   54.4954   22.2908 Cl  0  0  0  0  0  0
    2.8341   52.7600   29.2036 C   0  0  0  0  0  0
    3.5410   51.8141   29.5538 O   0  0  0  0  0  0
    3.2752   54.0483   29.1901 N   0  0  0  0  0  0
    4.7049   54.3527   29.2848 C   0  0  0  0  0  0
    2.4470   55.2376   28.9475 C   0  0  0  0  0  0
   -0.0936   52.4017   31.6797 H   0  0  0  0  0  0
    1.4620   53.1762   31.4574 H   0  0  0  0  0  0
   -0.0093   54.0738   31.1433 H   0  0  0  0  0  0
   -2.6082   49.9529   25.5263 H   0  0  0  0  0  0
    1.0045   49.3132   25.4144 H   0  0  0  0  0  0
    1.0340   48.2972   23.3610 H   0  0  0  0  0  0
   -0.2645   49.4815   21.0170 H   0  0  0  0  0  0
    0.8815   48.1680   21.0715 H   0  0  0  0  0  0
    2.6900   50.7090   23.1580 H   0  0  0  0  0  0
    4.4459   51.9901   21.5689 H   0  0  0  0  0  0
    3.5756   51.4703   19.0052 H   0  0  0  0  0  0
   -0.0972   52.6905   24.9338 H   0  0  0  0  0  0
    0.8350   53.6732   22.9191 H   0  0  0  0  0  0
    4.6113   54.1843   24.8688 H   0  0  0  0  0  0
    3.7596   53.1177   26.8398 H   0  0  0  0  0  0
    5.3329   53.4597   29.2735 H   0  0  0  0  0  0
    5.0199   54.9680   28.4401 H   0  0  0  0  0  0
    4.9193   54.8990   30.2001 H   0  0  0  0  0  0
    2.6935   55.6754   27.9790 H   0  0  0  0  0  0
    1.3744   55.0386   28.9496 H   0  0  0  0  0  0
    2.6359   55.9944   29.7102 H   0  0  0  0  0  0
  1  2  1  0  0  0
  1 34  1  0  0  0
  1 35  1  0  0  0
  1 36  1  0  0  0
  2 11  1  0  0  0
  2  3  2  0  0  0
  3  4  1  0  0  0
  3 29  1  0  0  0
  4  5  1  0  0  0
  4  6  1  0  0  0
  4 22  1  0  0  0
  6 10  1  0  0  0
  6  7  1  0  0  0
  7  8  2  0  0  0
  7 12  1  0  0  0
  8  9  1  0  0  0
  8 37  1  0  0  0
  9 10  1  0  0  0
 10 11  2  0  0  0
 12 13  2  0  0  0
 12 38  1  0  0  0
 13 14  1  0  0  0
 13 15  1  0  0  0
 15 16  1  0  0  0
 15 39  1  0  0  0
 16 17  1  0  0  0
 16 40  1  0  0  0
 16 41  1  0  0  0
 17 21  1  0  0  0
 17 18  2  0  0  0
 18 19  1  0  0  0
 18 42  1  0  0  0
 19 20  2  0  0  0
 19 43  1  0  0  0
 20 21  1  0  0  0
 20 44  1  0  0  0
 22 27  2  0  0  0
 22 23  1  0  0  0
 23 24  2  0  0  0
 23 45  1  0  0  0
 24 25  1  0  0  0
 24 46  1  0  0  0
 25 26  2  0  0  0
 25 28  1  0  0  0
 26 27  1  0  0  0
 26 47  1  0  0  0
 27 48  1  0  0  0
 29 30  2  0  0  0
 29 31  1  0  0  0
 31 32  1  0  0  0
 31 33  1  0  0  0
 32 49  1  0  0  0
 32 50  1  0  0  0
 32 51  1  0  0  0
 33 52  1  0  0  0
 33 53  1  0  0  0
 33 54  1  0  0  0
M  CHG  1  14  -1
M  END
> <i_i_glide_confnum>
83

> <i_i_glide_lignum>
5911

> <i_i_glide_posenum>
168

> <i_i_glide_rotatable_bonds>
7

> <i_m_Source_File_Index>
3091

> <b_m_subgroup_collapsed>
0

> <r_i_docking_score>
-5.24498

> <r_i_glide_ecoul>
-3.30443

> <r_i_glide_eff_state_penalty>
0

> <r_i_glide_einternal>
10.6843

> <r_i_glide_emodel>
-53.3032

> <r_i_glide_energy>
-43.2275

> <r_i_glide_erotb>
0.457323

> <r_i_glide_esite>
-0.110001

> <r_i_glide_evdw>
-39.9231

> <r_i_glide_gscore>
-5.24498

> <r_i_glide_hbond>
-0.26817

> <r_i_glide_ligand_efficiency>
-0.163906

> <r_i_glide_ligand_efficiency_ln>
-1.17449

> <r_i_glide_ligand_efficiency_sa>
-0.520368

> <r_i_glide_lipo>
-2.38777

> <r_i_glide_metal>
0

> <r_i_glide_rewards>
-0.444541

> <s_i_glide_gridfile>
wee1_glide-grid

> <s_m_Source_File>
wee1_decoys_glide_SP.sdf

> <s_m_Source_Path>
/Users/zhangxujun/Desktop

> <s_m_entry_id>
3366

> <s_m_entry_name>
wee1_decoys_glide_SP.3091

> <s_m_subgroup_title>
wee1_decoys_glide_SP

> <s_m_subgroupid>
wee1_decoys_glide_SP


$$$$
