@<TRIPOS>MOLECULE
ZINC35352455_6000
72   76    1
SMALL
USER_CHARGES


@<TRIPOS>ATOM
      1 C1          4.6110   57.3063   17.3426 C.3       1 UNK         0.0000 
      2 C2          4.6118   55.9495   18.0686 C.2       1 UNK         0.0000 
      3 C3          5.5964   55.5420   18.9204 C.2       1 UNK         0.0000 
      4 C4          5.5512   54.1529   19.5866 C.3       1 UNK         0.0000 
      5 H5          6.5682   53.7693   19.6815 H         1 UNK         0.0000 
      6 N6          4.7710   53.2973   18.6529 N.pl3     1 UNK         0.0000 
      7 C7          3.7084   53.7064   17.8911 C.2       1 UNK         0.0000 
      8 S8          2.6943   52.4984   17.3284 S.2       1 UNK         0.0000 
      9 N9          3.5852   55.0828   17.7073 N.pl3     1 UNK         0.0000 
     10 C10         2.3047   55.5710   17.1407 C.3       1 UNK         0.0000 
     11 C11         5.0383   54.1745   21.0435 C.ar      1 UNK         0.0000 
     12 C12         3.7244   53.8062   21.3457 C.ar      1 UNK         0.0000 
     13 C13         3.2766   53.7756   22.6579 C.ar      1 UNK         0.0000 
     14 C14         4.1399   54.0981   23.7024 C.ar      1 UNK         0.0000 
     15 C15         5.4668   54.4557   23.4201 C.ar      1 UNK         0.0000 
     16 C16         5.9048   54.4970   22.0965 C.ar      1 UNK         0.0000 
     17 N17         3.5798   53.9928   24.9833 N.am      1 UNK         0.0000 
     18 C18         4.0768   54.3054   26.1996 C.2       1 UNK         0.0000 
     19 O19         5.1445   54.8955   26.3696 O.2       1 UNK         0.0000 
     20 C20         3.2460   53.8450   27.4420 C.3       1 UNK         0.0000 
     21 C21         1.9347   53.0764   27.0341 C.3       1 UNK         0.0000 
     22 C22         1.1677   52.6003   28.2876 C.3       1 UNK         0.0000 
     23 C23         2.0763   51.6407   29.0899 C.3       1 UNK         0.0000 
     24 C24         3.3736   52.3747   29.5238 C.3       1 UNK         0.0000 
     25 C25         4.1511   52.9073   28.2956 C.3       1 UNK         0.0000 
     26 C26         2.9866   53.5815   30.4035 C.3       1 UNK         0.0000 
     27 C27         2.0877   54.5655   29.5996 C.3       1 UNK         0.0000 
     28 C28         0.7963   53.8253   29.1634 C.3       1 UNK         0.0000 
     29 C29         2.8487   55.0586   28.3378 C.3       1 UNK         0.0000 
     30 C30         6.6994   56.4083   19.3242 C.2       1 UNK         0.0000 
     31 O31         6.7054   57.0411   20.3825 O.2       1 UNK         0.0000 
     32 O32         7.6892   56.4018   18.4101 O.3       1 UNK         0.0000 
     33 C33         8.8903   57.1358   18.6118 C.3       1 UNK         0.0000 
     34 C34         9.8025   57.0189   17.3721 C.3       1 UNK         0.0000 
     35 C35        11.0571   57.8939   17.5329 C.3       1 UNK         0.0000 
     36 C36        10.1876   55.5597   17.0608 C.3       1 UNK         0.0000 
     37 H37         5.5298   57.8773   17.4805 H         1 UNK         0.0000 
     38 H38         4.5041   57.1606   16.2662 H         1 UNK         0.0000 
     39 H39         3.7994   57.9468   17.6800 H         1 UNK         0.0000 
     40 H40         4.8778   52.2880   18.6904 H         1 UNK         0.0000 
     41 H41         2.2321   55.3243   16.0804 H         1 UNK         0.0000 
     42 H42         1.4567   55.1202   17.6578 H         1 UNK         0.0000 
     43 H43         2.1613   56.6430   17.2464 H         1 UNK         0.0000 
     44 H44         3.0217   53.5597   20.5662 H         1 UNK         0.0000 
     45 H45         2.2501   53.4950   22.8464 H         1 UNK         0.0000 
     46 H46         6.1688   54.6966   24.2030 H         1 UNK         0.0000 
     47 H47         6.9301   54.7717   21.8943 H         1 UNK         0.0000 
     48 H48         2.6655   53.5697   24.9918 H         1 UNK         0.0000 
     49 H49         1.2782   53.7083   26.4341 H         1 UNK         0.0000 
     50 H50         2.1648   52.2089   26.4145 H         1 UNK         0.0000 
     51 H51         0.2587   52.0765   27.9854 H         1 UNK         0.0000 
     52 H52         1.5369   51.2909   29.9693 H         1 UNK         0.0000 
     53 H53         2.3035   50.7529   28.4995 H         1 UNK         0.0000 
     54 H54         4.0122   51.6985   30.0931 H         1 UNK         0.0000 
     55 H55         4.5270   52.0970   27.6887 H         1 UNK         0.0000 
     56 H56         5.0439   53.4342   28.6407 H         1 UNK         0.0000 
     57 H57         2.4528   53.2158   31.2827 H         1 UNK         0.0000 
     58 H58         3.8969   54.0793   30.7456 H         1 UNK         0.0000 
     59 H59         1.8229   55.4198   30.2247 H         1 UNK         0.0000 
     60 H60         0.1408   54.4945   28.6051 H         1 UNK         0.0000 
     61 H61         0.2275   53.5065   30.0389 H         1 UNK         0.0000 
     62 H62         3.7393   55.5987   28.6551 H         1 UNK         0.0000 
     63 H63         2.2300   55.7660   27.7851 H         1 UNK         0.0000 
     64 H64         9.4127   56.7685   19.4994 H         1 UNK         0.0000 
     65 H65         8.6441   58.1846   18.7863 H         1 UNK         0.0000 
     66 H66         9.2399   57.4091   16.5196 H         1 UNK         0.0000 
     67 H67        11.6849   57.5446   18.3553 H         1 UNK         0.0000 
     68 H68        10.7914   58.9328   17.7359 H         1 UNK         0.0000 
     69 H69        11.6631   57.8876   16.6242 H         1 UNK         0.0000 
     70 H70        10.7393   55.1043   17.8858 H         1 UNK         0.0000 
     71 H71         9.3069   54.9462   16.8705 H         1 UNK         0.0000 
     72 H72        10.8132   55.5029   16.1682 H         1 UNK         0.0000 
@<TRIPOS>BOND
     1    1    2 1    
     2    1   37 1    
     3    1   38 1    
     4    1   39 1    
     5    2    9 1    
     6    2    3 2    
     7    3    4 1    
     8    3   30 1    
     9    4    5 1    
    10    4    6 1    
    11    4   11 1    
    12    6    7 1    
    13    6   40 1    
    14    7    8 2    
    15    7    9 1    
    16    9   10 1    
    17   10   41 1    
    18   10   42 1    
    19   10   43 1    
    20   11   16 ar   
    21   11   12 ar   
    22   12   13 ar   
    23   12   44 1    
    24   13   14 ar   
    25   13   45 1    
    26   14   15 ar   
    27   14   17 1    
    28   15   16 ar   
    29   15   46 1    
    30   16   47 1    
    31   17   18 am   BACKBONE|DICT|INTERRES
    32   17   48 1    
    33   18   19 2    
    34   18   20 1    
    35   20   25 1    
    36   20   29 1    
    37   20   21 1    
    38   21   22 1    
    39   21   49 1    
    40   21   50 1    
    41   22   28 1    
    42   22   23 1    
    43   22   51 1    
    44   23   24 1    
    45   23   52 1    
    46   23   53 1    
    47   24   25 1    
    48   24   26 1    
    49   24   54 1    
    50   25   55 1    
    51   25   56 1    
    52   26   27 1    
    53   26   57 1    
    54   26   58 1    
    55   27   28 1    
    56   27   29 1    
    57   27   59 1    
    58   28   60 1    
    59   28   61 1    
    60   29   62 1    
    61   29   63 1    
    62   30   31 2    
    63   30   32 1    
    64   32   33 1    
    65   33   34 1    
    66   33   64 1    
    67   33   65 1    
    68   34   35 1    
    69   34   36 1    
    70   34   66 1    
    71   35   67 1    
    72   35   68 1    
    73   35   69 1    
    74   36   70 1    
    75   36   71 1    
    76   36   72 1    
@<TRIPOS>SUBSTRUCTURE
     1 UNK         1 GROUP             0       ****    0 ROOT    
