ZINC49853205_3895
                    3D
 Schrodinger Suite 2024-2.
 42 43  0  0  1  0            999 V2000
    3.1073   54.2966   24.3328 C   0  0  0  0  0  0
    3.6656   54.1443   25.7279 C   0  0  0  0  0  0
    4.9423   54.4646   26.2090 C   0  0  0  0  0  0
    4.9292   54.1025   27.5419 C   0  0  0  0  0  0
    3.6565   53.6297   27.7924 N   0  0  0  0  0  0
    2.9085   53.6420   26.6770 N   0  0  0  0  0  0
    3.1114   53.1072   29.0758 C   0  0  2  0  0  0
    3.8226   53.4221   29.8357 H   0  0  0  0  0  0
    3.2119   51.5932   29.1495 C   0  0  0  0  0  0
    2.1339   50.9232   28.2892 C   0  0  0  0  0  0
    0.7103   51.2967   28.7066 C   0  0  0  0  0  0
    0.5430   52.8138   28.7251 C   0  0  0  0  0  0
    1.6703   53.5577   29.5128 C   0  0  2  0  0  0
    1.5345   53.1435   30.5149 H   0  0  0  0  0  0
    1.4199   55.0946   29.6411 C   0  0  0  0  0  0
    0.8533   55.6879   28.3789 C   0  0  0  0  0  0
    2.7044   55.8802   29.8404 C   0  0  0  0  0  0
    0.4649   55.3875   30.8093 C   0  0  0  0  0  0
    5.9172   54.1436   28.4817 N   0  0  0  0  0  0
    6.5870   55.2968   25.1166 I   0  0  0  0  0  0
    3.8146   54.7797   23.6590 H   0  0  0  0  0  0
    2.8606   53.3294   23.8944 H   0  0  0  0  0  0
    2.1977   54.8965   24.3212 H   0  0  0  0  0  0
    3.1556   51.2967   30.1943 H   0  0  0  0  0  0
    4.2230   51.2967   28.8817 H   0  0  0  0  0  0
    2.3044   49.8554   28.2346 H   0  0  0  0  0  0
    2.2412   51.2967   27.2817 H   0  0  0  0  0  0
    0.4729   50.8967   29.6817 H   0  0  0  0  0  0
   -0.0117   50.8489   28.0215 H   0  0  0  0  0  0
    0.4901   53.1580   27.6928 H   0  0  0  0  0  0
   -0.4316   53.0494   29.1546 H   0  0  0  0  0  0
   -0.0634   55.1946   28.0817 H   0  0  0  0  0  0
    0.7044   56.7627   28.4817 H   0  0  0  0  0  0
    1.5892   55.5244   27.6210 H   0  0  0  0  0  0
    3.3410   55.2967   30.4817 H   0  0  0  0  0  0
    3.2764   56.0276   28.9261 H   0  0  0  0  0  0
    2.5176   56.8760   30.2474 H   0  0  0  0  0  0
    0.8517   55.0485   31.7663 H   0  0  0  0  0  0
    0.3044   56.4629   30.8817 H   0  0  0  0  0  0
   -0.4956   54.8968   30.6690 H   0  0  0  0  0  0
    6.5181   54.9537   28.5917 H   0  0  0  0  0  0
    6.1795   53.3240   29.0073 H   0  0  0  0  0  0
  1  2  1  0  0  0
  1 21  1  0  0  0
  1 22  1  0  0  0
  1 23  1  0  0  0
  2  6  2  0  0  0
  2  3  1  0  0  0
  3  4  2  0  0  0
  3 20  1  0  0  0
  4  5  1  0  0  0
  4 19  1  0  0  0
  5  6  1  0  0  0
  5  7  1  0  0  0
  7  8  1  0  0  0
  7 13  1  0  0  0
  7  9  1  0  0  0
  9 10  1  0  0  0
  9 24  1  0  0  0
  9 25  1  0  0  0
 10 11  1  0  0  0
 10 26  1  0  0  0
 10 27  1  0  0  0
 11 12  1  0  0  0
 11 28  1  0  0  0
 11 29  1  0  0  0
 12 13  1  0  0  0
 12 30  1  0  0  0
 12 31  1  0  0  0
 13 14  1  0  0  0
 13 15  1  0  0  0
 15 16  1  0  0  0
 15 17  1  0  0  0
 15 18  1  0  0  0
 16 32  1  0  0  0
 16 33  1  0  0  0
 16 34  1  0  0  0
 17 35  1  0  0  0
 17 36  1  0  0  0
 17 37  1  0  0  0
 18 38  1  0  0  0
 18 39  1  0  0  0
 18 40  1  0  0  0
 19 41  1  0  0  0
 19 42  1  0  0  0
M  END
> <i_i_glide_confnum>
1

> <i_i_glide_lignum>
3896

> <i_i_glide_posenum>
243

> <i_i_glide_rotatable_bonds>
2

> <i_m_Source_File_Index>
3457

> <b_m_subgroup_collapsed>
0

> <r_i_docking_score>
-4.70881

> <r_i_glide_ecoul>
0.0674767

> <r_i_glide_eff_state_penalty>
0

> <r_i_glide_einternal>
6.2019

> <r_i_glide_emodel>
-12.0449

> <r_i_glide_energy>
-13.2246

> <r_i_glide_erotb>
0.147025

> <r_i_glide_esite>
0

> <r_i_glide_evdw>
-13.2921

> <r_i_glide_gscore>
-4.70881

> <r_i_glide_hbond>
-0.307687

> <r_i_glide_ligand_efficiency>
-0.261601

> <r_i_glide_ligand_efficiency_ln>
-1.21038

> <r_i_glide_ligand_efficiency_sa>
-0.685588

> <r_i_glide_lipo>
-2.62581

> <r_i_glide_metal>
0

> <r_i_glide_rewards>
-1.26786

> <s_i_glide_gridfile>
wee1_glide-grid

> <s_m_Source_File>
wee1_decoys_glide_SP.sdf

> <s_m_Source_Path>
/Users/zhangxujun/Desktop

> <s_m_entry_id>
3732

> <s_m_entry_name>
wee1_decoys_glide_SP.3457

> <s_m_subgroup_title>
wee1_decoys_glide_SP

> <s_m_subgroupid>
wee1_decoys_glide_SP


$$$$
