@<TRIPOS>MOLECULE
ZINC39768808_3178
57   59    1
SMALL
USER_CHARGES


@<TRIPOS>ATOM
      1 C1          3.4888   53.1354   18.8127 C.3       1 UNK         0.0000 
      2 C2          2.8796   52.6376   20.1376 C.3       1 UNK         0.0000 
      3 H3          2.0362   53.2827   20.3427 H         1 UNK         0.0000 
      4 C4          3.8914   52.7857   21.2918 C.2       1 UNK         0.0000 
      5 O5          4.9140   52.0961   21.3068 O.2       1 UNK         0.0000 
      6 N6          3.5930   53.7057   22.2350 N.am      1 UNK         0.0000 
      7 C7          4.4124   54.0683   23.3165 C.ar      1 UNK         0.0000 
      8 C8          3.8526   54.0957   24.5988 C.ar      1 UNK         0.0000 
      9 C9          4.6183   54.4967   25.6964 C.ar      1 UNK         0.0000 
     10 C10         5.9429   54.8923   25.5139 C.ar      1 UNK         0.0000 
     11 C11         6.4931   54.8953   24.2368 C.ar      1 UNK         0.0000 
     12 C12         5.7381   54.4952   23.1371 C.ar      1 UNK         0.0000 
     13 F13         6.2863   54.5927   21.9044 F         1 UNK         0.0000 
     14 F14         6.6907   55.2935   26.5664 F         1 UNK         0.0000 
     15 S15         2.1711   50.9602   19.9575 S.3       1 UNK         0.0000 
     16 C16         1.6286   50.6238   21.6021 C.ar      1 UNK         0.0000 
     17 N17         2.2021   49.7291   22.3662 N.2       1 UNK         0.0000 
     18 N18         1.5038   49.7002   23.5658 N.2       1 UNK         0.0000 
     19 C19         0.5219   50.5495   23.4728 C.ar      1 UNK         0.0000 
     20 N20         0.5259   51.1638   22.2375 N.pl3     1 UNK         0.0000 
     21 C21        -0.4435   52.1190   21.7148 C.3       1 UNK         0.0000 
     22 C22        -1.5020   51.4636   20.8490 C.2       1 UNK         0.0000 
     23 C23        -1.6714   51.7045   19.5394 C.2       1 UNK         0.0000 
     24 C24        -0.4675   50.8112   24.5956 C.3       1 UNK         0.0000 
     25 C25         0.0488   51.8601   25.5894 C.2       1 UNK         0.0000 
     26 O26         0.5542   52.8938   25.1606 O.2       1 UNK         0.0000 
     27 N27        -0.1200   51.5613   26.8929 N.am      1 UNK         0.0000 
     28 C28         0.1884   52.3150   28.0380 C.ar      1 UNK         0.0000 
     29 C29        -0.3175   51.8081   29.2343 C.ar      1 UNK         0.0000 
     30 C30        -0.0963   52.4760   30.4326 C.ar      1 UNK         0.0000 
     31 C31         0.6083   53.6714   30.4568 C.ar      1 UNK         0.0000 
     32 C32         1.1273   54.1906   29.2702 C.ar      1 UNK         0.0000 
     33 C33         0.9377   53.5058   28.0654 C.ar      1 UNK         0.0000 
     34 S34         2.0319   55.7078   29.2796 S.3       1 UNK         0.0000 
     35 C35         1.3721   56.7306   30.6271 C.3       1 UNK         0.0000 
     36 H36         3.8746   54.1533   18.8959 H         1 UNK         0.0000 
     37 H37         4.3072   52.4940   18.4846 H         1 UNK         0.0000 
     38 H38         2.7455   53.1395   18.0150 H         1 UNK         0.0000 
     39 H39         2.6815   54.1362   22.1994 H         1 UNK         0.0000 
     40 H40         2.8293   53.7958   24.7542 H         1 UNK         0.0000 
     41 H41         4.1874   54.5026   26.6872 H         1 UNK         0.0000 
     42 H42         7.5028   55.2373   24.0870 H         1 UNK         0.0000 
     43 H43        -0.9180   52.6358   22.5491 H         1 UNK         0.0000 
     44 H44         0.0918   52.8845   21.1575 H         1 UNK         0.0000 
     45 H45        -2.1515   50.7566   21.3459 H         1 UNK         0.0000 
     46 H46        -2.4442   51.2033   18.9749 H         1 UNK         0.0000 
     47 H47        -1.0360   52.4015   19.0110 H         1 UNK         0.0000 
     48 H48        -0.6453   49.8778   25.1347 H         1 UNK         0.0000 
     49 H49        -1.4447   51.1215   24.2285 H         1 UNK         0.0000 
     50 H50        -0.5747   50.6809   27.0940 H         1 UNK         0.0000 
     51 H51        -0.8967   50.8971   29.2515 H         1 UNK         0.0000 
     52 H52        -0.4943   52.0594   31.3392 H         1 UNK         0.0000 
     53 H53         0.7436   54.1736   31.4015 H         1 UNK         0.0000 
     54 H54         1.3581   53.9242   27.1650 H         1 UNK         0.0000 
     55 H55         1.8756   57.6962   30.6467 H         1 UNK         0.0000 
     56 H56         0.3068   56.8963   30.4820 H         1 UNK         0.0000 
     57 H57         1.5053   56.2667   31.6017 H         1 UNK         0.0000 
@<TRIPOS>BOND
     1    1    2 1    
     2    1   36 1    
     3    1   37 1    
     4    1   38 1    
     5    2    3 1    
     6    2    4 1    
     7    2   15 1    
     8    4    5 2    
     9    4    6 am   BACKBONE|DICT|INTERRES
    10    6    7 1    
    11    6   39 1    
    12    7   12 ar   
    13    7    8 ar   
    14    8    9 ar   
    15    8   40 1    
    16    9   10 ar   
    17    9   41 1    
    18   10   11 ar   
    19   10   14 1    
    20   11   12 ar   
    21   11   42 1    
    22   12   13 1    
    23   15   16 1    
    24   16   20 ar   
    25   16   17 ar   
    26   17   18 ar   
    27   18   19 ar   
    28   19   20 ar   
    29   19   24 1    
    30   20   21 1    
    31   21   22 1    
    32   21   43 1    
    33   21   44 1    
    34   22   23 2    
    35   22   45 1    
    36   23   46 1    
    37   23   47 1    
    38   24   25 1    
    39   24   48 1    
    40   24   49 1    
    41   25   26 2    
    42   25   27 am   BACKBONE|DICT|INTERRES
    43   27   28 1    
    44   27   50 1    
    45   28   33 ar   
    46   28   29 ar   
    47   29   30 ar   
    48   29   51 1    
    49   30   31 ar   
    50   30   52 1    
    51   31   32 ar   
    52   31   53 1    
    53   32   33 ar   
    54   32   34 1    
    55   33   54 1    
    56   34   35 1    
    57   35   55 1    
    58   35   56 1    
    59   35   57 1    
@<TRIPOS>SUBSTRUCTURE
     1 UNK         1 GROUP             0       ****    0 ROOT    
