ZINC36214354_3018
                    3D
 Schrodinger Suite 2024-2.
 67 70  0  0  1  0            999 V2000
   -4.8730   49.1533   27.0729 C   0  0  0  0  0  0
   -4.6347   48.0721   26.0030 C   0  0  0  0  0  0
   -3.1655   47.6002   25.8994 C   0  0  1  0  0  0
   -2.9017   47.2008   26.8815 H   0  0  0  0  0  0
   -2.9870   46.4295   24.9132 C   0  0  0  0  0  0
   -2.2077   48.6866   25.6816 N   0  0  0  0  0  0
   -2.0955   49.4574   24.5839 C   0  0  0  0  0  0
   -2.7984   49.2926   23.5877 O   0  0  0  0  0  0
   -1.0643   50.6233   24.5802 C   0  0  2  0  0  0
   -1.6559   51.5185   24.3795 H   0  0  0  0  0  0
   -0.0074   50.5166   23.4201 C   0  0  0  0  0  0
   -0.5497   50.8360   22.0083 C   0  0  0  0  0  0
    0.4908   50.4480   20.9300 C   0  0  0  0  0  0
    1.7235   51.2408   21.1930 N   0  0  0  0  0  0
    2.3024   51.1349   22.5639 C   0  0  0  0  0  0
    1.1808   51.4947   23.5555 C   0  0  0  0  0  0
    2.2705   51.9942   20.1917 C   0  0  0  0  0  0
    1.7342   52.0967   19.0868 O   0  0  0  0  0  0
    3.4110   52.6454   20.5277 N   0  0  0  0  0  0
    4.1568   53.6067   19.8253 C   0  0  0  0  0  0
    4.0013   53.9128   18.4627 C   0  0  0  0  0  0
    4.7841   54.9043   17.8726 C   0  0  0  0  0  0
    5.7338   55.5926   18.6296 C   0  0  0  0  0  0
    5.9048   55.2848   19.9784 C   0  0  0  0  0  0
    5.1206   54.2958   20.5703 C   0  0  0  0  0  0
    7.0841   56.1281   20.9179 Cl  0  0  0  0  0  0
   -0.4171   50.8660   25.8844 N   0  0  0  0  0  0
   -0.9086   51.6069   26.8951 C   0  0  0  0  0  0
   -2.0385   52.0971   26.8817 O   0  0  0  0  0  0
    0.0274   51.8452   28.0605 C   0  0  0  0  0  0
   -0.5003   52.0971   29.3453 C   0  0  0  0  0  0
    0.3291   52.3617   30.4443 C   0  0  0  0  0  0
    1.7012   52.3521   30.2252 C   0  0  0  0  0  0
    2.2294   52.1042   28.9930 C   0  0  0  0  0  0
    1.4267   51.8601   27.8850 C   0  0  0  0  0  0
    3.5851   52.0982   29.0767 O   0  0  0  0  0  0
    3.8945   52.5376   30.3691 C   0  0  0  0  0  0
    2.7124   52.4966   31.1220 O   0  0  0  0  0  0
   -5.9307   49.4110   27.1388 H   0  0  0  0  0  0
   -4.5510   48.8136   28.0587 H   0  0  0  0  0  0
   -4.3255   50.0688   26.8452 H   0  0  0  0  0  0
   -4.9660   48.4549   25.0361 H   0  0  0  0  0  0
   -5.2763   47.2192   26.2255 H   0  0  0  0  0  0
   -3.7245   45.6537   25.1127 H   0  0  0  0  0  0
   -3.1349   46.7363   23.8763 H   0  0  0  0  0  0
   -2.0002   45.9768   25.0160 H   0  0  0  0  0  0
   -1.6549   48.8981   26.5109 H   0  0  0  0  0  0
    0.3839   49.4962   23.4488 H   0  0  0  0  0  0
   -1.4459   50.2542   21.8064 H   0  0  0  0  0  0
   -0.8931   51.8697   21.9182 H   0  0  0  0  0  0
    0.7421   49.3903   21.0132 H   0  0  0  0  0  0
    0.0670   50.6225   19.9396 H   0  0  0  0  0  0
    2.6532   50.1153   22.7310 H   0  0  0  0  0  0
    3.1044   51.8417   22.7572 H   0  0  0  0  0  0
    0.8639   52.5373   23.4908 H   0  0  0  0  0  0
    1.6188   51.4257   24.5474 H   0  0  0  0  0  0
    3.7443   52.4752   21.4615 H   0  0  0  0  0  0
    3.2858   53.3940   17.8434 H   0  0  0  0  0  0
    4.6544   55.1396   16.8264 H   0  0  0  0  0  0
    6.3346   56.3607   18.1671 H   0  0  0  0  0  0
    5.2615   54.0755   21.6190 H   0  0  0  0  0  0
    0.4571   50.3845   26.0265 H   0  0  0  0  0  0
   -1.5685   52.0714   29.5028 H   0  0  0  0  0  0
   -0.0953   52.5191   31.4262 H   0  0  0  0  0  0
    1.8834   51.6967   26.9221 H   0  0  0  0  0  0
    4.6593   51.9002   30.8160 H   0  0  0  0  0  0
    4.2586   53.5649   30.3124 H   0  0  0  0  0  0
  1  2  1  0  0  0
  1 39  1  0  0  0
  1 40  1  0  0  0
  1 41  1  0  0  0
  2  3  1  0  0  0
  2 42  1  0  0  0
  2 43  1  0  0  0
  3  4  1  0  0  0
  3  5  1  0  0  0
  3  6  1  0  0  0
  5 44  1  0  0  0
  5 45  1  0  0  0
  5 46  1  0  0  0
  6  7  1  0  0  0
  6 47  1  0  0  0
  7  8  2  0  0  0
  7  9  1  0  0  0
  9 10  1  0  0  0
  9 11  1  0  0  0
  9 27  1  0  0  0
 11 16  1  0  0  0
 11 12  1  0  0  0
 11 48  1  0  0  0
 12 13  1  0  0  0
 12 49  1  0  0  0
 12 50  1  0  0  0
 13 14  1  0  0  0
 13 51  1  0  0  0
 13 52  1  0  0  0
 14 15  1  0  0  0
 14 17  1  0  0  0
 15 16  1  0  0  0
 15 53  1  0  0  0
 15 54  1  0  0  0
 16 55  1  0  0  0
 16 56  1  0  0  0
 17 18  2  0  0  0
 17 19  1  0  0  0
 19 20  1  0  0  0
 19 57  1  0  0  0
 20 25  2  0  0  0
 20 21  1  0  0  0
 21 22  2  0  0  0
 21 58  1  0  0  0
 22 23  1  0  0  0
 22 59  1  0  0  0
 23 24  2  0  0  0
 23 60  1  0  0  0
 24 25  1  0  0  0
 24 26  1  0  0  0
 25 61  1  0  0  0
 27 28  1  0  0  0
 27 62  1  0  0  0
 28 29  2  0  0  0
 28 30  1  0  0  0
 30 35  2  0  0  0
 30 31  1  0  0  0
 31 32  2  0  0  0
 31 63  1  0  0  0
 32 33  1  0  0  0
 32 64  1  0  0  0
 33 38  1  0  0  0
 33 34  2  0  0  0
 34 35  1  0  0  0
 34 36  1  0  0  0
 35 65  1  0  0  0
 36 37  1  0  0  0
 37 38  1  0  0  0
 37 66  1  0  0  0
 37 67  1  0  0  0
M  END
> <i_i_glide_confnum>
306

> <i_i_glide_lignum>
3019

> <i_i_glide_posenum>
300

> <i_i_glide_rotatable_bonds>
11

> <i_m_Source_File_Index>
1777

> <b_m_subgroup_collapsed>
0

> <r_i_docking_score>
-3.5169

> <r_i_glide_ecoul>
-3.50843

> <r_i_glide_eff_state_penalty>
0

> <r_i_glide_einternal>
7.90684

> <r_i_glide_emodel>
-49.5062

> <r_i_glide_energy>
-43.5231

> <r_i_glide_erotb>
0.696185

> <r_i_glide_esite>
-0.220352

> <r_i_glide_evdw>
-40.0147

> <r_i_glide_gscore>
-3.5169

> <r_i_glide_hbond>
-0.332611

> <r_i_glide_ligand_efficiency>
-0.0976916

> <r_i_glide_ligand_efficiency_ln>
-0.767292

> <r_i_glide_ligand_efficiency_sa>
-0.32257

> <r_i_glide_lipo>
-0.919972

> <r_i_glide_metal>
0

> <r_i_glide_rewards>
-0.213148

> <s_i_glide_gridfile>
wee1_glide-grid

> <s_m_Source_File>
wee1_decoys_glide_SP.sdf

> <s_m_Source_Path>
/Users/zhangxujun/Desktop

> <s_m_entry_id>
2052

> <s_m_entry_name>
wee1_decoys_glide_SP.1777

> <s_m_subgroup_title>
wee1_decoys_glide_SP

> <s_m_subgroupid>
wee1_decoys_glide_SP


$$$$
