@<TRIPOS>MOLECULE
ZINC65074785_3702
55   58    1
SMALL
USER_CHARGES


@<TRIPOS>ATOM
      1 C1          6.7035   54.4474   25.2795 C.3       1 UNK         0.0000 
      2 C2          5.4458   54.2847   24.4458 C.ar      1 UNK         0.0000 
      3 C3          4.1878   54.3575   25.0502 C.ar      1 UNK         0.0000 
      4 C4          3.0328   54.2245   24.2798 C.ar      1 UNK         0.0000 
      5 C5          3.1291   54.0197   22.9043 C.ar      1 UNK         0.0000 
      6 C6          4.3839   53.9302   22.2892 C.ar      1 UNK         0.0000 
      7 C7          5.5390   54.0774   23.0657 C.ar      1 UNK         0.0000 
      8 C8          4.5087   53.7164   20.7872 C.3       1 UNK         0.0000 
      9 N9          3.5465   52.7543   20.2291 N.pl3     1 UNK         0.0000 
     10 C10         3.2608   52.5828   18.9319 C.2       1 UNK         0.0000 
     11 N11         3.9257   53.2967   18.0105 N.pl3     1 UNK         0.0000 
     12 C12         3.7648   53.1655   16.5693 C.3       1 UNK         0.0000 
     13 C13         2.4429   52.4539   16.2830 C.3       1 UNK         0.0000 
     14 N14         2.3038   51.2964   17.1535 N.3       1 UNK         0.0000 
     15 C15         2.1241   51.5933   18.5838 C.3       1 UNK         0.0000 
     16 C16         2.2659   50.2233   19.3400 C.3       1 UNK         0.0000 
     17 C17         1.6283   50.1513   20.7466 C.3       1 UNK         0.0000 
     18 N18         0.2564   50.6854   20.6634 N.pl3     1 UNK         0.0000 
     19 C19         0.2055   52.1107   20.2828 C.3       1 UNK         0.0000 
     20 C20         0.7276   52.2495   18.8400 C.3       1 UNK         0.0000 
     21 S21        -0.9798   50.0436   21.7613 S.o2      1 UNK         0.0000 
     22 O22        -2.2588   50.6961   21.4566 O.2       1 UNK         0.0000 
     23 O23        -0.8504   48.5833   21.8241 O.2       1 UNK         0.0000 
     24 C24        -0.4462   50.6954   23.3576 C.2       1 UNK         0.0000 
     25 C25        -0.5449   52.0225   23.7491 C.2       1 UNK         0.0000 
     26 C26        -0.0995   52.2254   25.0564 C.2       1 UNK         0.0000 
     27 C27         0.3198   51.0579   25.6761 C.2       1 UNK         0.0000 
     28 S28         0.2310   49.6914   24.6066 S.3       1 UNK         0.0000 
     29 Cl29        0.9177   50.8886   27.2813 Cl        1 UNK         0.0000 
     30 H30         7.5042   54.8931   24.6878 H         1 UNK         0.0000 
     31 H31         6.5289   55.1130   26.1263 H         1 UNK         0.0000 
     32 H32         7.0369   53.4798   25.6572 H         1 UNK         0.0000 
     33 H33         4.1022   54.5196   26.1149 H         1 UNK         0.0000 
     34 H34         2.0617   54.2952   24.7455 H         1 UNK         0.0000 
     35 H35         2.2244   53.9453   22.3191 H         1 UNK         0.0000 
     36 H36         6.5133   54.0304   22.5996 H         1 UNK         0.0000 
     37 H37         4.3425   54.6698   20.2837 H         1 UNK         0.0000 
     38 H38         5.5000   53.3527   20.5119 H         1 UNK         0.0000 
     39 H39         3.0202   52.2020   20.8889 H         1 UNK         0.0000 
     40 H40         3.7999   54.1542   16.1113 H         1 UNK         0.0000 
     41 H41         4.6116   52.5818   16.2053 H         1 UNK         0.0000 
     42 H42         1.6005   53.1350   16.4119 H         1 UNK         0.0000 
     43 H43         2.4316   52.1239   15.2427 H         1 UNK         0.0000 
     44 H44         3.0522   50.6104   16.9844 H         1 UNK         0.0000 
     45 H45         1.7953   49.4333   18.7501 H         1 UNK         0.0000 
     46 H46         3.3178   49.9403   19.3918 H         1 UNK         0.0000 
     47 H47         1.6100   49.1284   21.1264 H         1 UNK         0.0000 
     48 H48         2.2054   50.7679   21.4352 H         1 UNK         0.0000 
     49 H49        -0.8124   52.4895   20.3759 H         1 UNK         0.0000 
     50 H50         0.8524   52.6815   20.9487 H         1 UNK         0.0000 
     51 H51         0.7637   53.3044   18.5679 H         1 UNK         0.0000 
     52 H52        -0.0130   51.7995   18.1759 H         1 UNK         0.0000 
     53 H53        -0.9371   52.8076   23.1197 H         1 UNK         0.0000 
     54 H54        -0.0934   53.1861   25.5416 H         1 UNK         0.0000 
     55 H55         4.6642   53.8939   18.3514 H         1 UNK         0.0000 
@<TRIPOS>BOND
     1    1    2 1    
     2    1   30 1    
     3    1   31 1    
     4    1   32 1    
     5    2    7 ar   
     6    2    3 ar   
     7    3    4 ar   
     8    3   33 1    
     9    4    5 ar   
    10    4   34 1    
    11    5    6 ar   
    12    5   35 1    
    13    6    7 ar   
    14    6    8 1    
    15    7   36 1    
    16    8    9 1    
    17    8   37 1    
    18    8   38 1    
    19    9   10 1    
    20    9   39 1    
    21   10   15 1    
    22   10   11 2    
    23   11   12 1    
    24   11   55 1    
    25   12   13 1    
    26   12   40 1    
    27   12   41 1    
    28   13   14 1    
    29   13   42 1    
    30   13   43 1    
    31   14   15 1    
    32   14   44 1    
    33   15   20 1    
    34   15   16 1    
    35   16   17 1    
    36   16   45 1    
    37   16   46 1    
    38   17   18 1    
    39   17   47 1    
    40   17   48 1    
    41   18   19 1    
    42   18   21 1    
    43   19   20 1    
    44   19   49 1    
    45   19   50 1    
    46   20   51 1    
    47   20   52 1    
    48   21   22 2    
    49   21   23 2    
    50   21   24 1    
    51   24   28 1    
    52   24   25 2    
    53   25   26 1    
    54   25   53 1    
    55   26   27 2    
    56   26   54 1    
    57   27   28 1    
    58   27   29 1    
@<TRIPOS>SUBSTRUCTURE
     1 UNK         1 GROUP             0       ****    0 ROOT    
