@<TRIPOS>MOLECULE
ZINC21869360_2715
53   56    1
SMALL
USER_CHARGES


@<TRIPOS>ATOM
      1 C1          7.8650   57.8484   18.0810 C.3       1 UNK         0.0000 
      2 C2          6.8624   56.8179   18.5812 C.ar      1 UNK         0.0000 
      3 C3          7.2101   56.0005   19.6591 C.ar      1 UNK         0.0000 
      4 C4          6.3041   55.0699   20.1607 C.ar      1 UNK         0.0000 
      5 C5          5.0439   54.9191   19.5685 C.ar      1 UNK         0.0000 
      6 C6          4.6970   55.7273   18.4833 C.ar      1 UNK         0.0000 
      7 C7          5.5931   56.6830   17.9900 C.ar      1 UNK         0.0000 
      8 C8          5.1588   57.5765   16.8358 C.3       1 UNK         0.0000 
      9 N9          4.0488   54.0909   20.1087 N.am      1 UNK         0.0000 
     10 C10         4.2162   52.8712   20.6668 C.2       1 UNK         0.0000 
     11 O11         5.2406   52.2009   20.5559 O.2       1 UNK         0.0000 
     12 C12         3.0599   52.3408   21.4797 C.ar      1 UNK         0.0000 
     13 C13         2.8813   50.9588   21.6314 C.ar      1 UNK         0.0000 
     14 C14         1.8742   50.4627   22.4552 C.ar      1 UNK         0.0000 
     15 C15         1.0147   51.3357   23.1232 C.ar      1 UNK         0.0000 
     16 C16         1.1662   52.7130   22.9376 C.ar      1 UNK         0.0000 
     17 C17         2.1913   53.2109   22.1472 C.ar      1 UNK         0.0000 
     18 N18         0.0393   50.7642   23.9590 N.pl3     1 UNK         0.0000 
     19 S19        -0.9695   51.6324   25.1377 S.o2      1 UNK         0.0000 
     20 O20        -1.4101   52.8940   24.5325 O.2       1 UNK         0.0000 
     21 O21        -1.9636   50.6572   25.5961 O.2       1 UNK         0.0000 
     22 C22         0.1011   52.0132   26.5320 C.ar      1 UNK         0.0000 
     23 C23        -0.1466   51.4266   27.7799 C.ar      1 UNK         0.0000 
     24 C24         0.6746   51.7223   28.8714 C.ar      1 UNK         0.0000 
     25 C25         1.7665   52.5692   28.7120 C.ar      1 UNK         0.0000 
     26 C26         2.0082   53.1734   27.4706 C.ar      1 UNK         0.0000 
     27 C27         1.1783   52.8964   26.3867 C.ar      1 UNK         0.0000 
     28 O28         3.0965   53.9940   27.2468 O.3       1 UNK         0.0000 
     29 C29         3.7125   54.4911   28.4404 C.3       1 UNK         0.0000 
     30 C30         3.8374   53.3696   29.5017 C.3       1 UNK         0.0000 
     31 O31         2.5464   52.8359   29.8211 O.3       1 UNK         0.0000 
     32 H32         8.7917   57.8414   18.6565 H         1 UNK         0.0000 
     33 H33         8.1116   57.6539   17.0363 H         1 UNK         0.0000 
     34 H34         7.4387   58.8506   18.1351 H         1 UNK         0.0000 
     35 H35         8.1793   56.0971   20.1296 H         1 UNK         0.0000 
     36 H36         6.5758   54.4964   21.0354 H         1 UNK         0.0000 
     37 H37         3.7155   55.6357   18.0406 H         1 UNK         0.0000 
     38 H38         4.1434   57.3589   16.5015 H         1 UNK         0.0000 
     39 H39         5.8314   57.4529   15.9863 H         1 UNK         0.0000 
     40 H40         5.1967   58.6265   17.1307 H         1 UNK         0.0000 
     41 H41         3.1072   54.4596   20.0822 H         1 UNK         0.0000 
     42 H42         3.5300   50.2605   21.1214 H         1 UNK         0.0000 
     43 H43         1.7765   49.3923   22.5765 H         1 UNK         0.0000 
     44 H44         0.5259   53.4354   23.4097 H         1 UNK         0.0000 
     45 H45         2.3039   54.2839   22.0816 H         1 UNK         0.0000 
     46 H46         0.0455   49.7617   24.0583 H         1 UNK         0.0000 
     47 H47        -0.9754   50.7436   27.9146 H         1 UNK         0.0000 
     48 H48         0.4553   51.2979   29.8364 H         1 UNK         0.0000 
     49 H49         1.3952   53.3694   25.4437 H         1 UNK         0.0000 
     50 H50         3.1071   55.3039   28.8465 H         1 UNK         0.0000 
     51 H51         4.6946   54.8968   28.1982 H         1 UNK         0.0000 
     52 H52         4.3041   53.7519   30.4078 H         1 UNK         0.0000 
     53 H53         4.4717   52.5729   29.1064 H         1 UNK         0.0000 
@<TRIPOS>BOND
     1    1    2 1    
     2    1   32 1    
     3    1   33 1    
     4    1   34 1    
     5    2    7 ar   
     6    2    3 ar   
     7    3    4 ar   
     8    3   35 1    
     9    4    5 ar   
    10    4   36 1    
    11    5    6 ar   
    12    5    9 1    
    13    6    7 ar   
    14    6   37 1    
    15    7    8 1    
    16    8   38 1    
    17    8   39 1    
    18    8   40 1    
    19    9   10 am   BACKBONE|DICT|INTERRES
    20    9   41 1    
    21   10   11 2    
    22   10   12 1    
    23   12   17 ar   
    24   12   13 ar   
    25   13   14 ar   
    26   13   42 1    
    27   14   15 ar   
    28   14   43 1    
    29   15   16 ar   
    30   15   18 1    
    31   16   17 ar   
    32   16   44 1    
    33   17   45 1    
    34   18   19 1    
    35   18   46 1    
    36   19   20 2    
    37   19   21 2    
    38   19   22 1    
    39   22   27 ar   
    40   22   23 ar   
    41   23   24 ar   
    42   23   47 1    
    43   24   25 ar   
    44   24   48 1    
    45   25   31 1    
    46   25   26 ar   
    47   26   27 ar   
    48   26   28 1    
    49   27   49 1    
    50   28   29 1    
    51   29   30 1    
    52   29   50 1    
    53   29   51 1    
    54   30   31 1    
    55   30   52 1    
    56   30   53 1    
@<TRIPOS>SUBSTRUCTURE
     1 UNK         1 GROUP             0       ****    0 ROOT    
