@<TRIPOS>MOLECULE
ZINC02905546_4469
49   51    1
SMALL
USER_CHARGES


@<TRIPOS>ATOM
      1 C1         -4.2469   49.7175   24.5030 C.3       1 UNK         0.0000 
      2 C2         -4.8163   51.0996   24.8186 C.ar      1 UNK         0.0000 
      3 C3         -6.1332   51.1487   25.2911 C.ar      1 UNK         0.0000 
      4 C4         -6.7542   52.3657   25.5567 C.ar      1 UNK         0.0000 
      5 C5         -6.0653   53.5549   25.3479 C.ar      1 UNK         0.0000 
      6 C6         -4.7529   53.5262   24.8821 C.ar      1 UNK         0.0000 
      7 C7         -4.1022   52.3096   24.6149 C.ar      1 UNK         0.0000 
      8 C8         -2.6686   52.3732   24.1330 C.2       1 UNK         0.0000 
      9 O9         -2.2873   53.2965   23.4137 O.2       1 UNK         0.0000 
     10 N10        -1.8393   51.4210   24.5881 N.am      1 UNK         0.0000 
     11 C11        -0.3782   51.3828   24.4294 C.3       1 UNK         0.0000 
     12 H12        -0.1637   51.9372   23.5114 H         1 UNK         0.0000 
     13 C13         0.1812   49.9646   24.1190 C.3       1 UNK         0.0000 
     14 Cl14       -0.6951   49.2331   22.7438 Cl        1 UNK         0.0000 
     15 Cl15        1.9042   50.0964   23.6678 Cl        1 UNK         0.0000 
     16 Cl16        0.0325   48.8852   25.5297 Cl        1 UNK         0.0000 
     17 N17         0.4225   52.1251   25.4319 N.pl3     1 UNK         0.0000 
     18 H18         1.2086   52.6277   25.0472 H         1 UNK         0.0000 
     19 C19         0.2485   52.2310   26.7895 C.2       1 UNK         0.0000 
     20 S20        -1.0467   51.6965   27.6817 S.2       1 UNK         0.0000 
     21 N21         1.2326   52.8109   27.5358 N.pl3     1 UNK         0.0000 
     22 C22         2.4937   53.2619   27.1445 C.2       1 UNK         0.0000 
     23 C23         3.6257   53.2738   27.9690 C.2       1 UNK         0.0000 
     24 C24         4.7826   53.7039   27.2869 C.2       1 UNK         0.0000 
     25 C25         4.5051   54.1089   25.9723 C.2       1 UNK         0.0000 
     26 S26         2.8478   53.8914   25.5563 S.3       1 UNK         0.0000 
     27 C27         5.5078   54.7132   25.0045 C.3       1 UNK         0.0000 
     28 C28         6.9228   54.3561   25.4832 C.3       1 UNK         0.0000 
     29 C29         7.1032   54.6490   26.9843 C.3       1 UNK         0.0000 
     30 C30         6.1928   53.7828   27.8769 C.3       1 UNK         0.0000 
     31 C31         3.6205   52.8288   29.3610 C.1       1 UNK         0.0000 
     32 N32         3.6109   52.4742   30.4629 N.1       1 UNK         0.0000 
     33 H33        -5.0338   48.9688   24.3933 H         1 UNK         0.0000 
     34 H34        -3.7067   49.7259   23.5554 H         1 UNK         0.0000 
     35 H35        -3.5673   49.3873   25.2907 H         1 UNK         0.0000 
     36 H36        -6.6900   50.2357   25.4489 H         1 UNK         0.0000 
     37 H37        -7.7722   52.3856   25.9171 H         1 UNK         0.0000 
     38 H38        -6.5530   54.4970   25.5470 H         1 UNK         0.0000 
     39 H39        -4.2401   54.4671   24.7339 H         1 UNK         0.0000 
     40 H40        -2.2132   50.7694   25.2628 H         1 UNK         0.0000 
     41 H41         1.1115   52.7177   28.5344 H         1 UNK         0.0000 
     42 H42         5.3949   55.7970   24.9792 H         1 UNK         0.0000 
     43 H43         5.3494   54.3559   23.9859 H         1 UNK         0.0000 
     44 H44         7.6507   54.9063   24.8879 H         1 UNK         0.0000 
     45 H45         7.1048   53.2977   25.2926 H         1 UNK         0.0000 
     46 H46         6.8839   55.6967   27.1789 H         1 UNK         0.0000 
     47 H47         8.1335   54.4966   27.2846 H         1 UNK         0.0000 
     48 H48         6.6089   52.7780   27.9572 H         1 UNK         0.0000 
     49 H49         6.1844   54.1895   28.8895 H         1 UNK         0.0000 
@<TRIPOS>BOND
     1    1    2 1    
     2    1   33 1    
     3    1   34 1    
     4    1   35 1    
     5    2    7 ar   
     6    2    3 ar   
     7    3    4 ar   
     8    3   36 1    
     9    4    5 ar   
    10    4   37 1    
    11    5    6 ar   
    12    5   38 1    
    13    6    7 ar   
    14    6   39 1    
    15    7    8 1    
    16    8    9 2    
    17    8   10 am   BACKBONE|DICT|INTERRES
    18   10   11 1    
    19   10   40 1    
    20   11   12 1    
    21   11   13 1    
    22   11   17 1    
    23   13   14 1    
    24   13   15 1    
    25   13   16 1    
    26   17   18 1    
    27   17   19 1    
    28   19   20 2    
    29   19   21 1    
    30   21   22 1    
    31   21   41 1    
    32   22   26 1    
    33   22   23 2    
    34   23   24 1    
    35   23   31 1    
    36   24   30 1    
    37   24   25 2    
    38   25   26 1    
    39   25   27 1    
    40   27   28 1    
    41   27   42 1    
    42   27   43 1    
    43   28   29 1    
    44   28   44 1    
    45   28   45 1    
    46   29   30 1    
    47   29   46 1    
    48   29   47 1    
    49   30   48 1    
    50   30   49 1    
    51   31   32 3    
@<TRIPOS>SUBSTRUCTURE
     1 UNK         1 GROUP             0       ****    0 ROOT    
