ZINC38547532_5100
                    3D
 Schrodinger Suite 2024-2.
 65 68  0  0  1  0            999 V2000
   -2.0581   50.1496   19.3684 C   0  0  0  0  0  0
   -0.7157   49.5361   19.7120 C   0  0  0  0  0  0
   -0.0484   48.6449   18.8648 C   0  0  0  0  0  0
    1.1933   48.1308   19.2512 C   0  0  0  0  0  0
    1.7404   48.5069   20.4816 C   0  0  0  0  0  0
    1.0546   49.4127   21.2964 C   0  0  0  0  0  0
   -0.1352   49.8873   20.8759 N   0  3  0  0  0  0
    1.6345   49.8342   22.5240 N   0  0  0  0  0  0
    1.2023   50.9503   23.3990 C   0  0  2  0  0  0
    1.4968   50.5133   24.3529 H   0  0  0  0  0  0
   -0.3189   51.1551   23.5919 C   0  0  0  0  0  0
   -0.8979   52.4273   23.4867 C   0  0  0  0  0  0
   -2.2627   52.6115   23.6815 C   0  0  0  0  0  0
   -3.0759   51.5253   23.9891 C   0  0  0  0  0  0
   -2.5287   50.2393   24.1173 C   0  0  0  0  0  0
   -1.1483   50.0686   23.9283 C   0  0  0  0  0  0
   -0.6052   48.8139   24.0464 O   0  0  0  0  0  0
   -0.2034   48.4747   25.3646 C   0  0  0  0  0  0
   -3.2726   49.1133   24.4217 O   0  0  0  0  0  0
   -4.6669   49.2413   24.6809 C   0  0  0  0  0  0
    2.0514   52.2281   23.2652 C   0  0  0  0  0  0
    2.7061   52.7050   22.0916 C   0  0  0  0  0  0
    3.5512   53.7907   22.3351 C   0  0  0  0  0  0
    3.4375   54.3188   23.9765 S   0  0  0  0  0  0
    2.3085   53.0611   24.3613 C   0  0  0  0  0  0
    1.7759   52.8799   25.6361 N   0  0  0  0  0  0
    2.1601   53.4295   26.8111 C   0  0  0  0  0  0
    3.0940   54.2245   26.9397 O   0  0  0  0  0  0
    1.3847   52.9633   28.0276 C   0  0  0  0  0  0
    0.1452   52.3065   27.9108 C   0  0  0  0  0  0
   -0.5320   51.8689   29.0452 C   0  0  0  0  0  0
    0.0110   52.0976   30.3052 C   0  0  0  0  0  0
    1.2333   52.7455   30.4430 C   0  0  0  0  0  0
    1.9165   53.1786   29.3092 C   0  0  0  0  0  0
    4.4792   54.4853   21.3635 C   0  0  0  0  0  0
    2.5167   52.1636   20.6875 C   0  0  0  0  0  0
   -2.5545   49.5985   18.5669 H   0  0  0  0  0  0
   -2.7223   50.1424   20.2343 H   0  0  0  0  0  0
   -1.9271   51.1810   19.0398 H   0  0  0  0  0  0
   -0.4763   48.3613   17.9138 H   0  0  0  0  0  0
    1.7325   47.4574   18.6002 H   0  0  0  0  0  0
    2.7047   48.1198   20.7767 H   0  0  0  0  0  0
    2.4923   49.3775   22.8023 H   0  0  0  0  0  0
   -0.2931   53.2964   23.2791 H   0  0  0  0  0  0
   -2.6911   53.6005   23.6046 H   0  0  0  0  0  0
   -4.1306   51.7019   24.1338 H   0  0  0  0  0  0
    0.5535   47.6980   25.2809 H   0  0  0  0  0  0
    0.2351   49.3052   25.9232 H   0  0  0  0  0  0
   -1.0421   48.0789   25.9377 H   0  0  0  0  0  0
   -5.0764   48.2633   24.9295 H   0  0  0  0  0  0
   -4.8593   49.9005   25.5294 H   0  0  0  0  0  0
   -5.2040   49.6132   23.8065 H   0  0  0  0  0  0
    1.0662   52.1677   25.7035 H   0  0  0  0  0  0
   -0.3143   52.1189   26.9506 H   0  0  0  0  0  0
   -1.4736   51.3448   28.9517 H   0  0  0  0  0  0
   -0.5059   51.7508   31.1903 H   0  0  0  0  0  0
    1.6471   52.8970   31.4288 H   0  0  0  0  0  0
    2.8692   53.6749   29.4338 H   0  0  0  0  0  0
    3.9310   54.8960   20.5170 H   0  0  0  0  0  0
    5.0491   55.2947   21.8144 H   0  0  0  0  0  0
    5.2061   53.7853   20.9511 H   0  0  0  0  0  0
    3.0620   51.2355   20.5212 H   0  0  0  0  0  0
    1.4666   51.9734   20.4816 H   0  0  0  0  0  0
    2.8180   52.8684   19.9138 H   0  0  0  0  0  0
   -0.6172   50.5325   21.4850 H   0  0  0  0  0  0
  1  2  1  0  0  0
  1 37  1  0  0  0
  1 38  1  0  0  0
  1 39  1  0  0  0
  2  7  2  0  0  0
  2  3  1  0  0  0
  3  4  2  0  0  0
  3 40  1  0  0  0
  4  5  1  0  0  0
  4 41  1  0  0  0
  5  6  2  0  0  0
  5 42  1  0  0  0
  6  7  1  0  0  0
  6  8  1  0  0  0
  7 65  1  0  0  0
  8  9  1  0  0  0
  8 43  1  0  0  0
  9 10  1  0  0  0
  9 11  1  0  0  0
  9 21  1  0  0  0
 11 16  2  0  0  0
 11 12  1  0  0  0
 12 13  2  0  0  0
 12 44  1  0  0  0
 13 14  1  0  0  0
 13 45  1  0  0  0
 14 15  2  0  0  0
 14 46  1  0  0  0
 15 16  1  0  0  0
 15 19  1  0  0  0
 16 17  1  0  0  0
 17 18  1  0  0  0
 18 47  1  0  0  0
 18 48  1  0  0  0
 18 49  1  0  0  0
 19 20  1  0  0  0
 20 50  1  0  0  0
 20 51  1  0  0  0
 20 52  1  0  0  0
 21 25  2  0  0  0
 21 22  1  0  0  0
 22 23  2  0  0  0
 22 36  1  0  0  0
 23 24  1  0  0  0
 23 35  1  0  0  0
 24 25  1  0  0  0
 25 26  1  0  0  0
 26 27  1  0  0  0
 26 53  1  0  0  0
 27 28  2  0  0  0
 27 29  1  0  0  0
 29 34  2  0  0  0
 29 30  1  0  0  0
 30 31  2  0  0  0
 30 54  1  0  0  0
 31 32  1  0  0  0
 31 55  1  0  0  0
 32 33  2  0  0  0
 32 56  1  0  0  0
 33 34  1  0  0  0
 33 57  1  0  0  0
 34 58  1  0  0  0
 35 59  1  0  0  0
 35 60  1  0  0  0
 35 61  1  0  0  0
 36 62  1  0  0  0
 36 63  1  0  0  0
 36 64  1  0  0  0
M  CHG  1   7   1
M  END
> <i_i_glide_confnum>
36

> <i_i_glide_lignum>
5101

> <i_i_glide_posenum>
271

> <i_i_glide_rotatable_bonds>
9

> <i_m_Source_File_Index>
3041

> <b_m_subgroup_collapsed>
0

> <r_i_docking_score>
-3.36435

> <r_i_glide_ecoul>
-2.01896

> <r_i_glide_eff_state_penalty>
0

> <r_i_glide_einternal>
11.5118

> <r_i_glide_emodel>
-42.5011

> <r_i_glide_energy>
-40.4738

> <r_i_glide_erotb>
0.596286

> <r_i_glide_esite>
-0.000160509

> <r_i_glide_evdw>
-38.4549

> <r_i_glide_gscore>
-3.36435

> <r_i_glide_hbond>
0

> <r_i_glide_ligand_efficiency>
-0.0961244

> <r_i_glide_ligand_efficiency_ln>
-0.73855

> <r_i_glide_ligand_efficiency_sa>
-0.314429

> <r_i_glide_lipo>
-1.415

> <r_i_glide_metal>
0

> <r_i_glide_rewards>
-0.319886

> <s_i_glide_gridfile>
wee1_glide-grid

> <s_m_Source_File>
wee1_decoys_glide_SP.sdf

> <s_m_Source_Path>
/Users/zhangxujun/Desktop

> <s_m_entry_id>
3316

> <s_m_entry_name>
wee1_decoys_glide_SP.3041

> <s_m_subgroup_title>
wee1_decoys_glide_SP

> <s_m_subgroupid>
wee1_decoys_glide_SP


$$$$
