@<TRIPOS>MOLECULE
ZINC14357907_4122
70   75    1
SMALL
USER_CHARGES


@<TRIPOS>ATOM
      1 C1          0.3172   53.8205   31.5637 C.ar      1 UNK         0.0000 
      2 C2          0.3043   52.5195   31.0730 C.ar      1 UNK         0.0000 
      3 C3          0.6046   52.2773   29.7432 C.ar      1 UNK         0.0000 
      4 C4          0.9328   53.3407   28.9026 C.ar      1 UNK         0.0000 
      5 C5          0.9625   54.6479   29.4002 C.ar      1 UNK         0.0000 
      6 C6          0.6963   54.8834   30.7437 C.ar      1 UNK         0.0000 
      7 N7          1.2405   53.0702   27.5563 N.pl3     1 UNK         0.0000 
      8 C8          2.2228   53.5709   26.7289 C.ar      1 UNK         0.0000 
      9 N9          2.0810   53.0258   25.5387 N.2       1 UNK         0.0000 
     10 C10         1.1046   52.1426   25.7047 C.ar      1 UNK         0.0000 
     11 N11         0.5331   52.1563   26.8833 N.2       1 UNK         0.0000 
     12 S12         0.6556   50.9898   24.4414 S.3       1 UNK         0.0000 
     13 C13         0.3095   49.4923   25.4462 C.3       1 UNK         0.0000 
     14 C14        -0.6721   48.4968   24.8072 C.2       1 UNK         0.0000 
     15 O15        -0.6667   48.3289   23.5834 O.2       1 UNK         0.0000 
     16 N16        -1.4700   47.8457   25.6815 N.am      1 UNK         0.0000 
     17 C17        -2.3956   46.8966   25.4295 C.2       1 UNK         0.0000 
     18 O18        -2.6158   46.3516   24.3424 O.2       1 UNK         0.0000 
     19 N19        -3.0967   46.6416   26.5460 N.am      1 UNK         0.0000 
     20 C20        -4.4891   46.1847   26.6616 C.3       1 UNK         0.0000 
     21 C21        -4.7203   44.7456   26.0943 C.3       1 UNK         0.0000 
     22 C22        -6.1884   44.2842   26.2917 C.3       1 UNK         0.0000 
     23 C23        -6.5217   44.2697   27.8037 C.3       1 UNK         0.0000 
     24 C24        -6.3409   45.6960   28.3852 C.3       1 UNK         0.0000 
     25 C25        -4.8726   46.1522   28.1752 C.3       1 UNK         0.0000 
     26 C26        -7.2911   46.6788   27.6541 C.3       1 UNK         0.0000 
     27 C27        -6.9604   46.6928   26.1410 C.3       1 UNK         0.0000 
     28 C28        -7.1397   45.2670   25.5620 C.3       1 UNK         0.0000 
     29 C29        -5.4909   47.1485   25.9439 C.3       1 UNK         0.0000 
     30 C30         3.2834   54.6175   27.1235 C.3       1 UNK         0.0000 
     31 C31         4.0518   54.3286   28.4514 C.3       1 UNK         0.0000 
     32 C32         5.0063   53.1340   28.3316 C.3       1 UNK         0.0000 
     33 C33         6.0466   53.3818   27.2298 C.3       1 UNK         0.0000 
     34 C34         5.3790   53.7539   25.8866 C.3       1 UNK         0.0000 
     35 C35         4.3518   54.8924   26.0266 C.3       1 UNK         0.0000 
     36 H36         0.0587   53.9949   32.5969 H         1 UNK         0.0000 
     37 H37         0.0087   51.6969   31.7016 H         1 UNK         0.0000 
     38 H38         0.5648   51.2653   29.3696 H         1 UNK         0.0000 
     39 H39         1.1878   55.4857   28.7613 H         1 UNK         0.0000 
     40 H40         0.7232   55.8887   31.1352 H         1 UNK         0.0000 
     41 H41        -0.0749   49.7713   26.4272 H         1 UNK         0.0000 
     42 H42         1.2483   48.9658   25.6209 H         1 UNK         0.0000 
     43 H43        -1.3624   48.0966   26.6622 H         1 UNK         0.0000 
     44 H44        -2.6803   46.9550   27.4166 H         1 UNK         0.0000 
     45 H45        -4.0456   44.0377   26.5787 H         1 UNK         0.0000 
     46 H46        -4.4962   44.7180   25.0286 H         1 UNK         0.0000 
     47 H47        -6.3173   43.2807   25.8826 H         1 UNK         0.0000 
     48 H48        -5.8772   43.5527   28.3143 H         1 UNK         0.0000 
     49 H49        -7.5439   43.9212   27.9636 H         1 UNK         0.0000 
     50 H50        -6.5834   45.6976   29.4489 H         1 UNK         0.0000 
     51 H51        -4.7295   47.1389   28.6183 H         1 UNK         0.0000 
     52 H52        -4.1908   45.4900   28.7128 H         1 UNK         0.0000 
     53 H53        -7.1930   47.6809   28.0724 H         1 UNK         0.0000 
     54 H54        -8.3311   46.3881   27.8109 H         1 UNK         0.0000 
     55 H55        -7.6284   47.3854   25.6279 H         1 UNK         0.0000 
     56 H56        -8.1757   44.9439   25.6745 H         1 UNK         0.0000 
     57 H57        -6.9379   45.2664   24.4897 H         1 UNK         0.0000 
     58 H58        -5.2687   47.1986   24.8763 H         1 UNK         0.0000 
     59 H59        -5.3649   48.1658   26.3151 H         1 UNK         0.0000 
     60 H60         2.7643   55.5643   27.2825 H         1 UNK         0.0000 
     61 H61         4.6973   55.1858   28.6564 H         1 UNK         0.0000 
     62 H62         3.4278   54.2648   29.3352 H         1 UNK         0.0000 
     63 H63         5.5036   52.9496   29.2815 H         1 UNK         0.0000 
     64 H64         4.4318   52.2320   28.1115 H         1 UNK         0.0000 
     65 H65         6.7177   54.1866   27.5354 H         1 UNK         0.0000 
     66 H66         6.6728   52.4968   27.1297 H         1 UNK         0.0000 
     67 H67         6.1357   54.0062   25.1430 H         1 UNK         0.0000 
     68 H68         4.8454   52.8968   25.5027 H         1 UNK         0.0000 
     69 H69         3.9146   55.2275   25.0865 H         1 UNK         0.0000 
     70 H70         4.9770   55.7118   26.3639 H         1 UNK         0.0000 
@<TRIPOS>BOND
     1    1    6 ar   
     2    1    2 ar   
     3    1   36 1    
     4    2    3 ar   
     5    2   37 1    
     6    3    4 ar   
     7    3   38 1    
     8    4    5 ar   
     9    4    7 1    
    10    5    6 ar   
    11    5   39 1    
    12    6   40 1    
    13    7   11 ar   
    14    7    8 ar   
    15    8    9 ar   
    16    8   30 1    
    17    9   10 ar   
    18   10   11 ar   
    19   10   12 1    
    20   12   13 1    
    21   13   14 1    
    22   13   41 1    
    23   13   42 1    
    24   14   15 2    
    25   14   16 am   BACKBONE|DICT|INTERRES
    26   16   17 am   BACKBONE|DICT|INTERRES
    27   16   43 1    
    28   17   18 2    
    29   17   19 am   BACKBONE|DICT|INTERRES
    30   19   20 1    
    31   19   44 1    
    32   20   25 1    
    33   20   29 1    
    34   20   21 1    
    35   21   22 1    
    36   21   45 1    
    37   21   46 1    
    38   22   28 1    
    39   22   23 1    
    40   22   47 1    
    41   23   24 1    
    42   23   48 1    
    43   23   49 1    
    44   24   25 1    
    45   24   26 1    
    46   24   50 1    
    47   25   51 1    
    48   25   52 1    
    49   26   27 1    
    50   26   53 1    
    51   26   54 1    
    52   27   28 1    
    53   27   29 1    
    54   27   55 1    
    55   28   56 1    
    56   28   57 1    
    57   29   58 1    
    58   29   59 1    
    59   30   35 1    
    60   30   31 1    
    61   30   60 1    
    62   31   32 1    
    63   31   61 1    
    64   31   62 1    
    65   32   33 1    
    66   32   63 1    
    67   32   64 1    
    68   33   34 1    
    69   33   65 1    
    70   33   66 1    
    71   34   35 1    
    72   34   67 1    
    73   34   68 1    
    74   35   69 1    
    75   35   70 1    
@<TRIPOS>SUBSTRUCTURE
     1 UNK         1 GROUP             0       ****    0 ROOT    
