@<TRIPOS>MOLECULE
ZINC35426984_758
67   72    1
SMALL
USER_CHARGES


@<TRIPOS>ATOM
      1 C1          6.9256   55.2063   24.8352 C.3       1 UNK         0.0000 
      2 C2          6.3026   54.8598   23.4959 C.ar      1 UNK         0.0000 
      3 C3          6.8677   55.3256   22.3052 C.ar      1 UNK         0.0000 
      4 C4          6.2553   55.0552   21.0799 C.ar      1 UNK         0.0000 
      5 C5          5.0887   54.2931   21.0378 C.ar      1 UNK         0.0000 
      6 C6          4.5289   53.8013   22.2245 C.ar      1 UNK         0.0000 
      7 C7          5.1297   54.0967   23.4527 C.ar      1 UNK         0.0000 
      8 N8          3.3887   52.9814   22.1929 N.am      1 UNK         0.0000 
      9 C9          3.3822   51.7500   21.6351 C.2       1 UNK         0.0000 
     10 O10         4.4094   51.2968   21.1188 O.2       1 UNK         0.0000 
     11 N11         2.2711   50.9762   21.8489 N.am      1 UNK         0.0000 
     12 C12         2.3866   49.5203   21.5519 C.3       1 UNK         0.0000 
     13 C13         1.1383   48.8971   20.9488 C.2       1 UNK         0.0000 
     14 C14         1.0233   48.3747   19.6480 C.2       1 UNK         0.0000 
     15 C15        -0.2433   47.8398   19.3840 C.2       1 UNK         0.0000 
     16 S16        -1.3063   47.9892   20.7461 S.3       1 UNK         0.0000 
     17 C17        -0.0715   48.7952   21.6495 C.2       1 UNK         0.0000 
     18 N18        -0.1716   49.3245   22.9187 N.pl3     1 UNK         0.0000 
     19 C19        -0.6909   48.7102   24.0334 C.ar      1 UNK         0.0000 
     20 C20        -0.5776   49.5669   25.1125 C.ar      1 UNK         0.0000 
     21 C21         0.0228   50.7361   24.6368 C.ar      1 UNK         0.0000 
     22 C22         0.2804   50.5896   23.2756 C.ar      1 UNK         0.0000 
     23 C23         0.9285   51.5241   22.2334 C.3       1 UNK         0.0000 
     24 H24         1.0521   52.4928   22.7140 H         1 UNK         0.0000 
     25 C25         0.0010   51.8130   21.0198 C.ar      1 UNK         0.0000 
     26 C26         0.5368   52.0967   19.7540 C.ar      1 UNK         0.0000 
     27 C27        -0.2907   52.2374   18.6430 C.ar      1 UNK         0.0000 
     28 C28        -1.6791   52.0959   18.7753 C.ar      1 UNK         0.0000 
     29 C29        -2.2150   51.8170   20.0268 C.ar      1 UNK         0.0000 
     30 C30        -1.3909   51.6991   21.1413 C.ar      1 UNK         0.0000 
     31 O31        -2.5813   52.2261   17.7399 O.3       1 UNK         0.0000 
     32 C32        -2.1015   52.5303   16.4355 C.3       1 UNK         0.0000 
     33 C33        -0.6426   47.1567   18.0870 C.3       1 UNK         0.0000 
     34 N34         0.3239   47.7000   17.0037 N.4       1 UNK         0.0000 
     35 C35         1.7951   47.4518   17.4101 C.3       1 UNK         0.0000 
     36 C36         2.1437   48.3700   18.6034 C.3       1 UNK         0.0000 
     37 C37         0.0246   47.0098   15.6561 C.3       1 UNK         0.0000 
     38 H38         7.5037   54.3656   25.2181 H         1 UNK         0.0000 
     39 H39         7.5606   56.0859   24.7525 H         1 UNK         0.0000 
     40 H40         6.1487   55.4451   25.5638 H         1 UNK         0.0000 
     41 H41         7.7792   55.9054   22.3267 H         1 UNK         0.0000 
     42 H42         6.6934   55.4215   20.1614 H         1 UNK         0.0000 
     43 H43         4.6282   54.0692   20.0845 H         1 UNK         0.0000 
     44 H44         4.6954   53.7195   24.3683 H         1 UNK         0.0000 
     45 H45         2.5834   53.2863   22.7184 H         1 UNK         0.0000 
     46 H46         3.2170   49.3106   20.8864 H         1 UNK         0.0000 
     47 H47         2.6575   49.0035   22.4735 H         1 UNK         0.0000 
     48 H48        -1.0848   47.7062   23.9720 H         1 UNK         0.0000 
     49 H49        -0.8866   49.3628   26.1316 H         1 UNK         0.0000 
     50 H50         0.2631   51.6055   25.2307 H         1 UNK         0.0000 
     51 H51         1.6012   52.2020   19.6081 H         1 UNK         0.0000 
     52 H52         0.1675   52.4563   17.6896 H         1 UNK         0.0000 
     53 H53        -3.2831   51.6960   20.1320 H         1 UNK         0.0000 
     54 H54        -1.8489   51.4832   22.0945 H         1 UNK         0.0000 
     55 H55        -1.4459   51.7430   16.0577 H         1 UNK         0.0000 
     56 H56        -2.9447   52.6177   15.7501 H         1 UNK         0.0000 
     57 H57        -1.5646   53.4804   16.4196 H         1 UNK         0.0000 
     58 H58        -0.5325   46.0722   18.1373 H         1 UNK         0.0000 
     59 H59        -1.6497   47.4154   17.7517 H         1 UNK         0.0000 
     60 H60         1.8953   46.3900   17.6443 H         1 UNK         0.0000 
     61 H61         2.4218   47.6962   16.5484 H         1 UNK         0.0000 
     62 H62         2.2915   49.3884   18.2390 H         1 UNK         0.0000 
     63 H63         3.1040   48.0726   19.0241 H         1 UNK         0.0000 
     64 H64        -1.0106   47.2322   15.3950 H         1 UNK         0.0000 
     65 H65         0.7049   47.4350   14.9165 H         1 UNK         0.0000 
     66 H66         0.1860   45.9375   15.7733 H         1 UNK         0.0000 
     67 H67         0.1901   48.6974   16.8847 H         1 UNK         0.0000 
@<TRIPOS>BOND
     1    1    2 1    
     2    1   38 1    
     3    1   39 1    
     4    1   40 1    
     5    2    7 ar   
     6    2    3 ar   
     7    3    4 ar   
     8    3   41 1    
     9    4    5 ar   
    10    4   42 1    
    11    5    6 ar   
    12    5   43 1    
    13    6    7 ar   
    14    6    8 1    
    15    7   44 1    
    16    8    9 am   BACKBONE|DICT|INTERRES
    17    8   45 1    
    18    9   10 2    
    19    9   11 am   BACKBONE|DICT|INTERRES
    20   11   23 1    
    21   11   12 1    
    22   12   13 1    
    23   12   46 1    
    24   12   47 1    
    25   13   17 2    
    26   13   14 1    
    27   14   36 1    
    28   14   15 2    
    29   15   16 1    
    30   15   33 1    
    31   16   17 1    
    32   17   18 1    
    33   18   22 ar   
    34   18   19 ar   
    35   19   20 ar   
    36   19   48 1    
    37   20   21 ar   
    38   20   49 1    
    39   21   22 ar   
    40   21   50 1    
    41   22   23 1    
    42   23   24 1    
    43   23   25 1    
    44   25   30 ar   
    45   25   26 ar   
    46   26   27 ar   
    47   26   51 1    
    48   27   28 ar   
    49   27   52 1    
    50   28   29 ar   
    51   28   31 1    
    52   29   30 ar   
    53   29   53 1    
    54   30   54 1    
    55   31   32 1    
    56   32   55 1    
    57   32   56 1    
    58   32   57 1    
    59   33   34 1    
    60   33   58 1    
    61   33   59 1    
    62   34   35 1    
    63   34   37 1    
    64   34   67 1    
    65   35   36 1    
    66   35   60 1    
    67   35   61 1    
    68   36   62 1    
    69   36   63 1    
    70   37   64 1    
    71   37   65 1    
    72   37   66 1    
@<TRIPOS>SUBSTRUCTURE
     1 UNK         1 GROUP             0       ****    0 ROOT    
