@<TRIPOS>MOLECULE
ZINC29635521_485
53   56    1
SMALL
USER_CHARGES


@<TRIPOS>ATOM
      1 C1          5.8945   53.2772   16.7747 C.3       1 UNK         0.0000 
      2 C2          7.4032   53.3994   16.9301 C.ar      1 UNK         0.0000 
      3 C3          8.1827   52.2729   16.6566 C.ar      1 UNK         0.0000 
      4 C4          9.5712   52.3350   16.7225 C.ar      1 UNK         0.0000 
      5 C5         10.2172   53.5282   17.0703 C.ar      1 UNK         0.0000 
      6 C6          9.4325   54.6470   17.3835 C.ar      1 UNK         0.0000 
      7 C7          8.0359   54.5981   17.3108 C.ar      1 UNK         0.0000 
      8 S8          7.1245   56.1114   17.6566 S.o2      1 UNK         0.0000 
      9 O9          6.5047   56.5167   16.3916 O.2       1 UNK         0.0000 
     10 O10         8.0042   57.0373   18.3791 O.2       1 UNK         0.0000 
     11 N11         5.7871   55.6751   18.7380 N.pl3     1 UNK         0.0000 
     12 C12         5.9102   55.2529   20.0690 C.ar      1 UNK         0.0000 
     13 C13         4.9090   54.4157   20.5620 C.ar      1 UNK         0.0000 
     14 C14         4.9062   54.0323   21.8991 C.ar      1 UNK         0.0000 
     15 C15         5.8981   54.4964   22.7639 C.ar      1 UNK         0.0000 
     16 C16         6.9324   55.2970   22.2594 C.ar      1 UNK         0.0000 
     17 C17         6.9392   55.6703   20.9186 C.ar      1 UNK         0.0000 
     18 N18         5.7378   54.1580   24.1181 N.am      1 UNK         0.0000 
     19 C19         6.2253   54.7710   25.2171 C.2       1 UNK         0.0000 
     20 O20         7.1026   55.6319   25.2426 O.2       1 UNK         0.0000 
     21 C21         5.5479   54.3825   26.4245 C.ar      1 UNK         0.0000 
     22 C22         4.3142   53.7508   26.6073 C.ar      1 UNK         0.0000 
     23 C23         4.0028   53.6899   27.9744 C.ar      1 UNK         0.0000 
     24 C24         5.0732   54.2971   28.6205 C.ar      1 UNK         0.0000 
     25 N25         5.9817   54.7155   27.6835 N.pl3     1 UNK         0.0000 
     26 H26         6.8319   55.2232   27.8932 H         1 UNK         0.0000 
     27 C27         2.7892   53.1300   28.5633 C.2       1 UNK         0.0000 
     28 C28         1.7163   52.6121   27.8369 C.2       1 UNK         0.0000 
     29 S29         0.4622   52.0995   28.9176 S.3       1 UNK         0.0000 
     30 C30         1.4668   52.5950   30.2406 C.2       1 UNK         0.0000 
     31 N31         2.6214   53.0986   29.8747 N.2       1 UNK         0.0000 
     32 C32         1.0391   52.4965   31.6822 C.3       1 UNK         0.0000 
     33 N33        11.6974   53.6068   17.0972 N.pl3     1 UNK         0.0000 
     34 O34        12.3441   52.5787   16.9180 O.co2     1 UNK         0.0000 
     35 O35        12.2230   54.7002   17.2817 O.co2     1 UNK         0.0000 
     36 H36         5.6296   52.4464   16.1192 H         1 UNK         0.0000 
     37 H37         5.4246   53.1037   17.7425 H         1 UNK         0.0000 
     38 H38         5.4620   54.1664   16.3192 H         1 UNK         0.0000 
     39 H39         7.7130   51.3395   16.3809 H         1 UNK         0.0000 
     40 H40        10.1423   51.4466   16.4923 H         1 UNK         0.0000 
     41 H41         9.9141   55.5733   17.6649 H         1 UNK         0.0000 
     42 H42         4.9291   55.4379   18.2649 H         1 UNK         0.0000 
     43 H43         4.1053   54.0830   19.9201 H         1 UNK         0.0000 
     44 H44         4.0981   53.4136   22.2612 H         1 UNK         0.0000 
     45 H45         7.7231   55.6711   22.8876 H         1 UNK         0.0000 
     46 H46         7.7383   56.3065   20.5798 H         1 UNK         0.0000 
     47 H47         5.0379   53.4573   24.2995 H         1 UNK         0.0000 
     48 H48         3.6734   53.3816   25.8202 H         1 UNK         0.0000 
     49 H49         5.2532   54.4940   29.6670 H         1 UNK         0.0000 
     50 H50         1.5972   52.5206   26.7682 H         1 UNK         0.0000 
     51 H51         1.8742   52.2882   32.3515 H         1 UNK         0.0000 
     52 H52         0.3058   51.7028   31.8333 H         1 UNK         0.0000 
     53 H53         0.5692   53.4183   32.0270 H         1 UNK         0.0000 
@<TRIPOS>BOND
     1    1    2 1    
     2    1   36 1    
     3    1   37 1    
     4    1   38 1    
     5    2    7 ar   
     6    2    3 ar   
     7    3    4 ar   
     8    3   39 1    
     9    4    5 ar   
    10    4   40 1    
    11    5    6 ar   
    12    5   33 1    
    13    6    7 ar   
    14    6   41 1    
    15    7    8 1    
    16    8    9 2    
    17    8   10 2    
    18    8   11 1    
    19   11   12 1    
    20   11   42 1    
    21   12   17 ar   
    22   12   13 ar   
    23   13   14 ar   
    24   13   43 1    
    25   14   15 ar   
    26   14   44 1    
    27   15   16 ar   
    28   15   18 1    
    29   16   17 ar   
    30   16   45 1    
    31   17   46 1    
    32   18   19 am   BACKBONE|DICT|INTERRES
    33   18   47 1    
    34   19   20 2    
    35   19   21 1    
    36   21   25 ar   
    37   21   22 ar   
    38   22   23 ar   
    39   22   48 1    
    40   23   24 ar   
    41   23   27 1    
    42   24   25 ar   
    43   24   49 1    
    44   25   26 1    
    45   27   31 1    
    46   27   28 2    
    47   28   29 1    
    48   28   50 1    
    49   29   30 1    
    50   30   31 2    
    51   30   32 1    
    52   32   51 1    
    53   32   52 1    
    54   32   53 1    
    55   33   34 2    
    56   33   35 1    
@<TRIPOS>SUBSTRUCTURE
     1 UNK         1 GROUP             0       ****    0 ROOT    
