@<TRIPOS>MOLECULE
ZINC12747267_2703
60   62    1
SMALL
USER_CHARGES


@<TRIPOS>ATOM
      1 C1          1.2249   51.7477   29.2407 C.3       1 UNK         0.0000 
      2 C2          2.1840   52.6284   28.4574 C.2       1 UNK         0.0000 
      3 C3          3.3602   53.1686   29.0044 C.2       1 UNK         0.0000 
      4 S4          4.2600   54.0782   27.8197 S.3       1 UNK         0.0000 
      5 C5          3.1123   53.6947   26.5965 C.ar      1 UNK         0.0000 
      6 C6          2.0809   52.9028   27.0724 C.ar      1 UNK         0.0000 
      7 C7          1.0550   52.4566   26.1254 C.ar      1 UNK         0.0000 
      8 O8          0.0808   51.7657   26.4259 O.2       1 UNK         0.0000 
      9 N9          1.3391   52.8533   24.8130 N.pl3     1 UNK         0.0000 
     10 C10         2.3665   53.7406   24.4641 C.ar      1 UNK         0.0000 
     11 N11         3.2523   54.1201   25.3170 N.2       1 UNK         0.0000 
     12 S12         2.5256   54.4966   22.8338 S.3       1 UNK         0.0000 
     13 C13         3.9023   53.5310   22.1025 C.3       1 UNK         0.0000 
     14 H14         4.4854   53.1262   22.9313 H         1 UNK         0.0000 
     15 C15         4.8679   54.4088   21.2838 C.3       1 UNK         0.0000 
     16 C16         3.4283   52.3246   21.2676 C.2       1 UNK         0.0000 
     17 O17         4.1100   51.2968   21.2816 O.2       1 UNK         0.0000 
     18 N18         2.2959   52.4966   20.5391 N.am      1 UNK         0.0000 
     19 C19         1.5522   51.6102   19.8385 C.2       1 UNK         0.0000 
     20 O20         0.4581   51.9693   19.4081 O.2       1 UNK         0.0000 
     21 N21         2.0243   50.3527   19.6804 N.am      1 UNK         0.0000 
     22 C22         1.3402   49.1752   19.1278 C.3       1 UNK         0.0000 
     23 C23         1.0081   49.3786   17.6316 C.3       1 UNK         0.0000 
     24 C24         0.0540   48.8416   19.9204 C.3       1 UNK         0.0000 
     25 C25         2.3043   47.9804   19.2557 C.3       1 UNK         0.0000 
     26 C26         0.5623   52.1828   23.7185 C.3       1 UNK         0.0000 
     27 C27         0.7562   50.6414   23.6471 C.3       1 UNK         0.0000 
     28 C28        -0.6519   50.0336   23.6532 C.3       1 UNK         0.0000 
     29 C29        -1.5548   51.1346   23.1024 C.3       1 UNK         0.0000 
     30 C30        -0.9713   52.4142   23.7029 C.3       1 UNK         0.0000 
     31 C31         3.9037   53.0373   30.4077 C.3       1 UNK         0.0000 
     32 H32         1.6877   51.2972   30.1133 H         1 UNK         0.0000 
     33 H33         0.3386   52.2938   29.5648 H         1 UNK         0.0000 
     34 H34         0.8705   50.9003   28.6542 H         1 UNK         0.0000 
     35 H35         5.6889   53.8268   20.8630 H         1 UNK         0.0000 
     36 H36         4.3559   54.8965   20.4529 H         1 UNK         0.0000 
     37 H37         5.3137   55.1873   21.9022 H         1 UNK         0.0000 
     38 H38         1.9035   53.4298   20.5578 H         1 UNK         0.0000 
     39 H39         2.9984   50.2109   19.9118 H         1 UNK         0.0000 
     40 H40         0.5699   48.4816   17.1926 H         1 UNK         0.0000 
     41 H41         1.9043   49.6166   17.0551 H         1 UNK         0.0000 
     42 H42         0.2987   50.1917   17.4773 H         1 UNK         0.0000 
     43 H43         0.2736   48.6703   20.9740 H         1 UNK         0.0000 
     44 H44        -0.6800   49.6455   19.8663 H         1 UNK         0.0000 
     45 H45        -0.4298   47.9423   19.5381 H         1 UNK         0.0000 
     46 H46         2.5919   47.8025   20.2932 H         1 UNK         0.0000 
     47 H47         1.8574   47.0601   18.8776 H         1 UNK         0.0000 
     48 H48         3.2229   48.1432   18.6893 H         1 UNK         0.0000 
     49 H49         0.8514   52.5192   22.7257 H         1 UNK         0.0000 
     50 H50         1.2625   50.3722   22.7191 H         1 UNK         0.0000 
     51 H51         1.3492   50.2279   24.4644 H         1 UNK         0.0000 
     52 H52        -0.7147   49.1116   23.0751 H         1 UNK         0.0000 
     53 H53        -0.9464   49.7928   24.6769 H         1 UNK         0.0000 
     54 H54        -1.4907   51.1636   22.0126 H         1 UNK         0.0000 
     55 H55        -2.6018   50.9867   23.3709 H         1 UNK         0.0000 
     56 H56        -1.3920   52.5665   24.6957 H         1 UNK         0.0000 
     57 H57        -1.2516   53.2967   23.1373 H         1 UNK         0.0000 
     58 H58         3.1509   52.7166   31.1266 H         1 UNK         0.0000 
     59 H59         4.7047   52.2989   30.4432 H         1 UNK         0.0000 
     60 H60         4.3044   53.9828   30.7699 H         1 UNK         0.0000 
@<TRIPOS>BOND
     1    1    2 1    
     2    1   32 1    
     3    1   33 1    
     4    1   34 1    
     5    2    6 1    
     6    2    3 2    
     7    3    4 1    
     8    3   31 1    
     9    4    5 1    
    10    5   11 ar   
    11    5    6 ar   
    12    6    7 ar   
    13    7    8 2    
    14    7    9 ar   
    15    9   10 ar   
    16    9   26 1    
    17   10   11 ar   
    18   10   12 1    
    19   12   13 1    
    20   13   14 1    
    21   13   15 1    
    22   13   16 1    
    23   15   35 1    
    24   15   36 1    
    25   15   37 1    
    26   16   17 2    
    27   16   18 am   BACKBONE|DICT|INTERRES
    28   18   19 am   BACKBONE|DICT|INTERRES
    29   18   38 1    
    30   19   20 2    
    31   19   21 am   BACKBONE|DICT|INTERRES
    32   21   22 1    
    33   21   39 1    
    34   22   23 1    
    35   22   24 1    
    36   22   25 1    
    37   23   40 1    
    38   23   41 1    
    39   23   42 1    
    40   24   43 1    
    41   24   44 1    
    42   24   45 1    
    43   25   46 1    
    44   25   47 1    
    45   25   48 1    
    46   26   30 1    
    47   26   27 1    
    48   26   49 1    
    49   27   28 1    
    50   27   50 1    
    51   27   51 1    
    52   28   29 1    
    53   28   52 1    
    54   28   53 1    
    55   29   30 1    
    56   29   54 1    
    57   29   55 1    
    58   30   56 1    
    59   30   57 1    
    60   31   58 1    
    61   31   59 1    
    62   31   60 1    
@<TRIPOS>SUBSTRUCTURE
     1 UNK         1 GROUP             0       ****    0 ROOT    
