ZINC35955602_4340
                    3D
 Schrodinger Suite 2024-2.
 66 69  0  0  1  0            999 V2000
   -6.5120   51.3798   25.0245 C   0  0  0  0  0  0
   -6.1470   50.3644   26.1055 C   0  0  0  0  0  0
   -7.0747   49.3531   26.3788 C   0  0  0  0  0  0
   -6.8018   48.3700   27.3279 C   0  0  0  0  0  0
   -5.5945   48.3879   28.0161 C   0  0  0  0  0  0
   -4.6613   49.3875   27.7595 C   0  0  0  0  0  0
   -4.9144   50.3910   26.8046 C   0  0  0  0  0  0
   -3.8789   51.4707   26.5745 C   0  0  0  0  0  0
   -4.1971   52.6348   26.3231 O   0  0  0  0  0  0
   -2.5977   51.0750   26.6713 N   0  0  0  0  0  0
   -1.4247   51.9242   26.4483 C   0  0  2  0  0  0
   -1.6344   52.8639   26.9648 H   0  0  0  0  0  0
   -1.1509   52.2507   24.9535 C   0  0  0  0  0  0
   -0.6856   51.0116   24.1588 C   0  0  0  0  0  0
    0.5436   50.3530   24.8182 C   0  0  0  0  0  0
    0.2832   50.0513   26.3110 C   0  0  0  0  0  0
   -0.1599   51.3084   27.1076 C   0  0  1  0  0  0
   -0.4451   50.9881   28.1150 H   0  0  0  0  0  0
    0.8945   52.3157   27.2733 N   0  0  0  0  0  0
    1.9023   52.2338   28.1557 C   0  0  0  0  0  0
    2.0264   51.2970   28.9421 O   0  0  0  0  0  0
    2.9284   53.3758   28.1444 C   0  0  1  0  0  0
    2.4176   54.2578   27.7555 H   0  0  0  0  0  0
    3.4224   53.6664   29.5756 C   0  0  0  0  0  0
    4.5021   54.7519   29.4967 C   0  0  0  0  0  0
    5.6568   54.4236   28.5217 C   0  0  0  0  0  0
    5.0567   54.0918   27.2148 N   0  0  0  0  0  0
    4.1172   52.9529   27.2548 C   0  0  0  0  0  0
    5.5888   54.6043   26.0656 C   0  0  0  0  0  0
    6.6114   55.2984   26.0711 O   0  0  0  0  0  0
    4.8887   54.3615   24.7401 C   0  0  0  0  0  0
    3.4878   54.4214   24.6348 C   0  0  0  0  0  0
    2.8431   54.1664   23.4248 C   0  0  0  0  0  0
    3.5915   53.8859   22.2861 C   0  0  0  0  0  0
    4.9810   53.8530   22.3613 C   0  0  0  0  0  0
    5.6329   54.0877   23.5754 C   0  0  0  0  0  0
    6.9846   54.0102   23.6056 F   0  0  0  0  0  0
   -5.6901   51.4992   24.3165 H   0  0  0  0  0  0
   -7.3832   51.0729   24.4446 H   0  0  0  0  0  0
   -6.7150   52.3538   25.4696 H   0  0  0  0  0  0
   -8.0162   49.3209   25.8514 H   0  0  0  0  0  0
   -7.5297   47.5953   27.5277 H   0  0  0  0  0  0
   -5.3766   47.6289   28.7539 H   0  0  0  0  0  0
   -3.7356   49.3660   28.3216 H   0  0  0  0  0  0
   -2.4176   50.0916   26.8299 H   0  0  0  0  0  0
   -2.0449   52.6732   24.4910 H   0  0  0  0  0  0
   -0.3937   53.0316   24.8807 H   0  0  0  0  0  0
   -0.4568   51.2885   23.1289 H   0  0  0  0  0  0
   -1.5012   50.2882   24.1039 H   0  0  0  0  0  0
    1.4041   51.0149   24.7156 H   0  0  0  0  0  0
    0.8053   49.4333   24.2921 H   0  0  0  0  0  0
    1.1658   49.6076   26.7709 H   0  0  0  0  0  0
   -0.4833   49.2792   26.3934 H   0  0  0  0  0  0
    0.9224   53.0502   26.5830 H   0  0  0  0  0  0
    2.6132   54.0406   30.2057 H   0  0  0  0  0  0
    3.9123   52.7965   30.0203 H   0  0  0  0  0  0
    4.0337   55.6950   29.2248 H   0  0  0  0  0  0
    4.9295   54.8966   30.4815 H   0  0  0  0  0  0
    6.3047   55.2966   28.4729 H   0  0  0  0  0  0
    6.2270   53.5653   28.8815 H   0  0  0  0  0  0
    4.6344   52.1014   27.6980 H   0  0  0  0  0  0
    3.7728   52.6421   26.2693 H   0  0  0  0  0  0
    2.8808   54.6537   25.4970 H   0  0  0  0  0  0
    1.7646   54.1988   23.3682 H   0  0  0  0  0  0
    3.0944   53.7019   21.3423 H   0  0  0  0  0  0
    5.5580   53.6368   21.4757 H   0  0  0  0  0  0
  1  2  1  0  0  0
  1 38  1  0  0  0
  1 39  1  0  0  0
  1 40  1  0  0  0
  2  7  2  0  0  0
  2  3  1  0  0  0
  3  4  2  0  0  0
  3 41  1  0  0  0
  4  5  1  0  0  0
  4 42  1  0  0  0
  5  6  2  0  0  0
  5 43  1  0  0  0
  6  7  1  0  0  0
  6 44  1  0  0  0
  7  8  1  0  0  0
  8  9  2  0  0  0
  8 10  1  0  0  0
 10 11  1  0  0  0
 10 45  1  0  0  0
 11 12  1  0  0  0
 11 17  1  0  0  0
 11 13  1  0  0  0
 13 14  1  0  0  0
 13 46  1  0  0  0
 13 47  1  0  0  0
 14 15  1  0  0  0
 14 48  1  0  0  0
 14 49  1  0  0  0
 15 16  1  0  0  0
 15 50  1  0  0  0
 15 51  1  0  0  0
 16 17  1  0  0  0
 16 52  1  0  0  0
 16 53  1  0  0  0
 17 18  1  0  0  0
 17 19  1  0  0  0
 19 20  1  0  0  0
 19 54  1  0  0  0
 20 21  2  0  0  0
 20 22  1  0  0  0
 22 23  1  0  0  0
 22 28  1  0  0  0
 22 24  1  0  0  0
 24 25  1  0  0  0
 24 55  1  0  0  0
 24 56  1  0  0  0
 25 26  1  0  0  0
 25 57  1  0  0  0
 25 58  1  0  0  0
 26 27  1  0  0  0
 26 59  1  0  0  0
 26 60  1  0  0  0
 27 28  1  0  0  0
 27 29  1  0  0  0
 28 61  1  0  0  0
 28 62  1  0  0  0
 29 30  2  0  0  0
 29 31  1  0  0  0
 31 36  2  0  0  0
 31 32  1  0  0  0
 32 33  2  0  0  0
 32 63  1  0  0  0
 33 34  1  0  0  0
 33 64  1  0  0  0
 34 35  2  0  0  0
 34 65  1  0  0  0
 35 36  1  0  0  0
 35 66  1  0  0  0
 36 37  1  0  0  0
M  END
> <i_i_glide_confnum>
279

> <i_i_glide_lignum>
4341

> <i_i_glide_posenum>
257

> <i_i_glide_rotatable_bonds>
8

> <i_m_Source_File_Index>
5528

> <b_m_subgroup_collapsed>
0

> <r_i_docking_score>
-6.16737

> <r_i_glide_ecoul>
-7.34144

> <r_i_glide_eff_state_penalty>
0

> <r_i_glide_einternal>
1.6512

> <r_i_glide_emodel>
-64.5381

> <r_i_glide_energy>
-47.3109

> <r_i_glide_erotb>
0.744393

> <r_i_glide_esite>
-0.0765895

> <r_i_glide_evdw>
-39.9695

> <r_i_glide_gscore>
-6.16737

> <r_i_glide_hbond>
-0.328856

> <r_i_glide_ligand_efficiency>
-0.181393

> <r_i_glide_ligand_efficiency_ln>
-1.36254

> <r_i_glide_ligand_efficiency_sa>
-0.587643

> <r_i_glide_lipo>
-1.90652

> <r_i_glide_metal>
0

> <r_i_glide_rewards>
-1.5001

> <s_i_glide_gridfile>
wee1_glide-grid

> <s_m_Source_File>
wee1_decoys_glide_SP.sdf

> <s_m_Source_Path>
/Users/zhangxujun/Desktop

> <s_m_entry_id>
5803

> <s_m_entry_name>
wee1_decoys_glide_SP.5528

> <s_m_subgroup_title>
wee1_decoys_glide_SP

> <s_m_subgroupid>
wee1_decoys_glide_SP


$$$$
