@<TRIPOS>MOLECULE
ZINC15947257_192
55   59    1
SMALL
USER_CHARGES


@<TRIPOS>ATOM
      1 C1         11.9730   50.6848   13.7201 C.3       1 UNK         0.0000 
      2 C2         12.4486   51.2668   15.0641 C.3       1 UNK         0.0000 
      3 N3         11.4411   52.3089   15.6198 N.4       1 UNK         0.0000 
      4 C4         12.0727   53.0701   16.8115 C.3       1 UNK         0.0000 
      5 C5         11.1937   54.3012   17.1512 C.3       1 UNK         0.0000 
      6 C6          9.7157   53.9171   17.2202 C.2       1 UNK         0.0000 
      7 C7          9.2596   52.6993   16.6886 C.2       1 UNK         0.0000 
      8 S8          7.5475   52.4956   16.8735 S.3       1 UNK         0.0000 
      9 C9          7.4388   53.9838   17.7220 C.2       1 UNK         0.0000 
     10 C10         8.6656   54.6475   17.8282 C.2       1 UNK         0.0000 
     11 C11         8.6188   55.9440   18.4979 C.2       1 UNK         0.0000 
     12 N12         7.6202   56.4081   19.1349 N.2       1 UNK         0.0000 
     13 C13         6.4019   55.5711   19.2079 C.3       1 UNK         0.0000 
     14 H14         5.5681   56.2394   18.9769 H         1 UNK         0.0000 
     15 N15         6.2514   54.4597   18.2413 N.pl3     1 UNK         0.0000 
     16 C16         6.1129   55.1157   20.6532 C.ar      1 UNK         0.0000 
     17 C17         4.8900   54.4972   20.9475 C.ar      1 UNK         0.0000 
     18 C18         4.5766   54.1395   22.2562 C.ar      1 UNK         0.0000 
     19 C19         5.4719   54.3903   23.2979 C.ar      1 UNK         0.0000 
     20 C20         6.7239   54.9325   22.9913 C.ar      1 UNK         0.0000 
     21 C21         7.0375   55.2989   21.6895 C.ar      1 UNK         0.0000 
     22 O22         5.0156   54.0964   24.5707 O.3       1 UNK         0.0000 
     23 C23         5.4993   54.6217   25.7473 C.2       1 UNK         0.0000 
     24 O24         6.5287   55.2960   25.8694 O.2       1 UNK         0.0000 
     25 C25         4.6344   54.2537   26.9146 C.ar      1 UNK         0.0000 
     26 C26         3.3578   53.6961   26.7370 C.ar      1 UNK         0.0000 
     27 C27         2.5722   53.3666   27.8364 C.ar      1 UNK         0.0000 
     28 C28         3.0505   53.6038   29.1208 C.ar      1 UNK         0.0000 
     29 C29         4.3048   54.1760   29.3111 C.ar      1 UNK         0.0000 
     30 C30         5.0976   54.4959   28.2146 C.ar      1 UNK         0.0000 
     31 Cl31        2.0779   53.1865   30.4816 Cl        1 UNK         0.0000 
     32 O32         9.6888   56.7957   18.4861 O.3       1 UNK         0.0000 
     33 C33        10.1358   51.6159   16.0831 C.3       1 UNK         0.0000 
     34 H34        12.7390   50.0388   13.2861 H         1 UNK         0.0000 
     35 H35        11.0794   50.0694   13.8193 H         1 UNK         0.0000 
     36 H36        11.7667   51.4629   12.9871 H         1 UNK         0.0000 
     37 H37        13.3868   51.8062   14.9196 H         1 UNK         0.0000 
     38 H38        12.5915   50.5054   15.8332 H         1 UNK         0.0000 
     39 H39        12.1549   52.3602   17.6379 H         1 UNK         0.0000 
     40 H40        13.0703   53.3970   16.5117 H         1 UNK         0.0000 
     41 H41        11.3152   55.0628   16.3794 H         1 UNK         0.0000 
     42 H42        11.5432   54.7442   18.0817 H         1 UNK         0.0000 
     43 H43         5.5204   53.8162   18.5068 H         1 UNK         0.0000 
     44 H44         4.1546   54.3302   20.1726 H         1 UNK         0.0000 
     45 H45         3.6107   53.7046   22.4676 H         1 UNK         0.0000 
     46 H46         7.4828   55.0989   23.7411 H         1 UNK         0.0000 
     47 H47         8.0097   55.7324   21.5106 H         1 UNK         0.0000 
     48 H48         2.9580   53.5034   25.7523 H         1 UNK         0.0000 
     49 H49         1.5975   52.9258   27.6909 H         1 UNK         0.0000 
     50 H50         4.6719   54.3718   30.3068 H         1 UNK         0.0000 
     51 H51         6.0728   54.9323   28.3902 H         1 UNK         0.0000 
     52 H52        10.4932   56.3039   18.6662 H         1 UNK         0.0000 
     53 H53        10.3953   50.8437   16.8106 H         1 UNK         0.0000 
     54 H54         9.6860   51.1636   15.1986 H         1 UNK         0.0000 
     55 H55        11.2496   52.9688   14.8779 H         1 UNK         0.0000 
@<TRIPOS>BOND
     1    1    2 1    
     2    1   34 1    
     3    1   35 1    
     4    1   36 1    
     5    2    3 1    
     6    2   37 1    
     7    2   38 1    
     8    3   33 1    
     9    3    4 1    
    10    3   55 1    
    11    4    5 1    
    12    4   39 1    
    13    4   40 1    
    14    5    6 1    
    15    5   41 1    
    16    5   42 1    
    17    6   10 1    
    18    6    7 2    
    19    7    8 1    
    20    7   33 1    
    21    8    9 1    
    22    9   15 1    
    23    9   10 2    
    24   10   11 1    
    25   11   12 2    
    26   11   32 1    
    27   12   13 1    
    28   13   14 1    
    29   13   15 1    
    30   13   16 1    
    31   15   43 1    
    32   16   21 ar   
    33   16   17 ar   
    34   17   18 ar   
    35   17   44 1    
    36   18   19 ar   
    37   18   45 1    
    38   19   20 ar   
    39   19   22 1    
    40   20   21 ar   
    41   20   46 1    
    42   21   47 1    
    43   22   23 1    
    44   23   24 2    
    45   23   25 1    
    46   25   30 ar   
    47   25   26 ar   
    48   26   27 ar   
    49   26   48 1    
    50   27   28 ar   
    51   27   49 1    
    52   28   29 ar   
    53   28   31 1    
    54   29   30 ar   
    55   29   50 1    
    56   30   51 1    
    57   32   52 1    
    58   33   53 1    
    59   33   54 1    
@<TRIPOS>SUBSTRUCTURE
     1 UNK         1 GROUP             0       ****    0 ROOT    
