@<TRIPOS>MOLECULE
ZINC39633672_2154
63   66    1
SMALL
USER_CHARGES


@<TRIPOS>ATOM
      1 C1          7.2038   55.4760   22.5950 C.3       1 UNK         0.0000 
      2 O2          6.7377   54.1823   22.9560 O.3       1 UNK         0.0000 
      3 C3          5.5294   54.2282   23.5939 C.2       1 UNK         0.0000 
      4 C4          4.2927   53.9777   22.9583 C.2       1 UNK         0.0000 
      5 C5          3.2304   54.1688   23.8486 C.2       1 UNK         0.0000 
      6 S6          3.7529   54.4948   25.4681 S.3       1 UNK         0.0000 
      7 C7          5.4023   54.4960   24.9556 C.2       1 UNK         0.0000 
      8 Cl8         6.6510   54.8046   26.0975 Cl        1 UNK         0.0000 
      9 C9          4.1709   53.6978   21.5344 C.2       1 UNK         0.0000 
     10 O10         4.8349   54.3556   20.7291 O.2       1 UNK         0.0000 
     11 N11         3.3424   52.6990   21.1388 N.am      1 UNK         0.0000 
     12 C12         2.4962   51.8727   21.9970 C.3       1 UNK         0.0000 
     13 C13         2.0497   50.7129   21.0813 C.3       1 UNK         0.0000 
     14 H14         2.8075   49.9313   21.1905 H         1 UNK         0.0000 
     15 C15         2.0303   51.3381   19.6574 C.3       1 UNK         0.0000 
     16 C16         3.2614   52.2781   19.7392 C.3       1 UNK         0.0000 
     17 C17         0.7296   52.1436   19.3482 C.3       1 UNK         0.0000 
     18 C18         0.8048   52.8850   17.9947 C.3       1 UNK         0.0000 
     19 N19         1.1092   51.8537   16.8818 N.4       1 UNK         0.0000 
     20 C20         2.3037   50.9152   17.1579 C.3       1 UNK         0.0000 
     21 C21         2.1204   50.2691   18.5434 C.3       1 UNK         0.0000 
     22 C22         0.7131   50.0949   21.5688 C.2       1 UNK         0.0000 
     23 O23         0.3195   49.0520   21.0467 O.2       1 UNK         0.0000 
     24 N24         0.0469   50.6819   22.5794 N.am      1 UNK         0.0000 
     25 C25        -1.1743   50.2070   23.2274 C.3       1 UNK         0.0000 
     26 C26        -0.9316   48.9550   24.1038 C.3       1 UNK         0.0000 
     27 C27         0.1587   49.0532   25.1887 C.3       1 UNK         0.0000 
     28 C28        -0.0178   50.1802   26.2248 C.3       1 UNK         0.0000 
     29 C29         0.2099   51.5983   25.6747 C.3       1 UNK         0.0000 
     30 C30        -0.9759   52.2498   24.9289 C.3       1 UNK         0.0000 
     31 C31        -1.8527   51.3508   24.0205 C.3       1 UNK         0.0000 
     32 H32         8.1537   55.3869   22.0741 H         1 UNK         0.0000 
     33 H33         6.5138   55.9973   21.9300 H         1 UNK         0.0000 
     34 H34         7.3736   56.0959   23.4759 H         1 UNK         0.0000 
     35 H35         2.1728   54.1261   23.6408 H         1 UNK         0.0000 
     36 H36         1.6472   52.5132   22.2405 H         1 UNK         0.0000 
     37 H37         3.0017   51.4969   22.8814 H         1 UNK         0.0000 
     38 H38         4.1545   51.6867   19.5420 H         1 UNK         0.0000 
     39 H39         3.2741   53.0841   19.0073 H         1 UNK         0.0000 
     40 H40        -0.1588   51.5091   19.3841 H         1 UNK         0.0000 
     41 H41         0.5785   52.8957   20.1213 H         1 UNK         0.0000 
     42 H42        -0.1436   53.3543   17.7303 H         1 UNK         0.0000 
     43 H43         1.5821   53.6475   17.9483 H         1 UNK         0.0000 
     44 H44         0.2901   51.2725   16.7569 H         1 UNK         0.0000 
     45 H45         2.3025   50.1747   16.3557 H         1 UNK         0.0000 
     46 H46         3.2183   51.5081   17.0832 H         1 UNK         0.0000 
     47 H47         2.9976   49.6432   18.7233 H         1 UNK         0.0000 
     48 H48         1.2724   49.5851   18.5661 H         1 UNK         0.0000 
     49 H49         0.4192   51.5375   22.9622 H         1 UNK         0.0000 
     50 H50        -1.8884   49.9122   22.4534 H         1 UNK         0.0000 
     51 H51        -0.6887   48.1153   23.4479 H         1 UNK         0.0000 
     52 H52        -1.8737   48.6548   24.5675 H         1 UNK         0.0000 
     53 H53         1.1341   49.1459   24.7124 H         1 UNK         0.0000 
     54 H54         0.1880   48.0978   25.7117 H         1 UNK         0.0000 
     55 H55         0.7109   50.0106   27.0197 H         1 UNK         0.0000 
     56 H56        -0.9936   50.1002   26.7082 H         1 UNK         0.0000 
     57 H57         1.0905   51.5926   25.0304 H         1 UNK         0.0000 
     58 H58         0.4834   52.2545   26.5035 H         1 UNK         0.0000 
     59 H59        -0.5849   53.0771   24.3365 H         1 UNK         0.0000 
     60 H60        -1.6318   52.7203   25.6651 H         1 UNK         0.0000 
     61 H61        -2.6744   50.9327   24.6044 H         1 UNK         0.0000 
     62 H62        -2.3582   52.0044   23.3071 H         1 UNK         0.0000 
     63 H63         1.2505   52.3263   15.9993 H         1 UNK         0.0000 
@<TRIPOS>BOND
     1    1    2 1    
     2    1   32 1    
     3    1   33 1    
     4    1   34 1    
     5    2    3 1    
     6    3    7 2    
     7    3    4 1    
     8    4    5 2    
     9    4    9 1    
    10    5    6 1    
    11    5   35 1    
    12    6    7 1    
    13    7    8 1    
    14    9   10 2    
    15    9   11 am   BACKBONE|DICT|INTERRES
    16   11   16 1    
    17   11   12 1    
    18   12   13 1    
    19   12   36 1    
    20   12   37 1    
    21   13   14 1    
    22   13   15 1    
    23   13   22 1    
    24   15   21 1    
    25   15   16 1    
    26   15   17 1    
    27   16   38 1    
    28   16   39 1    
    29   17   18 1    
    30   17   40 1    
    31   17   41 1    
    32   18   19 1    
    33   18   42 1    
    34   18   43 1    
    35   19   20 1    
    36   19   44 1    
    37   19   63 1    
    38   20   21 1    
    39   20   45 1    
    40   20   46 1    
    41   21   47 1    
    42   21   48 1    
    43   22   23 2    
    44   22   24 am   BACKBONE|DICT|INTERRES
    45   24   25 1    
    46   24   49 1    
    47   25   31 1    
    48   25   26 1    
    49   25   50 1    
    50   26   27 1    
    51   26   51 1    
    52   26   52 1    
    53   27   28 1    
    54   27   53 1    
    55   27   54 1    
    56   28   29 1    
    57   28   55 1    
    58   28   56 1    
    59   29   30 1    
    60   29   57 1    
    61   29   58 1    
    62   30   31 1    
    63   30   59 1    
    64   30   60 1    
    65   31   61 1    
    66   31   62 1    
@<TRIPOS>SUBSTRUCTURE
     1 UNK         1 GROUP             0       ****    0 ROOT    
