@<TRIPOS>MOLECULE
ZINC21657394_1529
47   50    1
SMALL
USER_CHARGES


@<TRIPOS>ATOM
      1 C1         -1.9737   50.0028   25.0396 C.3       1 UNK         0.0000 
      2 C2         -1.2260   51.1017   25.7835 C.2       1 UNK         0.0000 
      3 O3         -0.8507   52.0993   25.1667 O.2       1 UNK         0.0000 
      4 N4         -1.0387   50.8963   27.1010 N.am      1 UNK         0.0000 
      5 C5         -0.3305   51.7045   27.9957 C.ar      1 UNK         0.0000 
      6 C6         -0.7925   51.7531   29.3080 C.ar      1 UNK         0.0000 
      7 C7         -0.0993   52.4893   30.2608 C.ar      1 UNK         0.0000 
      8 C8          1.0800   53.1435   29.9168 C.ar      1 UNK         0.0000 
      9 C9          1.6026   53.0753   28.6072 C.ar      1 UNK         0.0000 
     10 C10         0.8558   52.3663   27.6500 C.ar      1 UNK         0.0000 
     11 N11         2.8813   53.6040   28.2389 N.am      1 UNK         0.0000 
     12 C12         3.5227   53.2987   26.9597 C.3       1 UNK         0.0000 
     13 C13         4.9946   53.6936   27.0839 C.3       1 UNK         0.0000 
     14 H14         5.5928   52.7837   27.1585 H         1 UNK         0.0000 
     15 C15         5.0683   54.4738   28.3702 C.3       1 UNK         0.0000 
     16 C16         3.6867   54.3775   29.0128 C.2       1 UNK         0.0000 
     17 O17         3.4102   54.8959   30.0805 O.2       1 UNK         0.0000 
     18 C18         5.6143   54.3993   25.8478 C.2       1 UNK         0.0000 
     19 O19         6.6004   55.1250   25.9968 O.2       1 UNK         0.0000 
     20 N20         5.0648   54.0966   24.6526 N.am      1 UNK         0.0000 
     21 C21         5.4715   54.4303   23.3500 C.ar      1 UNK         0.0000 
     22 C22         4.5629   54.0965   22.3243 C.ar      1 UNK         0.0000 
     23 C23         4.8497   54.3763   20.9811 C.ar      1 UNK         0.0000 
     24 C24         6.0675   54.9808   20.6984 C.ar      1 UNK         0.0000 
     25 C25         6.9607   55.2960   21.6826 C.ar      1 UNK         0.0000 
     26 C26         6.7035   55.0379   23.0246 C.ar      1 UNK         0.0000 
     27 O27         8.0458   55.8940   21.1256 O.3       1 UNK         0.0000 
     28 C28         7.9107   55.6992   19.7438 C.3       1 UNK         0.0000 
     29 O29         6.5709   55.3665   19.4955 O.3       1 UNK         0.0000 
     30 H30        -2.0583   49.0959   25.6407 H         1 UNK         0.0000 
     31 H31        -1.4522   49.7518   24.1157 H         1 UNK         0.0000 
     32 H32        -2.9778   50.3420   24.7866 H         1 UNK         0.0000 
     33 H33        -1.4104   50.0365   27.5028 H         1 UNK         0.0000 
     34 H34        -1.6839   51.2135   29.5999 H         1 UNK         0.0000 
     35 H35        -0.4640   52.5210   31.2780 H         1 UNK         0.0000 
     36 H36         1.5786   53.6519   30.7223 H         1 UNK         0.0000 
     37 H37         1.2121   52.2759   26.6358 H         1 UNK         0.0000 
     38 H38         3.4140   52.2279   26.8487 H         1 UNK         0.0000 
     39 H39         2.9861   53.8520   26.1865 H         1 UNK         0.0000 
     40 H40         5.4176   55.4957   28.2587 H         1 UNK         0.0000 
     41 H41         5.7734   53.9990   29.0529 H         1 UNK         0.0000 
     42 H42         4.2400   53.5183   24.6879 H         1 UNK         0.0000 
     43 H43         3.6177   53.6290   22.5595 H         1 UNK         0.0000 
     44 H44         4.1409   54.1317   20.2018 H         1 UNK         0.0000 
     45 H45         7.4367   55.3031   23.7691 H         1 UNK         0.0000 
     46 H46         8.5547   54.8729   19.4337 H         1 UNK         0.0000 
     47 H47         8.2014   56.5930   19.1908 H         1 UNK         0.0000 
@<TRIPOS>BOND
     1    1    2 1    
     2    1   30 1    
     3    1   31 1    
     4    1   32 1    
     5    2    3 2    
     6    2    4 am   BACKBONE|DICT|INTERRES
     7    4    5 1    
     8    4   33 1    
     9    5   10 ar   
    10    5    6 ar   
    11    6    7 ar   
    12    6   34 1    
    13    7    8 ar   
    14    7   35 1    
    15    8    9 ar   
    16    8   36 1    
    17    9   10 ar   
    18    9   11 1    
    19   10   37 1    
    20   11   16 am   BACKBONE|DICT|INTERRES
    21   11   12 1    
    22   12   13 1    
    23   12   38 1    
    24   12   39 1    
    25   13   14 1    
    26   13   15 1    
    27   13   18 1    
    28   15   16 1    
    29   15   40 1    
    30   15   41 1    
    31   16   17 2    
    32   18   19 2    
    33   18   20 am   BACKBONE|DICT|INTERRES
    34   20   21 1    
    35   20   42 1    
    36   21   26 ar   
    37   21   22 ar   
    38   22   23 ar   
    39   22   43 1    
    40   23   24 ar   
    41   23   44 1    
    42   24   29 1    
    43   24   25 ar   
    44   25   26 ar   
    45   25   27 1    
    46   26   45 1    
    47   27   28 1    
    48   28   29 1    
    49   28   46 1    
    50   28   47 1    
@<TRIPOS>SUBSTRUCTURE
     1 UNK         1 GROUP             0       ****    0 ROOT    
