@<TRIPOS>MOLECULE
ZINC13075499_4825
67   70    1
SMALL
USER_CHARGES


@<TRIPOS>ATOM
      1 C1         -0.6790   51.9631   29.3322 C.3       1 UNK         0.0000 
      2 C2          0.4185   52.5333   28.4394 C.ar      1 UNK         0.0000 
      3 C3          1.4418   53.2622   29.0556 C.ar      1 UNK         0.0000 
      4 C4          2.4830   53.8027   28.3049 C.ar      1 UNK         0.0000 
      5 C5          2.5110   53.6164   26.9267 C.ar      1 UNK         0.0000 
      6 C6          1.4957   52.8959   26.3010 C.ar      1 UNK         0.0000 
      7 C7          0.4299   52.3510   27.0371 C.ar      1 UNK         0.0000 
      8 C8         -0.6887   51.5601   26.3251 C.3       1 UNK         0.0000 
      9 H9         -1.0367   50.8044   27.0320 H         1 UNK         0.0000 
     10 C10        -1.9081   52.4516   25.9915 C.3       1 UNK         0.0000 
     11 N11        -0.2769   50.6988   25.2023 N.am      1 UNK         0.0000 
     12 C12        -0.1156   51.0301   23.9066 C.2       1 UNK         0.0000 
     13 O13        -0.2288   52.1749   23.4698 O.2       1 UNK         0.0000 
     14 C14         0.1540   49.8833   22.9326 C.3       1 UNK         0.0000 
     15 S15         1.9048   49.6954   22.4872 S.3       1 UNK         0.0000 
     16 C16         1.9552   50.7457   21.0818 C.ar      1 UNK         0.0000 
     17 N17         2.3831   51.9797   21.1380 N.2       1 UNK         0.0000 
     18 N18         2.3483   52.4837   19.8478 N.2       1 UNK         0.0000 
     19 C19         1.8992   51.5382   19.0570 C.ar      1 UNK         0.0000 
     20 N20         1.6241   50.3976   19.7859 N.pl3     1 UNK         0.0000 
     21 C21         1.1323   49.1697   19.3082 C.ar      1 UNK         0.0000 
     22 C22        -0.2201   48.8524   19.4550 C.ar      1 UNK         0.0000 
     23 C23        -0.6991   47.6412   18.9607 C.ar      1 UNK         0.0000 
     24 C24         0.1696   46.7653   18.3147 C.ar      1 UNK         0.0000 
     25 C25         1.5131   47.0915   18.1524 C.ar      1 UNK         0.0000 
     26 C26         2.0006   48.2926   18.6573 C.ar      1 UNK         0.0000 
     27 F27        -0.2969   45.5909   17.8349 F         1 UNK         0.0000 
     28 C28         1.7228   51.6589   17.5384 C.3       1 UNK         0.0000 
     29 H29         2.1622   50.7997   17.0218 H         1 UNK         0.0000 
     30 C30         0.2259   51.7841   17.1783 C.3       1 UNK         0.0000 
     31 C31         2.1604   53.3508   15.5856 C.3       1 UNK         0.0000 
     32 C32         2.9967   54.5895   15.2162 C.3       1 UNK         0.0000 
     33 C33         4.5070   54.3262   15.3194 C.3       1 UNK         0.0000 
     34 C34         4.8821   53.7881   16.7078 C.3       1 UNK         0.0000 
     35 C35         4.0627   52.5414   17.0735 C.3       1 UNK         0.0000 
     36 H36        -1.6679   52.0917   28.8968 H         1 UNK         0.0000 
     37 H37        -0.5225   50.8965   29.4835 H         1 UNK         0.0000 
     38 H38        -0.7105   52.4488   30.3085 H         1 UNK         0.0000 
     39 H39         1.4337   53.4088   30.1259 H         1 UNK         0.0000 
     40 H40         3.2697   54.3612   28.7900 H         1 UNK         0.0000 
     41 H41         3.3191   54.0272   26.3396 H         1 UNK         0.0000 
     42 H42         1.5456   52.7780   25.2304 H         1 UNK         0.0000 
     43 H43        -2.3508   52.8889   26.8828 H         1 UNK         0.0000 
     44 H44        -1.6395   53.2755   25.3310 H         1 UNK         0.0000 
     45 H45        -2.6896   51.8755   25.4954 H         1 UNK         0.0000 
     46 H46        -0.0442   49.7524   25.4669 H         1 UNK         0.0000 
     47 H47        -0.1827   48.9436   23.3714 H         1 UNK         0.0000 
     48 H48        -0.4520   50.0383   22.0438 H         1 UNK         0.0000 
     49 H49        -0.9032   49.5407   19.9274 H         1 UNK         0.0000 
     50 H50        -1.7425   47.3859   19.0653 H         1 UNK         0.0000 
     51 H51         2.1788   46.4188   17.6341 H         1 UNK         0.0000 
     52 H52         3.0467   48.5432   18.5242 H         1 UNK         0.0000 
     53 H53        -0.3545   50.9740   17.6175 H         1 UNK         0.0000 
     54 H54        -0.1960   52.7207   17.5445 H         1 UNK         0.0000 
     55 H55         0.0547   51.7232   16.1040 H         1 UNK         0.0000 
     56 H56         2.3087   52.5084   14.9066 H         1 UNK         0.0000 
     57 H57         1.1111   53.6430   15.6024 H         1 UNK         0.0000 
     58 H58         2.7478   54.9103   14.2035 H         1 UNK         0.0000 
     59 H59         2.7220   55.4209   15.8686 H         1 UNK         0.0000 
     60 H60         5.0624   55.2420   15.1098 H         1 UNK         0.0000 
     61 H61         4.8092   53.6083   14.5546 H         1 UNK         0.0000 
     62 H62         4.7295   54.5601   17.4634 H         1 UNK         0.0000 
     63 H63         5.9440   53.5421   16.7366 H         1 UNK         0.0000 
     64 H64         4.3006   52.2468   18.0957 H         1 UNK         0.0000 
     65 H65         4.2473   51.6989   16.4036 H         1 UNK         0.0000 
     66 N66         2.5475   52.8794   17.0128 N.4       1 UNK         0.0000 
     67 H67         2.3752   53.6403   17.6563 H         1 UNK         0.0000 
@<TRIPOS>BOND
     1    1    2 1    
     2    1   36 1    
     3    1   37 1    
     4    1   38 1    
     5    2    7 ar   
     6    2    3 ar   
     7    3    4 ar   
     8    3   39 1    
     9    4    5 ar   
    10    4   40 1    
    11    5    6 ar   
    12    5   41 1    
    13    6    7 ar   
    14    6   42 1    
    15    7    8 1    
    16    8    9 1    
    17    8   10 1    
    18    8   11 1    
    19   10   43 1    
    20   10   44 1    
    21   10   45 1    
    22   11   12 am   BACKBONE|DICT|INTERRES
    23   11   46 1    
    24   12   13 2    
    25   12   14 1    
    26   14   15 1    
    27   14   47 1    
    28   14   48 1    
    29   15   16 1    
    30   16   20 ar   
    31   16   17 ar   
    32   17   18 ar   
    33   18   19 ar   
    34   19   20 ar   
    35   19   28 1    
    36   20   21 1    
    37   21   26 ar   
    38   21   22 ar   
    39   22   23 ar   
    40   22   49 1    
    41   23   24 ar   
    42   23   50 1    
    43   24   25 ar   
    44   24   27 1    
    45   25   26 ar   
    46   25   51 1    
    47   26   52 1    
    48   28   29 1    
    49   28   30 1    
    50   28   66 1    
    51   30   53 1    
    52   30   54 1    
    53   30   55 1    
    54   31   32 1    
    55   31   56 1    
    56   31   57 1    
    57   31   66 1    
    58   32   33 1    
    59   32   58 1    
    60   32   59 1    
    61   33   34 1    
    62   33   60 1    
    63   33   61 1    
    64   34   35 1    
    65   34   62 1    
    66   34   63 1    
    67   35   64 1    
    68   35   65 1    
    69   35   66 1    
    70   66   67 1    
@<TRIPOS>SUBSTRUCTURE
     1 UNK         1 GROUP             0       ****    0 ROOT    
