@<TRIPOS>MOLECULE
ZINC39466948_1195
62   66    1
SMALL
USER_CHARGES


@<TRIPOS>ATOM
      1 C1         -0.7000   48.8159   25.6745 C.3       1 UNK         0.0000 
      2 S2          0.3040   50.0974   26.4800 S.3       1 UNK         0.0000 
      3 C3          0.2678   51.5247   25.4126 C.2       1 UNK         0.0000 
      4 C4         -0.3458   51.4822   24.2068 C.2       1 UNK         0.0000 
      5 C5         -0.2129   52.5934   23.1641 C.3       1 UNK         0.0000 
      6 H6         -1.0050   53.3052   23.4008 H         1 UNK         0.0000 
      7 C7         -0.4590   52.0943   21.7292 C.3       1 UNK         0.0000 
      8 N8          0.6547   51.1203   21.3232 N.4       1 UNK         0.0000 
      9 C9          2.0446   51.8038   21.3440 C.3       1 UNK         0.0000 
     10 H10         1.9758   52.5969   20.5954 H         1 UNK         0.0000 
     11 C11         2.3155   52.3882   22.7507 C.3       1 UNK         0.0000 
     12 C12         1.1880   53.2925   23.3168 C.3       1 UNK         0.0000 
     13 H13         1.1455   54.2232   22.7470 H         1 UNK         0.0000 
     14 C14         1.4311   53.5805   24.8067 C.2       1 UNK         0.0000 
     15 C15         1.0216   52.7307   25.7773 C.2       1 UNK         0.0000 
     16 S16         1.2580   53.1873   27.5374 S.3       1 UNK         0.0000 
     17 O17         1.4134   54.6386   27.6854 O.2       1 UNK         0.0000 
     18 O18         0.2965   52.4690   28.3801 O.2       1 UNK         0.0000 
     19 O19         2.7507   52.4821   27.7300 O.3       1 UNK         0.0000 
     20 C20         3.8460   53.2979   27.6828 C.ar      1 UNK         0.0000 
     21 C21         4.4131   53.6887   26.4671 C.ar      1 UNK         0.0000 
     22 C22         5.5519   54.4830   26.4550 C.ar      1 UNK         0.0000 
     23 C23         6.0964   54.8927   27.6663 C.ar      1 UNK         0.0000 
     24 C24         5.5049   54.5369   28.8767 C.ar      1 UNK         0.0000 
     25 C25         4.3846   53.7240   28.8871 C.ar      1 UNK         0.0000 
     26 C26         3.1059   50.7630   20.9212 C.3       1 UNK         0.0000 
     27 O27         2.8230   50.2805   19.6211 O.3       1 UNK         0.0000 
     28 P28         1.4672   49.4251   19.3355 P.3       1 UNK         0.0000 
     29 O29         1.5193   48.0447   19.8862 O.2       1 UNK         0.0000 
     30 N30         0.3421   50.4367   20.0820 N.pl3     1 UNK         0.0000 
     31 C31         1.1215   49.5999   17.5394 C.3       1 UNK         0.0000 
     32 C32         1.0860   51.0535   17.0879 C.ar      1 UNK         0.0000 
     33 C33        -0.1338   51.6706   16.7980 C.ar      1 UNK         0.0000 
     34 C34        -0.1623   53.0126   16.4269 C.ar      1 UNK         0.0000 
     35 C35         1.0291   53.7330   16.3476 C.ar      1 UNK         0.0000 
     36 C36         2.2492   53.1212   16.6271 C.ar      1 UNK         0.0000 
     37 C37         2.2777   51.7781   16.9928 C.ar      1 UNK         0.0000 
     38 H38        -0.2673   48.5257   24.7179 H         1 UNK         0.0000 
     39 H39        -0.7428   47.9309   26.3049 H         1 UNK         0.0000 
     40 H40        -1.7226   49.1628   25.5318 H         1 UNK         0.0000 
     41 H41        -0.8961   50.6004   23.9230 H         1 UNK         0.0000 
     42 H42        -1.3940   51.5397   21.6436 H         1 UNK         0.0000 
     43 H43        -0.4462   52.8852   20.9852 H         1 UNK         0.0000 
     44 H44         2.4505   51.5439   23.4304 H         1 UNK         0.0000 
     45 H45         3.2542   52.9463   22.7362 H         1 UNK         0.0000 
     46 H46         1.9466   54.4890   25.0837 H         1 UNK         0.0000 
     47 H47         4.0008   53.3338   25.5368 H         1 UNK         0.0000 
     48 H48         6.0108   54.7667   25.5190 H         1 UNK         0.0000 
     49 H49         6.9781   55.5145   27.6774 H         1 UNK         0.0000 
     50 H50         5.9190   54.8975   29.8031 H         1 UNK         0.0000 
     51 H51         3.9314   53.4258   29.8201 H         1 UNK         0.0000 
     52 H52         4.1000   51.2126   20.9057 H         1 UNK         0.0000 
     53 H53         3.1432   49.9223   21.6186 H         1 UNK         0.0000 
     54 H54        -0.3599   50.8575   19.4754 H         1 UNK         0.0000 
     55 H55         1.9043   49.0787   16.9877 H         1 UNK         0.0000 
     56 H56         0.1900   49.0914   17.2942 H         1 UNK         0.0000 
     57 H57        -1.0576   51.1140   16.8620 H         1 UNK         0.0000 
     58 H58        -1.1018   53.4939   16.1982 H         1 UNK         0.0000 
     59 H59         1.0085   54.7742   16.0604 H         1 UNK         0.0000 
     60 H60         3.1701   53.6814   16.5610 H         1 UNK         0.0000 
     61 H61         3.2226   51.3000   17.2153 H         1 UNK         0.0000 
     62 H62         0.6707   50.3867   22.0175 H         1 UNK         0.0000 
@<TRIPOS>BOND
     1    1    2 1    
     2    1   38 1    
     3    1   39 1    
     4    1   40 1    
     5    2    3 1    
     6    3   15 1    
     7    3    4 2    
     8    4    5 1    
     9    4   41 1    
    10    5    6 1    
    11    5   12 1    
    12    5    7 1    
    13    7    8 1    
    14    7   42 1    
    15    7   43 1    
    16    8   30 1    
    17    8    9 1    
    18    8   62 1    
    19    9   10 1    
    20    9   11 1    
    21    9   26 1    
    22   11   12 1    
    23   11   44 1    
    24   11   45 1    
    25   12   13 1    
    26   12   14 1    
    27   14   15 2    
    28   14   46 1    
    29   15   16 1    
    30   16   17 2    
    31   16   18 2    
    32   16   19 1    
    33   19   20 1    
    34   20   25 ar   
    35   20   21 ar   
    36   21   22 ar   
    37   21   47 1    
    38   22   23 ar   
    39   22   48 1    
    40   23   24 ar   
    41   23   49 1    
    42   24   25 ar   
    43   24   50 1    
    44   25   51 1    
    45   26   27 1    
    46   26   52 1    
    47   26   53 1    
    48   27   28 1    
    49   28   29 2    
    50   28   30 1    
    51   28   31 1    
    52   30   54 1    
    53   31   32 1    
    54   31   55 1    
    55   31   56 1    
    56   32   37 ar   
    57   32   33 ar   
    58   33   34 ar   
    59   33   57 1    
    60   34   35 ar   
    61   34   58 1    
    62   35   36 ar   
    63   35   59 1    
    64   36   37 ar   
    65   36   60 1    
    66   37   61 1    
@<TRIPOS>SUBSTRUCTURE
     1 UNK         1 GROUP             0       ****    0 ROOT    
