ZINC62824351_3852
                    3D
 Schrodinger Suite 2024-2.
 38 40  0  0  1  0            999 V2000
   -0.2767   51.9775   28.3132 C   0  0  0  0  0  0
    0.8332   52.6761   29.1183 C   0  0  1  0  0  0
    2.1693   51.9230   29.0014 C   0  0  0  0  0  0
    3.2518   52.5598   29.8967 C   0  0  0  0  0  0
    3.5087   54.0478   29.5363 C   0  0  2  0  0  0
    2.1655   54.8430   29.4681 C   0  0  0  0  0  0
    1.0516   54.1303   28.6579 C   0  0  0  0  0  0
    4.3280   54.1473   28.2535 C   0  0  0  0  0  0
    3.7814   54.1341   27.0546 N   0  0  0  0  0  0
    4.8170   54.1791   26.2663 C   0  0  0  0  0  0
    5.9930   54.2081   26.9458 O   0  0  0  0  0  0
    5.6416   54.1929   28.2919 N   0  0  0  0  0  0
    4.8171   54.1480   24.7653 C   0  0  0  0  0  0
    3.6468   53.7251   24.1190 C   0  0  0  0  0  0
    3.5934   53.6245   22.7313 C   0  0  0  0  0  0
    4.7045   53.9694   21.9637 C   0  0  0  0  0  0
    5.8725   54.4081   22.5891 C   0  0  0  0  0  0
    5.9319   54.4966   23.9812 C   0  0  0  0  0  0
    7.1044   54.9457   24.5820 N   0  0  0  0  0  0
    1.8546   52.8962   21.8280 I   0  0  0  0  0  0
   -0.0360   51.9338   27.2506 H   0  0  0  0  0  0
   -1.2276   52.4963   28.4163 H   0  0  0  0  0  0
   -0.4315   50.9533   28.6570 H   0  0  0  0  0  0
    0.5424   52.6896   30.1710 H   0  0  0  0  0  0
    2.0147   50.8873   29.2820 H   0  0  0  0  0  0
    2.4935   51.8718   27.9610 H   0  0  0  0  0  0
    2.8212   52.5279   30.8995 H   0  0  0  0  0  0
    4.1768   51.9827   29.9481 H   0  0  0  0  0  0
    4.0845   54.4741   30.3595 H   0  0  0  0  0  0
    1.7518   54.8579   30.4772 H   0  0  0  0  0  0
    2.3145   55.8878   29.1898 H   0  0  0  0  0  0
    1.2803   54.1482   27.5931 H   0  0  0  0  0  0
    0.1156   54.6758   28.7292 H   0  0  0  0  0  0
    2.7769   53.4399   24.6941 H   0  0  0  0  0  0
    4.6613   53.8905   20.8868 H   0  0  0  0  0  0
    6.7289   54.6794   21.9897 H   0  0  0  0  0  0
    7.1043   54.8489   25.5884 H   0  0  0  0  0  0
    7.9964   54.9177   24.0812 H   0  0  0  0  0  0
  1  2  1  0  0  0
  1 21  1  0  0  0
  1 22  1  0  0  0
  1 23  1  0  0  0
  2  7  1  0  0  0
  2  3  1  0  0  0
  2 24  1  0  0  0
  3  4  1  0  0  0
  3 25  1  0  0  0
  3 26  1  0  0  0
  4  5  1  0  0  0
  4 27  1  0  0  0
  4 28  1  0  0  0
  5  6  1  0  0  0
  5  8  1  0  0  0
  5 29  1  0  0  0
  6  7  1  0  0  0
  6 30  1  0  0  0
  6 31  1  0  0  0
  7 32  1  0  0  0
  7 33  1  0  0  0
  8 12  2  0  0  0
  8  9  1  0  0  0
  9 10  2  0  0  0
 10 11  1  0  0  0
 10 13  1  0  0  0
 11 12  1  0  0  0
 13 18  2  0  0  0
 13 14  1  0  0  0
 14 15  2  0  0  0
 14 34  1  0  0  0
 15 16  1  0  0  0
 15 20  1  0  0  0
 16 17  2  0  0  0
 16 35  1  0  0  0
 17 18  1  0  0  0
 17 36  1  0  0  0
 18 19  1  0  0  0
 19 37  1  0  0  0
 19 38  1  0  0  0
M  END
> <i_i_glide_confnum>
4

> <i_i_glide_lignum>
3853

> <i_i_glide_posenum>
384

> <i_i_glide_rotatable_bonds>
2

> <i_m_Source_File_Index>
297

> <b_m_subgroup_collapsed>
0

> <r_i_docking_score>
-5.88534

> <r_i_glide_ecoul>
-1.33291

> <r_i_glide_eff_state_penalty>
0

> <r_i_glide_einternal>
3.76127

> <r_i_glide_emodel>
-51.1174

> <r_i_glide_energy>
-38.4709

> <r_i_glide_erotb>
0.264599

> <r_i_glide_esite>
0

> <r_i_glide_evdw>
-37.138

> <r_i_glide_gscore>
-5.88534

> <r_i_glide_hbond>
-0.32

> <r_i_glide_ligand_efficiency>
-0.294267

> <r_i_glide_ligand_efficiency_ln>
-1.47291

> <r_i_glide_ligand_efficiency_sa>
-0.798763

> <r_i_glide_lipo>
-2.55994

> <r_i_glide_metal>
0

> <r_i_glide_rewards>
-1.21316

> <s_i_glide_gridfile>
wee1_glide-grid

> <s_m_Source_File>
wee1_decoys_glide_SP.sdf

> <s_m_Source_Path>
/Users/zhangxujun/Desktop

> <s_m_entry_id>
572

> <s_m_entry_name>
wee1_decoys_glide_SP.297

> <s_m_subgroup_title>
wee1_decoys_glide_SP

> <s_m_subgroupid>
wee1_decoys_glide_SP


$$$$
