@<TRIPOS>MOLECULE
ZINC22381421_3012
63   65    1
SMALL
USER_CHARGES


@<TRIPOS>ATOM
      1 C1          4.6269   54.8985   19.3521 C.3       1 UNK         0.0000 
      2 C2          5.2471   53.7420   20.1404 C.3       1 UNK         0.0000 
      3 N3          5.0523   53.8498   21.5889 N.am      1 UNK         0.0000 
      4 C4          5.8710   54.4884   22.4444 C.2       1 UNK         0.0000 
      5 O5          6.7277   55.2971   22.0823 O.2       1 UNK         0.0000 
      6 N6          5.6328   54.0959   23.7133 N.am      1 UNK         0.0000 
      7 C7          6.2232   54.5235   24.8538 C.2       1 UNK         0.0000 
      8 O8          7.1041   55.3841   24.9270 O.2       1 UNK         0.0000 
      9 C9          5.6784   53.8909   26.1487 C.3       1 UNK         0.0000 
     10 H10         5.3072   52.8972   25.9291 H         1 UNK         0.0000 
     11 C11         6.7396   53.7136   27.2499 C.3       1 UNK         0.0000 
     12 S12         4.2759   54.8530   26.7476 S.3       1 UNK         0.0000 
     13 C13         2.9356   53.8852   26.1454 C.ar      1 UNK         0.0000 
     14 N14         2.7170   53.6536   24.8775 N.2       1 UNK         0.0000 
     15 N15         1.5070   52.9874   24.7893 N.2       1 UNK         0.0000 
     16 C16         1.0424   52.8383   26.0062 C.ar      1 UNK         0.0000 
     17 N17         1.9435   53.3383   26.9381 N.pl3     1 UNK         0.0000 
     18 C18         1.8627   53.4837   28.4098 C.3       1 UNK         0.0000 
     19 C19         1.1019   54.8046   28.6853 C.3       1 UNK         0.0000 
     20 C20         0.8412   55.0182   30.1854 C.3       1 UNK         0.0000 
     21 C21         0.0957   53.8164   30.7921 C.3       1 UNK         0.0000 
     22 C22         0.9193   52.5275   30.6137 C.3       1 UNK         0.0000 
     23 C23         1.2510   52.2446   29.1312 C.3       1 UNK         0.0000 
     24 C24        -0.3737   52.3430   26.2811 C.3       1 UNK         0.0000 
     25 N25        -0.5054   50.8848   26.2815 N.pl3     1 UNK         0.0000 
     26 C26        -0.6050   50.1353   25.0965 C.ar      1 UNK         0.0000 
     27 C27        -0.7355   48.7508   25.2140 C.ar      1 UNK         0.0000 
     28 C28        -0.8839   47.9527   24.0818 C.ar      1 UNK         0.0000 
     29 C29        -0.8981   48.5329   22.8136 C.ar      1 UNK         0.0000 
     30 C30        -0.7612   49.9192   22.6694 C.ar      1 UNK         0.0000 
     31 C31        -0.6174   50.7085   23.8160 C.ar      1 UNK         0.0000 
     32 C32        -0.7753   50.5857   21.2926 C.3       1 UNK         0.0000 
     33 F33        -1.1434   49.7409   20.3273 F         1 UNK         0.0000 
     34 F34        -1.6235   51.6174   21.2852 F         1 UNK         0.0000 
     35 F35         0.4470   51.0366   21.0111 F         1 UNK         0.0000 
     36 H36         4.7823   54.7582   18.2822 H         1 UNK         0.0000 
     37 H37         5.0921   55.8480   19.6217 H         1 UNK         0.0000 
     38 H38         3.5511   54.9585   19.5153 H         1 UNK         0.0000 
     39 H39         4.8165   52.7972   19.8037 H         1 UNK         0.0000 
     40 H40         6.3044   53.6942   19.8885 H         1 UNK         0.0000 
     41 H41         4.2265   53.3968   21.9508 H         1 UNK         0.0000 
     42 H42         4.8988   53.4169   23.8357 H         1 UNK         0.0000 
     43 H43         7.5189   53.0316   26.9211 H         1 UNK         0.0000 
     44 H44         7.2029   54.6584   27.5390 H         1 UNK         0.0000 
     45 H45         6.3012   53.2774   28.1483 H         1 UNK         0.0000 
     46 H46         2.8969   53.5693   28.7459 H         1 UNK         0.0000 
     47 H47         1.7218   55.6411   28.3570 H         1 UNK         0.0000 
     48 H48         0.1953   54.8751   28.0843 H         1 UNK         0.0000 
     49 H49         1.7949   55.1522   30.6938 H         1 UNK         0.0000 
     50 H50         0.3044   55.9480   30.3617 H         1 UNK         0.0000 
     51 H51        -0.0945   53.9885   31.8535 H         1 UNK         0.0000 
     52 H52        -0.8870   53.6970   30.3200 H         1 UNK         0.0000 
     53 H53         1.8415   52.6021   31.1903 H         1 UNK         0.0000 
     54 H54         0.3625   51.6971   31.0450 H         1 UNK         0.0000 
     55 H55         0.3939   51.8037   28.6402 H         1 UNK         0.0000 
     56 H56         1.9951   51.4459   29.1147 H         1 UNK         0.0000 
     57 H57        -0.7436   52.7551   27.2192 H         1 UNK         0.0000 
     58 H58        -1.0697   52.7623   25.5530 H         1 UNK         0.0000 
     59 H59        -0.8468   50.4218   27.1188 H         1 UNK         0.0000 
     60 H60        -0.7252   48.2812   26.1876 H         1 UNK         0.0000 
     61 H61        -0.9859   46.8842   24.1925 H         1 UNK         0.0000 
     62 H62        -1.0114   47.8981   21.9468 H         1 UNK         0.0000 
     63 H63        -0.5282   51.7754   23.6917 H         1 UNK         0.0000 
@<TRIPOS>BOND
     1    1    2 1    
     2    1   36 1    
     3    1   37 1    
     4    1   38 1    
     5    2    3 1    
     6    2   39 1    
     7    2   40 1    
     8    3    4 am   BACKBONE|DICT|INTERRES
     9    3   41 1    
    10    4    5 2    
    11    4    6 am   BACKBONE|DICT|INTERRES
    12    6    7 am   BACKBONE|DICT|INTERRES
    13    6   42 1    
    14    7    8 2    
    15    7    9 1    
    16    9   10 1    
    17    9   11 1    
    18    9   12 1    
    19   11   43 1    
    20   11   44 1    
    21   11   45 1    
    22   12   13 1    
    23   13   17 ar   
    24   13   14 ar   
    25   14   15 ar   
    26   15   16 ar   
    27   16   17 ar   
    28   16   24 1    
    29   17   18 1    
    30   18   23 1    
    31   18   19 1    
    32   18   46 1    
    33   19   20 1    
    34   19   47 1    
    35   19   48 1    
    36   20   21 1    
    37   20   49 1    
    38   20   50 1    
    39   21   22 1    
    40   21   51 1    
    41   21   52 1    
    42   22   23 1    
    43   22   53 1    
    44   22   54 1    
    45   23   55 1    
    46   23   56 1    
    47   24   25 1    
    48   24   57 1    
    49   24   58 1    
    50   25   26 1    
    51   25   59 1    
    52   26   31 ar   
    53   26   27 ar   
    54   27   28 ar   
    55   27   60 1    
    56   28   29 ar   
    57   28   61 1    
    58   29   30 ar   
    59   29   62 1    
    60   30   31 ar   
    61   30   32 1    
    62   31   63 1    
    63   32   33 1    
    64   32   34 1    
    65   32   35 1    
@<TRIPOS>SUBSTRUCTURE
     1 UNK         1 GROUP             0       ****    0 ROOT    
