@<TRIPOS>MOLECULE
ZINC31589223_4886
59   61    1
SMALL
USER_CHARGES


@<TRIPOS>ATOM
      1 C1          0.3040   53.6814   31.7647 C.3       1 UNK         0.0000 
      2 C2          1.2033   52.6767   31.0296 C.3       1 UNK         0.0000 
      3 N3          0.8526   52.5265   29.5225 N.4       1 UNK         0.0000 
      4 C4         -0.5786   51.9497   29.3385 C.3       1 UNK         0.0000 
      5 C5         -0.7415   51.2963   27.9570 C.3       1 UNK         0.0000 
      6 C6          1.1565   53.7926   28.6684 C.3       1 UNK         0.0000 
      7 C7          2.6317   54.0159   28.3280 C.ar      1 UNK         0.0000 
      8 C8          3.5374   54.4309   29.3077 C.ar      1 UNK         0.0000 
      9 C9          4.8832   54.6067   29.0020 C.ar      1 UNK         0.0000 
     10 C10         5.3302   54.4715   27.6940 C.ar      1 UNK         0.0000 
     11 C11         4.4216   54.1517   26.6743 C.ar      1 UNK         0.0000 
     12 C12         3.0869   53.8850   27.0092 C.ar      1 UNK         0.0000 
     13 N13         4.7459   54.1188   25.3072 N.am      1 UNK         0.0000 
     14 C14         5.8786   54.4969   24.6698 C.2       1 UNK         0.0000 
     15 O15         6.9042   54.8899   25.2314 O.2       1 UNK         0.0000 
     16 C16         5.7941   54.4886   23.1547 C.ar      1 UNK         0.0000 
     17 C17         4.7987   53.7577   22.4809 C.ar      1 UNK         0.0000 
     18 C18         4.6828   53.8196   21.0980 C.ar      1 UNK         0.0000 
     19 C19         5.5636   54.6094   20.3625 C.ar      1 UNK         0.0000 
     20 C20         6.5875   55.3024   21.0093 C.ar      1 UNK         0.0000 
     21 C21         6.7046   55.2406   22.3961 C.ar      1 UNK         0.0000 
     22 S22         5.3530   54.7381   18.5874 S.o2      1 UNK         0.0000 
     23 O23         3.9456   54.4375   18.3016 O.2       1 UNK         0.0000 
     24 O24         5.9518   56.0009   18.1411 O.2       1 UNK         0.0000 
     25 N25         6.2881   53.3920   17.8980 N.pl3     1 UNK         0.0000 
     26 C26         7.6582   53.4105   17.5881 C.ar      1 UNK         0.0000 
     27 C27         8.1543   52.3180   16.8751 C.ar      1 UNK         0.0000 
     28 C28         9.4973   52.2623   16.5131 C.ar      1 UNK         0.0000 
     29 C29        10.3538   53.2947   16.8830 C.ar      1 UNK         0.0000 
     30 C30         9.8779   54.3804   17.6125 C.ar      1 UNK         0.0000 
     31 C31         8.5318   54.4390   17.9665 C.ar      1 UNK         0.0000 
     32 F32        11.6636   53.2356   16.5493 F         1 UNK         0.0000 
     33 H33         0.5699   53.7293   32.8198 H         1 UNK         0.0000 
     34 H34        -0.7328   53.3499   31.7361 H         1 UNK         0.0000 
     35 H35         0.3644   54.6938   31.3662 H         1 UNK         0.0000 
     36 H36         2.2651   52.8961   31.0959 H         1 UNK         0.0000 
     37 H37         1.0682   51.6967   31.4725 H         1 UNK         0.0000 
     38 H38        -0.7145   51.1953   30.1155 H         1 UNK         0.0000 
     39 H39        -1.2915   52.7534   29.5248 H         1 UNK         0.0000 
     40 H40        -1.7232   50.8279   27.8850 H         1 UNK         0.0000 
     41 H41        -0.6687   52.0048   27.1345 H         1 UNK         0.0000 
     42 H42        -0.0079   50.5053   27.7946 H         1 UNK         0.0000 
     43 H43         0.5879   53.6816   27.7473 H         1 UNK         0.0000 
     44 H44         0.7292   54.6465   29.1937 H         1 UNK         0.0000 
     45 H45         3.2108   54.6309   30.3117 H         1 UNK         0.0000 
     46 H46         5.5842   54.9005   29.7690 H         1 UNK         0.0000 
     47 H47         6.3742   54.6569   27.5058 H         1 UNK         0.0000 
     48 H48         2.3827   53.6146   26.2333 H         1 UNK         0.0000 
     49 H49         3.9872   53.8441   24.7062 H         1 UNK         0.0000 
     50 H50         4.0855   53.1424   23.0107 H         1 UNK         0.0000 
     51 H51         3.8973   53.2683   20.6001 H         1 UNK         0.0000 
     52 H52         7.2819   55.9118   20.4488 H         1 UNK         0.0000 
     53 H53         7.4959   55.7969   22.8799 H         1 UNK         0.0000 
     54 H54         5.7840   52.5270   17.7465 H         1 UNK         0.0000 
     55 H55         7.4966   51.5059   16.5901 H         1 UNK         0.0000 
     56 H56         9.8803   51.4176   15.9607 H         1 UNK         0.0000 
     57 H57        10.5521   55.1670   17.9137 H         1 UNK         0.0000 
     58 H58         8.1966   55.2884   18.5334 H         1 UNK         0.0000 
     59 H59         1.4707   51.8093   29.1615 H         1 UNK         0.0000 
@<TRIPOS>BOND
     1    1    2 1    
     2    1   33 1    
     3    1   34 1    
     4    1   35 1    
     5    2    3 1    
     6    2   36 1    
     7    2   37 1    
     8    3    4 1    
     9    3    6 1    
    10    3   59 1    
    11    4    5 1    
    12    4   38 1    
    13    4   39 1    
    14    5   40 1    
    15    5   41 1    
    16    5   42 1    
    17    6    7 1    
    18    6   43 1    
    19    6   44 1    
    20    7   12 ar   
    21    7    8 ar   
    22    8    9 ar   
    23    8   45 1    
    24    9   10 ar   
    25    9   46 1    
    26   10   11 ar   
    27   10   47 1    
    28   11   12 ar   
    29   11   13 1    
    30   12   48 1    
    31   13   14 am   BACKBONE|DICT|INTERRES
    32   13   49 1    
    33   14   15 2    
    34   14   16 1    
    35   16   21 ar   
    36   16   17 ar   
    37   17   18 ar   
    38   17   50 1    
    39   18   19 ar   
    40   18   51 1    
    41   19   20 ar   
    42   19   22 1    
    43   20   21 ar   
    44   20   52 1    
    45   21   53 1    
    46   22   23 2    
    47   22   24 2    
    48   22   25 1    
    49   25   26 1    
    50   25   54 1    
    51   26   31 ar   
    52   26   27 ar   
    53   27   28 ar   
    54   27   55 1    
    55   28   29 ar   
    56   28   56 1    
    57   29   30 ar   
    58   29   32 1    
    59   30   31 ar   
    60   30   57 1    
    61   31   58 1    
@<TRIPOS>SUBSTRUCTURE
     1 UNK         1 GROUP             0       ****    0 ROOT    
