ZINC44166839_5001
                    3D
 Schrodinger Suite 2024-2.
 59 63  0  0  1  0            999 V2000
    5.9531   54.0172   27.8970 C   0  0  0  0  0  0
    5.0806   54.0951   26.6594 C   0  0  0  0  0  0
    3.6762   54.0087   26.5699 C   0  0  0  0  0  0
    3.2771   54.0969   24.8710 S   0  0  0  0  0  0
    4.9562   54.2923   24.4824 C   0  0  0  0  0  0
    5.7394   54.2635   25.5268 N   0  0  0  0  0  0
    5.4362   54.4943   23.0791 C   0  0  0  0  0  0
    6.7046   55.0143   22.7874 C   0  0  0  0  0  0
    7.0890   55.2981   21.5146 N   0  0  0  0  0  0
    6.1973   55.0366   20.5238 C   0  0  0  0  0  0
    4.9392   54.4959   20.8008 C   0  0  0  0  0  0
    4.5524   54.2254   22.0747 N   0  0  0  0  0  0
    2.5783   53.8938   27.6177 C   0  0  2  0  0  0
    1.6606   54.3325   27.2203 H   0  0  0  0  0  0
    2.9117   54.5744   28.9556 C   0  0  0  0  0  0
    1.5036   54.5581   30.0817 S   0  0  0  0  0  0
    1.3972   52.7395   30.2306 C   0  0  0  0  0  0
    1.1778   51.9801   28.8928 C   0  0  2  0  0  0
    1.2442   50.8965   28.9993 H   0  0  0  0  0  0
    2.2465   52.3985   27.8365 N   0  3  0  0  0  0
   -0.1957   52.3021   28.2569 C   0  0  0  0  0  0
   -0.4956   53.4748   28.0816 O   0  0  0  0  0  0
   -1.0355   51.2968   27.9321 N   0  0  0  0  0  0
   -2.2797   51.4437   27.1491 C   0  0  2  0  0  0
   -2.7712   52.3290   27.5492 H   0  0  0  0  0  0
   -3.2955   50.3157   27.3840 C   0  0  0  0  0  0
   -2.0574   51.6811   25.6472 C   0  0  0  0  0  0
   -2.7169   52.7478   25.0317 C   0  0  0  0  0  0
   -2.5319   53.0302   23.6854 C   0  0  0  0  0  0
   -1.6623   52.2680   22.9164 C   0  0  0  0  0  0
   -0.9746   51.1722   23.4874 C   0  0  0  0  0  0
   -1.1947   50.8412   24.8642 C   0  0  0  0  0  0
   -0.5485   49.6799   25.3762 C   0  0  0  0  0  0
    0.3041   48.9257   24.5812 C   0  0  0  0  0  0
    0.5615   49.2969   23.2681 C   0  0  0  0  0  0
   -0.0781   50.3971   22.7114 C   0  0  0  0  0  0
    5.8932   54.9320   28.4909 H   0  0  0  0  0  0
    5.6635   53.1860   28.5398 H   0  0  0  0  0  0
    7.0108   53.8615   27.6698 H   0  0  0  0  0  0
    7.4193   55.2465   23.5632 H   0  0  0  0  0  0
    6.5067   55.2573   19.5118 H   0  0  0  0  0  0
    4.2262   54.2832   20.0172 H   0  0  0  0  0  0
    3.1691   55.6220   28.7974 H   0  0  0  0  0  0
    3.7527   54.1077   29.4640 H   0  0  0  0  0  0
    0.5873   52.5274   30.9327 H   0  0  0  0  0  0
    2.3141   52.4064   30.7148 H   0  0  0  0  0  0
    3.1183   51.9482   28.0707 H   0  0  0  0  0  0
   -0.8215   50.3386   28.1880 H   0  0  0  0  0  0
   -4.2711   50.5680   26.9685 H   0  0  0  0  0  0
   -2.9775   49.3817   26.9185 H   0  0  0  0  0  0
   -3.4300   50.1147   28.4480 H   0  0  0  0  0  0
   -3.3799   53.3787   25.6062 H   0  0  0  0  0  0
   -3.0599   53.8667   23.2533 H   0  0  0  0  0  0
   -1.5088   52.5001   21.8726 H   0  0  0  0  0  0
   -0.7157   49.3504   26.3895 H   0  0  0  0  0  0
    0.7780   48.0523   25.0029 H   0  0  0  0  0  0
    1.2534   48.7169   22.6735 H   0  0  0  0  0  0
    0.1053   50.6628   21.6792 H   0  0  0  0  0  0
    1.9766   52.0116   26.9424 H   0  0  0  0  0  0
  1  2  1  0  0  0
  1 37  1  0  0  0
  1 38  1  0  0  0
  1 39  1  0  0  0
  2  6  1  0  0  0
  2  3  2  0  0  0
  3  4  1  0  0  0
  3 13  1  0  0  0
  4  5  1  0  0  0
  5  6  2  0  0  0
  5  7  1  0  0  0
  7 12  2  0  0  0
  7  8  1  0  0  0
  8  9  2  0  0  0
  8 40  1  0  0  0
  9 10  1  0  0  0
 10 11  2  0  0  0
 10 41  1  0  0  0
 11 12  1  0  0  0
 11 42  1  0  0  0
 13 14  1  0  0  0
 13 20  1  0  0  0
 13 15  1  0  0  0
 15 16  1  0  0  0
 15 43  1  0  0  0
 15 44  1  0  0  0
 16 17  1  0  0  0
 17 18  1  0  0  0
 17 45  1  0  0  0
 17 46  1  0  0  0
 18 19  1  0  0  0
 18 20  1  0  0  0
 18 21  1  0  0  0
 20 47  1  0  0  0
 20 59  1  0  0  0
 21 22  2  0  0  0
 21 23  1  0  0  0
 23 24  1  0  0  0
 23 48  1  0  0  0
 24 25  1  0  0  0
 24 26  1  0  0  0
 24 27  1  0  0  0
 26 49  1  0  0  0
 26 50  1  0  0  0
 26 51  1  0  0  0
 27 32  2  0  0  0
 27 28  1  0  0  0
 28 29  2  0  0  0
 28 52  1  0  0  0
 29 30  1  0  0  0
 29 53  1  0  0  0
 30 31  2  0  0  0
 30 54  1  0  0  0
 31 36  1  0  0  0
 31 32  1  0  0  0
 32 33  1  0  0  0
 33 34  2  0  0  0
 33 55  1  0  0  0
 34 35  1  0  0  0
 34 56  1  0  0  0
 35 36  2  0  0  0
 35 57  1  0  0  0
 36 58  1  0  0  0
M  CHG  1  20   1
M  END
> <i_i_glide_confnum>
29

> <i_i_glide_lignum>
5002

> <i_i_glide_posenum>
328

> <i_i_glide_rotatable_bonds>
6

> <i_m_Source_File_Index>
2903

> <b_m_subgroup_collapsed>
0

> <r_i_docking_score>
-5.93564

> <r_i_glide_ecoul>
-2.98795

> <r_i_glide_eff_state_penalty>
0

> <r_i_glide_einternal>
12.9653

> <r_i_glide_emodel>
-64.8924

> <r_i_glide_energy>
-51.4579

> <r_i_glide_erotb>
0.4457

> <r_i_glide_esite>
-0.0972905

> <r_i_glide_evdw>
-48.47

> <r_i_glide_gscore>
-5.93564

> <r_i_glide_hbond>
-0.143791

> <r_i_glide_ligand_efficiency>
-0.179868

> <r_i_glide_ligand_efficiency_ln>
-1.32006

> <r_i_glide_ligand_efficiency_sa>
-0.576932

> <r_i_glide_lipo>
-3.01822

> <r_i_glide_metal>
0

> <r_i_glide_rewards>
-0.250343

> <s_i_glide_gridfile>
wee1_glide-grid

> <s_m_Source_File>
wee1_decoys_glide_SP.sdf

> <s_m_Source_Path>
/Users/zhangxujun/Desktop

> <s_m_entry_id>
3178

> <s_m_entry_name>
wee1_decoys_glide_SP.2903

> <s_m_subgroup_title>
wee1_decoys_glide_SP

> <s_m_subgroupid>
wee1_decoys_glide_SP


$$$$
