ZINC14270862_825
                    3D
 Schrodinger Suite 2024-2.
 56 59  0  0  1  0            999 V2000
    6.8109   54.8118   25.0402 C   0  0  0  0  0  0
    6.0332   54.5981   23.7565 C   0  0  0  0  0  0
    6.6155   54.8965   22.5216 C   0  0  0  0  0  0
    5.9038   54.6828   21.3374 C   0  0  0  0  0  0
    4.6113   54.1527   21.3914 C   0  0  0  0  0  0
    4.0104   53.8750   22.6228 C   0  0  0  0  0  0
    4.7310   54.0966   23.8017 C   0  0  0  0  0  0
    2.6139   53.3648   22.6930 C   0  0  0  0  0  0
    1.7476   53.6144   23.6542 N   0  0  0  0  0  0
    0.6504   52.8965   23.2827 C   0  0  0  0  0  0
   -0.5959   52.7612   23.8999 C   0  0  0  0  0  0
   -1.5214   51.8593   23.3501 C   0  0  0  0  0  0
   -1.2454   51.1970   22.1442 C   0  0  0  0  0  0
   -0.0251   51.3672   21.4753 C   0  0  0  0  0  0
    0.9073   52.2125   22.0872 C   0  0  0  0  0  0
    2.1719   52.5318   21.6976 O   0  0  0  0  0  0
   -2.7447   51.6000   24.0004 N   0  0  0  0  0  0
   -2.9977   51.4593   25.3381 C   0  0  0  0  0  0
   -4.6024   51.4146   25.7982 S   0  0  0  0  0  0
   -1.8890   51.3414   26.1424 N   0  0  0  0  0  0
   -1.6965   51.4491   27.4814 C   0  0  0  0  0  0
   -2.5766   51.2967   28.3321 O   0  0  0  0  0  0
   -0.2876   51.8535   27.8932 C   0  0  0  0  0  0
    0.7452   52.0127   26.9560 C   0  0  0  0  0  0
    1.9936   52.4962   27.3281 C   0  0  0  0  0  0
    2.2830   52.7741   28.6681 C   0  0  0  0  0  0
    1.2837   52.5791   29.6293 C   0  0  0  0  0  0
    0.0089   52.1271   29.2363 C   0  0  0  0  0  0
    1.6318   52.8615   30.9335 O   0  0  0  0  0  0
    0.6572   52.7308   31.9531 C   0  0  0  0  0  0
    3.5156   53.2283   29.1094 O   0  0  0  0  0  0
    4.5687   53.4302   28.1722 C   0  0  0  0  0  0
    6.5398   54.9925   19.9949 C   0  0  0  0  0  0
    7.8616   54.5760   24.8815 H   0  0  0  0  0  0
    6.7289   55.8472   25.3705 H   0  0  0  0  0  0
    6.4604   54.1515   25.8339 H   0  0  0  0  0  0
    7.6206   55.2919   22.4821 H   0  0  0  0  0  0
    4.0605   53.9847   20.4759 H   0  0  0  0  0  0
    4.2764   53.8756   24.7569 H   0  0  0  0  0  0
   -0.8102   53.3040   24.8068 H   0  0  0  0  0  0
   -1.9773   50.5186   21.7283 H   0  0  0  0  0  0
    0.2033   50.8524   20.5531 H   0  0  0  0  0  0
   -3.5514   51.5534   23.3954 H   0  0  0  0  0  0
   -1.0275   51.3693   25.6213 H   0  0  0  0  0  0
    0.6141   51.7673   25.9165 H   0  0  0  0  0  0
    2.7384   52.6183   26.5569 H   0  0  0  0  0  0
   -0.7654   51.9864   29.9774 H   0  0  0  0  0  0
    1.1009   53.0561   32.8850 H   0  0  0  0  0  0
   -0.2121   53.3644   31.7698 H   0  0  0  0  0  0
    0.3318   51.6973   32.0751 H   0  0  0  0  0  0
    5.4526   53.7926   28.6974 H   0  0  0  0  0  0
    4.3024   54.1775   27.4230 H   0  0  0  0  0  0
    4.8431   52.5008   27.6710 H   0  0  0  0  0  0
    7.6263   55.0621   20.0668 H   0  0  0  0  0  0
    6.3206   54.1975   19.2806 H   0  0  0  0  0  0
    6.1454   55.9253   19.5908 H   0  0  0  0  0  0
  1  2  1  0  0  0
  1 34  1  0  0  0
  1 35  1  0  0  0
  1 36  1  0  0  0
  2  7  2  0  0  0
  2  3  1  0  0  0
  3  4  2  0  0  0
  3 37  1  0  0  0
  4  5  1  0  0  0
  4 33  1  0  0  0
  5  6  2  0  0  0
  5 38  1  0  0  0
  6  7  1  0  0  0
  6  8  1  0  0  0
  7 39  1  0  0  0
  8 16  1  0  0  0
  8  9  2  0  0  0
  9 10  1  0  0  0
 10 15  2  0  0  0
 10 11  1  0  0  0
 11 12  2  0  0  0
 11 40  1  0  0  0
 12 13  1  0  0  0
 12 17  1  0  0  0
 13 14  2  0  0  0
 13 41  1  0  0  0
 14 15  1  0  0  0
 14 42  1  0  0  0
 15 16  1  0  0  0
 17 18  1  0  0  0
 17 43  1  0  0  0
 18 19  2  0  0  0
 18 20  1  0  0  0
 20 21  1  0  0  0
 20 44  1  0  0  0
 21 22  2  0  0  0
 21 23  1  0  0  0
 23 28  2  0  0  0
 23 24  1  0  0  0
 24 25  2  0  0  0
 24 45  1  0  0  0
 25 26  1  0  0  0
 25 46  1  0  0  0
 26 27  2  0  0  0
 26 31  1  0  0  0
 27 28  1  0  0  0
 27 29  1  0  0  0
 28 47  1  0  0  0
 29 30  1  0  0  0
 30 48  1  0  0  0
 30 49  1  0  0  0
 30 50  1  0  0  0
 31 32  1  0  0  0
 32 51  1  0  0  0
 32 52  1  0  0  0
 32 53  1  0  0  0
 33 54  1  0  0  0
 33 55  1  0  0  0
 33 56  1  0  0  0
M  END
> <i_i_glide_confnum>
12

> <i_i_glide_lignum>
826

> <i_i_glide_posenum>
382

> <i_i_glide_rotatable_bonds>
8

> <i_m_Source_File_Index>
5253

> <b_m_subgroup_collapsed>
0

> <r_i_docking_score>
-5.26564

> <r_i_glide_ecoul>
-3.60653

> <r_i_glide_eff_state_penalty>
0

> <r_i_glide_einternal>
8.90059

> <r_i_glide_emodel>
-59.0059

> <r_i_glide_energy>
-49.4937

> <r_i_glide_erotb>
0.567202

> <r_i_glide_esite>
-0.127524

> <r_i_glide_evdw>
-45.8871

> <r_i_glide_gscore>
-5.26564

> <r_i_glide_hbond>
-0.0554748

> <r_i_glide_ligand_efficiency>
-0.159565

> <r_i_glide_ligand_efficiency_ln>
-1.17105

> <r_i_glide_ligand_efficiency_sa>
-0.51181

> <r_i_glide_lipo>
-2.80687

> <r_i_glide_metal>
0

> <r_i_glide_rewards>
-0.00763955

> <s_i_glide_gridfile>
wee1_glide-grid

> <s_m_Source_File>
wee1_decoys_glide_SP.sdf

> <s_m_Source_Path>
/Users/zhangxujun/Desktop

> <s_m_entry_id>
5528

> <s_m_entry_name>
wee1_decoys_glide_SP.5253

> <s_m_subgroup_title>
wee1_decoys_glide_SP

> <s_m_subgroupid>
wee1_decoys_glide_SP


$$$$
