ZINC06751746_4
                    3D
 Schrodinger Suite 2024-2.
 55 59  0  0  1  0            999 V2000
    4.7420   58.0161   15.4353 C   0  0  0  0  0  0
    5.2113   58.2581   16.7201 C   0  0  0  0  0  0
    5.1593   57.2532   17.6827 C   0  0  0  0  0  0
    4.6529   55.9704   17.3855 C   0  0  0  0  0  0
    4.1644   55.7476   16.0724 C   0  0  0  0  0  0
    4.2151   56.7687   15.1160 C   0  0  0  0  0  0
    3.5410   54.5299   15.7536 N   0  0  0  0  0  0
    3.0591   53.9862   14.4860 C   0  0  0  0  0  0
    2.8380   52.4797   14.6682 C   0  0  0  0  0  0
    2.8670   52.2745   16.1767 C   0  0  0  0  0  0
    3.7875   53.3979   16.6382 C   0  0  2  0  0  0
    4.8196   53.0498   16.5454 H   0  0  0  0  0  0
    3.6338   53.7897   18.1196 C   0  0  0  0  0  0
    4.5314   54.9447   18.3851 N   0  0  0  0  0  0
    5.3199   54.8969   19.5051 C   0  0  0  0  0  0
    6.4413   55.4062   19.5572 O   0  0  0  0  0  0
    4.6927   54.3876   20.5933 N   0  0  0  0  0  0
    5.0518   54.4318   21.9522 C   0  0  0  0  0  0
    4.0526   54.0636   22.8553 C   0  0  0  0  0  0
    4.2937   54.0967   24.2266 C   0  0  0  0  0  0
    5.5476   54.4900   24.7163 C   0  0  0  0  0  0
    6.5395   54.8672   23.8067 C   0  0  0  0  0  0
    6.3046   54.8321   22.4371 C   0  0  0  0  0  0
    5.8442   54.5336   26.1965 C   0  0  0  0  0  0
    6.7044   55.2967   26.6387 O   0  0  0  0  0  0
    5.1327   53.6969   26.9724 N   0  0  0  0  0  0
    5.1261   53.6837   28.4344 C   0  0  0  0  0  0
    3.7053   53.8196   28.9345 C   0  0  0  0  0  0
    2.9011   54.8970   29.2816 C   0  0  0  0  0  0
    1.6694   54.3770   29.6817 C   0  0  0  0  0  0
    1.7784   53.0008   29.5785 C   0  0  0  0  0  0
    3.0146   52.6634   29.1293 O   0  0  0  0  0  0
    4.7670   58.8045   14.6972 H   0  0  0  0  0  0
    5.5949   59.2374   16.9745 H   0  0  0  0  0  0
    5.5043   57.5019   18.6748 H   0  0  0  0  0  0
    3.8270   56.6052   14.1220 H   0  0  0  0  0  0
    2.1461   54.4901   14.1672 H   0  0  0  0  0  0
    3.8085   54.1620   13.7130 H   0  0  0  0  0  0
    1.8950   52.1439   14.2358 H   0  0  0  0  0  0
    3.6457   51.9189   14.1947 H   0  0  0  0  0  0
    3.2873   51.2967   16.4108 H   0  0  0  0  0  0
    1.8798   52.3393   16.6368 H   0  0  0  0  0  0
    3.8459   52.9124   18.7341 H   0  0  0  0  0  0
    2.6137   54.0962   18.3539 H   0  0  0  0  0  0
    3.7630   54.0341   20.4244 H   0  0  0  0  0  0
    3.0764   53.7617   22.5022 H   0  0  0  0  0  0
    3.4935   53.8172   24.8973 H   0  0  0  0  0  0
    7.5044   55.1938   24.1571 H   0  0  0  0  0  0
    7.1131   55.1204   21.7847 H   0  0  0  0  0  0
    4.5762   52.9882   26.5177 H   0  0  0  0  0  0
    5.7703   54.4565   28.8619 H   0  0  0  0  0  0
    5.5322   52.7244   28.7564 H   0  0  0  0  0  0
    3.1723   55.9417   29.2368 H   0  0  0  0  0  0
    0.8038   54.9349   30.0093 H   0  0  0  0  0  0
    1.0983   52.1833   29.7741 H   0  0  0  0  0  0
  1  6  2  0  0  0
  1  2  1  0  0  0
  1 33  1  0  0  0
  2  3  2  0  0  0
  2 34  1  0  0  0
  3  4  1  0  0  0
  3 35  1  0  0  0
  4 14  1  0  0  0
  4  5  2  0  0  0
  5  6  1  0  0  0
  5  7  1  0  0  0
  6 36  1  0  0  0
  7 11  1  0  0  0
  7  8  1  0  0  0
  8  9  1  0  0  0
  8 37  1  0  0  0
  8 38  1  0  0  0
  9 10  1  0  0  0
  9 39  1  0  0  0
  9 40  1  0  0  0
 10 11  1  0  0  0
 10 41  1  0  0  0
 10 42  1  0  0  0
 11 12  1  0  0  0
 11 13  1  0  0  0
 13 14  1  0  0  0
 13 43  1  0  0  0
 13 44  1  0  0  0
 14 15  1  0  0  0
 15 16  2  0  0  0
 15 17  1  0  0  0
 17 18  1  0  0  0
 17 45  1  0  0  0
 18 23  2  0  0  0
 18 19  1  0  0  0
 19 20  2  0  0  0
 19 46  1  0  0  0
 20 21  1  0  0  0
 20 47  1  0  0  0
 21 22  2  0  0  0
 21 24  1  0  0  0
 22 23  1  0  0  0
 22 48  1  0  0  0
 23 49  1  0  0  0
 24 25  2  0  0  0
 24 26  1  0  0  0
 26 27  1  0  0  0
 26 50  1  0  0  0
 27 28  1  0  0  0
 27 51  1  0  0  0
 27 52  1  0  0  0
 28 32  1  0  0  0
 28 29  2  0  0  0
 29 30  1  0  0  0
 29 53  1  0  0  0
 30 31  2  0  0  0
 30 54  1  0  0  0
 31 32  1  0  0  0
 31 55  1  0  0  0
M  END
> <i_i_glide_confnum>
44

> <i_i_glide_lignum>
5

> <i_i_glide_posenum>
377

> <i_i_glide_rotatable_bonds>
7

> <i_m_Source_File_Index>
149

> <b_m_subgroup_collapsed>
0

> <r_i_docking_score>
-6.48962

> <r_i_glide_ecoul>
-6.61125

> <r_i_glide_eff_state_penalty>
0

> <r_i_glide_einternal>
2.77547

> <r_i_glide_emodel>
-66.7319

> <r_i_glide_energy>
-48.2745

> <r_i_glide_erotb>
0.683414

> <r_i_glide_esite>
-0.00030399

> <r_i_glide_evdw>
-41.6632

> <r_i_glide_gscore>
-6.48962

> <r_i_glide_hbond>
-0.319133

> <r_i_glide_ligand_efficiency>
-0.209343

> <r_i_glide_ligand_efficiency_ln>
-1.46361

> <r_i_glide_ligand_efficiency_sa>
-0.657625

> <r_i_glide_lipo>
-2.56528

> <r_i_glide_metal>
0

> <r_i_glide_rewards>
-1.21347

> <s_i_glide_gridfile>
wee1_glide-grid

> <s_m_Source_File>
wee1_decoys_glide_SP.sdf

> <s_m_Source_Path>
/Users/zhangxujun/Desktop

> <s_m_entry_id>
424

> <s_m_entry_name>
wee1_decoys_glide_SP.149

> <s_m_subgroup_title>
wee1_decoys_glide_SP

> <s_m_subgroupid>
wee1_decoys_glide_SP


$$$$
