@<TRIPOS>MOLECULE
ZINC04260364_2188
64   68    1
SMALL
USER_CHARGES


@<TRIPOS>ATOM
      1 C1          3.5135   53.7899   26.3528 C.ar      1 UNK         0.0000 
      2 C2          4.5595   54.5416   25.8276 C.ar      1 UNK         0.0000 
      3 C3          5.6890   54.7876   26.6023 C.ar      1 UNK         0.0000 
      4 C4          5.7771   54.2958   27.9018 C.ar      1 UNK         0.0000 
      5 C5          4.7309   53.5418   28.4283 C.ar      1 UNK         0.0000 
      6 C6          3.5993   53.2738   27.6536 C.ar      1 UNK         0.0000 
      7 C7          2.5301   52.3388   28.2301 C.3       1 UNK         0.0000 
      8 C8          0.2063   52.9948   27.4259 C.3       1 UNK         0.0000 
      9 C9         -0.8787   52.6677   26.3554 C.3       1 UNK         0.0000 
     10 H10        -1.7559   53.2961   26.4939 H         1 UNK         0.0000 
     11 C11        -1.4188   51.2453   26.5277 C.3       1 UNK         0.0000 
     12 C12        -0.2523   50.2812   26.3375 C.3       1 UNK         0.0000 
     13 H13        -0.6246   49.2644   26.4817 H         1 UNK         0.0000 
     14 C14         0.8401   50.5497   27.4049 C.3       1 UNK         0.0000 
     15 C15         0.2838   50.3926   24.8991 C.ar      1 UNK         0.0000 
     16 C16         0.7043   49.2968   24.2343 C.ar      1 UNK         0.0000 
     17 C17         1.2072   49.4420   22.8856 C.ar      1 UNK         0.0000 
     18 C18         1.2708   50.6685   22.3255 C.ar      1 UNK         0.0000 
     19 C19         0.8896   51.8861   23.0684 C.ar      1 UNK         0.0000 
     20 O20         1.1069   53.0188   22.6269 O.2       1 UNK         0.0000 
     21 N21         0.3026   51.6672   24.3042 N.pl3     1 UNK         0.0000 
     22 C22        -0.3451   52.8663   24.9112 C.3       1 UNK         0.0000 
     23 N23         1.6984   50.7418   21.0216 N.am      1 UNK         0.0000 
     24 C24         0.9787   51.2245   19.9858 C.2       1 UNK         0.0000 
     25 O25        -0.1704   51.6670   20.0771 O.2       1 UNK         0.0000 
     26 N26         1.6555   51.1614   18.8267 N.am      1 UNK         0.0000 
     27 C27         1.2372   51.7921   17.5747 C.3       1 UNK         0.0000 
     28 C28         1.2305   53.3424   17.6020 C.3       1 UNK         0.0000 
     29 C29         0.8583   53.9901   16.2549 C.3       1 UNK         0.0000 
     30 C30         1.6930   53.4293   15.0932 C.3       1 UNK         0.0000 
     31 C31         1.5692   51.8986   15.0103 C.3       1 UNK         0.0000 
     32 C32         1.9561   51.2109   16.3345 C.3       1 UNK         0.0000 
     33 F33         6.7051   55.5130   26.0843 F         1 UNK         0.0000 
     34 H34         2.6626   53.5983   25.7179 H         1 UNK         0.0000 
     35 H35         4.5041   54.9219   24.8195 H         1 UNK         0.0000 
     36 H36         6.6582   54.4957   28.4937 H         1 UNK         0.0000 
     37 H37         4.8157   53.1388   29.4261 H         1 UNK         0.0000 
     38 H38         2.0942   52.7409   29.1475 H         1 UNK         0.0000 
     39 H39         2.9987   51.3881   28.4841 H         1 UNK         0.0000 
     40 H40         0.7034   53.9595   27.2817 H         1 UNK         0.0000 
     41 H41        -0.1677   52.9174   28.4492 H         1 UNK         0.0000 
     42 H42        -2.2109   51.0365   25.8065 H         1 UNK         0.0000 
     43 H43        -1.8618   51.1103   27.5175 H         1 UNK         0.0000 
     44 H44         0.4407   50.4967   28.4191 H         1 UNK         0.0000 
     45 H45         1.6857   49.8730   27.2816 H         1 UNK         0.0000 
     46 H46         0.7019   48.3260   24.7096 H         1 UNK         0.0000 
     47 H47         1.4969   48.5624   22.3286 H         1 UNK         0.0000 
     48 H48         0.3571   53.6989   24.8811 H         1 UNK         0.0000 
     49 H49        -1.1529   53.1996   24.2569 H         1 UNK         0.0000 
     50 H50         2.5812   50.3017   20.8051 H         1 UNK         0.0000 
     51 H51         2.5911   50.7802   18.8222 H         1 UNK         0.0000 
     52 H52         0.1924   51.5080   17.4217 H         1 UNK         0.0000 
     53 H53         2.2259   53.6931   17.8790 H         1 UNK         0.0000 
     54 H54         0.5447   53.6998   18.3707 H         1 UNK         0.0000 
     55 H55         0.9894   55.0705   16.3194 H         1 UNK         0.0000 
     56 H56        -0.2002   53.8255   16.0529 H         1 UNK         0.0000 
     57 H57         2.7400   53.7068   15.2268 H         1 UNK         0.0000 
     58 H58         1.3768   53.8804   14.1519 H         1 UNK         0.0000 
     59 H59         2.1954   51.5191   14.2022 H         1 UNK         0.0000 
     60 H60         0.5444   51.6305   14.7478 H         1 UNK         0.0000 
     61 H61         1.7683   50.1388   16.2533 H         1 UNK         0.0000 
     62 H62         3.0355   51.3224   16.4660 H         1 UNK         0.0000 
     63 N63         1.3633   51.9937   27.2697 N.4       1 UNK         0.0000 
     64 H64         1.7286   52.0779   26.3316 H         1 UNK         0.0000 
@<TRIPOS>BOND
     1    1    6 ar   
     2    1    2 ar   
     3    1   34 1    
     4    2    3 ar   
     5    2   35 1    
     6    3    4 ar   
     7    3   33 1    
     8    4    5 ar   
     9    4   36 1    
    10    5    6 ar   
    11    5   37 1    
    12    6    7 1    
    13    7   38 1    
    14    7   39 1    
    15    7   63 1    
    16    8    9 1    
    17    8   40 1    
    18    8   41 1    
    19    8   63 1    
    20    9   10 1    
    21    9   22 1    
    22    9   11 1    
    23   11   12 1    
    24   11   42 1    
    25   11   43 1    
    26   12   13 1    
    27   12   14 1    
    28   12   15 1    
    29   14   44 1    
    30   14   45 1    
    31   14   63 1    
    32   15   21 ar   
    33   15   16 ar   
    34   16   17 ar   
    35   16   46 1    
    36   17   18 ar   
    37   17   47 1    
    38   18   19 ar   
    39   18   23 1    
    40   19   20 2    
    41   19   21 ar   
    42   21   22 1    
    43   22   48 1    
    44   22   49 1    
    45   23   24 am   BACKBONE|DICT|INTERRES
    46   23   50 1    
    47   24   25 2    
    48   24   26 am   BACKBONE|DICT|INTERRES
    49   26   27 1    
    50   26   51 1    
    51   27   32 1    
    52   27   28 1    
    53   27   52 1    
    54   28   29 1    
    55   28   53 1    
    56   28   54 1    
    57   29   30 1    
    58   29   55 1    
    59   29   56 1    
    60   30   31 1    
    61   30   57 1    
    62   30   58 1    
    63   31   32 1    
    64   31   59 1    
    65   31   60 1    
    66   32   61 1    
    67   32   62 1    
    68   63   64 1    
@<TRIPOS>SUBSTRUCTURE
     1 UNK         1 GROUP             0       ****    0 ROOT    
