@<TRIPOS>MOLECULE
ZINC39006598_4995
57   61    1
SMALL
USER_CHARGES


@<TRIPOS>ATOM
      1 C1         -0.5784   53.2514   17.3259 C.2       1 UNK         0.0000 
      2 C2          0.4983   53.0442   16.3679 C.2       1 UNK         0.0000 
      3 C3          1.4686   52.1142   16.5650 C.2       1 UNK         0.0000 
      4 C4          1.4692   51.3271   17.7220 C.2       1 UNK         0.0000 
      5 N5          2.3044   50.3861   18.0817 N.pl3     1 UNK         0.0000 
      6 C6          1.9203   49.8253   19.3839 C.3       1 UNK         0.0000 
      7 C7          0.7002   50.6527   19.7190 C.2       1 UNK         0.0000 
      8 C8          0.4736   51.4991   18.6896 C.2       1 UNK         0.0000 
      9 C9         -0.5818   52.4969   18.4437 C.2       1 UNK         0.0000 
     10 C10        -0.0765   50.5325   20.9139 C.2       1 UNK         0.0000 
     11 N11        -0.4564   51.5533   21.5845 N.2       1 UNK         0.0000 
     12 N12        -1.1712   51.4000   22.7516 N.am      1 UNK         0.0000 
     13 C13        -2.0441   50.4327   23.1466 C.2       1 UNK         0.0000 
     14 O14        -2.4872   49.5559   22.3984 O.2       1 UNK         0.0000 
     15 C15        -2.5115   50.4750   24.6246 C.3       1 UNK         0.0000 
     16 H16        -3.5980   50.5637   24.5853 H         1 UNK         0.0000 
     17 C17        -1.8925   51.5538   25.4847 C.2       1 UNK         0.0000 
     18 C18        -0.9787   50.9756   26.2828 C.2       1 UNK         0.0000 
     19 N19        -1.0007   49.6020   26.0817 N.pl3     1 UNK         0.0000 
     20 N20        -2.1653   49.2412   25.3009 N.3       1 UNK         0.0000 
     21 C21        -0.0930   51.6336   27.2656 C.ar      1 UNK         0.0000 
     22 C22         1.1050   51.0491   27.6793 C.ar      1 UNK         0.0000 
     23 C23         1.9883   51.7385   28.5084 C.ar      1 UNK         0.0000 
     24 C24         1.6675   53.0221   28.9615 C.ar      1 UNK         0.0000 
     25 C25         0.4438   53.5769   28.6099 C.ar      1 UNK         0.0000 
     26 C26        -0.4069   52.8973   27.7465 C.ar      1 UNK         0.0000 
     27 O27         2.5121   53.8364   29.6898 O.3       1 UNK         0.0000 
     28 C28         3.9245   53.6275   29.6438 C.3       1 UNK         0.0000 
     29 C29         4.5865   54.0432   28.3220 C.ar      1 UNK         0.0000 
     30 C30         5.9803   53.9807   28.2326 C.ar      1 UNK         0.0000 
     31 C31         6.6328   54.3676   27.0683 C.ar      1 UNK         0.0000 
     32 C32         5.8956   54.8173   25.9761 C.ar      1 UNK         0.0000 
     33 C33         4.5065   54.8735   26.0446 C.ar      1 UNK         0.0000 
     34 C34         3.8546   54.4964   27.2148 C.ar      1 UNK         0.0000 
     35 Cl35        6.7052   55.3266   24.5428 Cl        1 UNK         0.0000 
     36 H36        -1.3547   53.9792   17.1380 H         1 UNK         0.0000 
     37 H37         0.5256   53.6485   15.4702 H         1 UNK         0.0000 
     38 H38         2.2460   52.0000   15.8217 H         1 UNK         0.0000 
     39 H39         1.7213   48.7617   19.2504 H         1 UNK         0.0000 
     40 H40         2.7590   49.9680   20.0667 H         1 UNK         0.0000 
     41 H41        -1.3887   52.6350   19.1461 H         1 UNK         0.0000 
     42 H42        -0.2602   49.4989   21.1939 H         1 UNK         0.0000 
     43 H43        -1.1218   52.2120   23.3464 H         1 UNK         0.0000 
     44 H44        -2.1474   52.6007   25.4066 H         1 UNK         0.0000 
     45 H45        -0.8951   48.8966   26.8235 H         1 UNK         0.0000 
     46 H46        -2.8945   49.0878   25.9873 H         1 UNK         0.0000 
     47 H47         1.3908   50.0869   27.2825 H         1 UNK         0.0000 
     48 H48         2.9346   51.2892   28.7544 H         1 UNK         0.0000 
     49 H49         0.1954   54.5668   28.9527 H         1 UNK         0.0000 
     50 H50        -1.2956   53.3892   27.4039 H         1 UNK         0.0000 
     51 H51         4.3361   54.2592   30.4310 H         1 UNK         0.0000 
     52 H52         4.1984   52.6058   29.9103 H         1 UNK         0.0000 
     53 H53         6.5726   53.6468   29.0715 H         1 UNK         0.0000 
     54 H54         7.7096   54.3279   27.0266 H         1 UNK         0.0000 
     55 H55         3.9341   55.2237   25.1985 H         1 UNK         0.0000 
     56 H56         2.7803   54.5814   27.2472 H         1 UNK         0.0000 
     57 H57         3.1036   50.0549   17.5257 H         1 UNK         0.0000 
@<TRIPOS>BOND
     1    1    9 2    
     2    1    2 1    
     3    1   36 1    
     4    2    3 2    
     5    2   37 1    
     6    3    4 1    
     7    3   38 1    
     8    4    8 1    
     9    4    5 2    
    10    5    6 1    
    11    5   57 1    
    12    6    7 1    
    13    6   39 1    
    14    6   40 1    
    15    7    8 2    
    16    7   10 1    
    17    8    9 1    
    18    9   41 1    
    19   10   11 2    
    20   10   42 1    
    21   11   12 1    
    22   12   13 am   BACKBONE|DICT|INTERRES
    23   12   43 1    
    24   13   14 2    
    25   13   15 1    
    26   15   16 1    
    27   15   20 1    
    28   15   17 1    
    29   17   18 2    
    30   17   44 1    
    31   18   19 1    
    32   18   21 1    
    33   19   20 1    
    34   19   45 1    
    35   20   46 1    
    36   21   26 ar   
    37   21   22 ar   
    38   22   23 ar   
    39   22   47 1    
    40   23   24 ar   
    41   23   48 1    
    42   24   25 ar   
    43   24   27 1    
    44   25   26 ar   
    45   25   49 1    
    46   26   50 1    
    47   27   28 1    
    48   28   29 1    
    49   28   51 1    
    50   28   52 1    
    51   29   34 ar   
    52   29   30 ar   
    53   30   31 ar   
    54   30   53 1    
    55   31   32 ar   
    56   31   54 1    
    57   32   33 ar   
    58   32   35 1    
    59   33   34 ar   
    60   33   55 1    
    61   34   56 1    
@<TRIPOS>SUBSTRUCTURE
     1 UNK         1 GROUP             0       ****    0 ROOT    
