ZINC36213714_697
                    3D
 Schrodinger Suite 2024-2.
 74 77  0  0  1  0            999 V2000
    6.6825   56.0334   16.5570 C   0  0  0  0  0  0
    6.0289   55.1601   17.6113 C   0  0  0  0  0  0
    6.5170   53.8793   17.8591 C   0  0  0  0  0  0
    5.9052   53.0817   18.8215 C   0  0  0  0  0  0
    4.7955   53.5237   19.5486 C   0  0  0  0  0  0
    4.3250   54.8145   19.2803 C   0  0  0  0  0  0
    4.9255   55.6268   18.3213 C   0  0  0  0  0  0
    4.1877   52.6253   20.6175 C   0  0  0  0  0  0
    4.7045   51.5384   20.8834 O   0  0  0  0  0  0
    3.1296   53.0943   21.3189 N   0  0  0  0  0  0
    2.5470   52.4465   22.5177 C   0  0  2  0  0  0
    3.1045   51.5497   22.7261 H   0  0  0  0  0  0
    1.2045   51.6962   22.2425 C   0  0  0  0  0  0
    0.0325   52.6394   22.0196 C   0  0  0  0  0  0
   -1.2998   51.8646   21.8661 C   0  0  0  0  0  0
   -1.1487   50.9803   20.6873 N   0  0  0  0  0  0
   -0.0648   49.9768   20.8601 C   0  0  0  0  0  0
    1.2563   50.7684   20.9981 C   0  0  0  0  0  0
   -1.5580   51.4336   19.4652 C   0  0  0  0  0  0
   -2.1717   52.4966   19.3306 O   0  0  0  0  0  0
   -1.3531   50.5647   18.4483 N   0  0  0  0  0  0
   -1.6618   50.6815   17.0800 C   0  0  0  0  0  0
   -1.5215   49.5143   16.3250 C   0  0  0  0  0  0
   -1.7958   49.5215   14.9604 C   0  0  0  0  0  0
   -2.2035   50.7018   14.3398 C   0  0  0  0  0  0
   -2.3404   51.8740   15.0844 C   0  0  0  0  0  0
   -2.0681   51.8693   16.4500 C   0  0  0  0  0  0
   -2.5142   50.7065   12.8552 C   0  0  0  0  0  0
    2.7072   53.2064   23.8953 C   0  0  0  0  0  0
    1.7987   53.0529   24.7142 O   0  0  0  0  0  0
    3.8686   53.8607   24.2440 N   0  0  0  0  0  0
    4.8935   54.3320   23.3034 C   0  0  0  0  0  0
    6.1581   53.5176   23.4828 C   0  0  0  0  0  0
    6.7020   53.6965   24.9132 C   0  0  0  0  0  0
    5.6282   53.5222   26.0168 C   0  0  0  0  0  0
    4.2293   54.1058   25.6774 C   0  0  1  0  0  0
    3.4932   53.6315   26.3312 H   0  0  0  0  0  0
    4.3105   55.5590   26.0811 C   0  0  0  0  0  0
    5.9519   56.6980   16.0932 H   0  0  0  0  0  0
    7.4766   56.6376   16.9973 H   0  0  0  0  0  0
    7.1074   55.4273   15.7557 H   0  0  0  0  0  0
    7.3683   53.4979   17.3139 H   0  0  0  0  0  0
    6.3041   52.0967   18.9979 H   0  0  0  0  0  0
    3.5044   55.2229   19.8245 H   0  0  0  0  0  0
    4.5369   56.6196   18.1409 H   0  0  0  0  0  0
    2.6567   53.9271   20.9948 H   0  0  0  0  0  0
    0.9929   51.0786   23.1196 H   0  0  0  0  0  0
   -0.0392   53.2965   22.8835 H   0  0  0  0  0  0
    0.2749   53.2961   21.1812 H   0  0  0  0  0  0
   -1.4649   51.2248   22.7336 H   0  0  0  0  0  0
   -2.1924   52.4895   21.8212 H   0  0  0  0  0  0
   -0.2736   49.4335   21.7839 H   0  0  0  0  0  0
   -0.0559   49.1962   20.1001 H   0  0  0  0  0  0
    1.4979   51.3157   20.0849 H   0  0  0  0  0  0
    2.0932   50.0762   21.1020 H   0  0  0  0  0  0
   -0.9060   49.6970   18.6980 H   0  0  0  0  0  0
   -1.2029   48.5911   16.7882 H   0  0  0  0  0  0
   -1.6861   48.6111   14.3886 H   0  0  0  0  0  0
   -2.6537   52.7913   14.6071 H   0  0  0  0  0  0
   -2.1675   52.7992   16.9852 H   0  0  0  0  0  0
   -2.8937   49.7371   12.5328 H   0  0  0  0  0  0
   -3.2886   51.4394   12.6181 H   0  0  0  0  0  0
   -1.6198   50.9427   12.2785 H   0  0  0  0  0  0
    5.1626   55.2968   23.6794 H   0  0  0  0  0  0
    4.5871   54.6235   22.3046 H   0  0  0  0  0  0
    6.9123   53.8441   22.7683 H   0  0  0  0  0  0
    5.9130   52.4966   23.2255 H   0  0  0  0  0  0
    7.1508   54.6870   24.9989 H   0  0  0  0  0  0
    7.5044   52.9856   25.0837 H   0  0  0  0  0  0
    6.0229   53.9667   26.9329 H   0  0  0  0  0  0
    5.5035   52.4967   26.3306 H   0  0  0  0  0  0
    4.3486   55.6210   27.1657 H   0  0  0  0  0  0
    3.4824   56.0966   25.6824 H   0  0  0  0  0  0
    5.2035   56.0542   25.6957 H   0  0  0  0  0  0
  1  2  1  0  0  0
  1 39  1  0  0  0
  1 40  1  0  0  0
  1 41  1  0  0  0
  2  7  2  0  0  0
  2  3  1  0  0  0
  3  4  2  0  0  0
  3 42  1  0  0  0
  4  5  1  0  0  0
  4 43  1  0  0  0
  5  6  2  0  0  0
  5  8  1  0  0  0
  6  7  1  0  0  0
  6 44  1  0  0  0
  7 45  1  0  0  0
  8  9  2  0  0  0
  8 10  1  0  0  0
 10 11  1  0  0  0
 10 46  1  0  0  0
 11 12  1  0  0  0
 11 13  1  0  0  0
 11 29  1  0  0  0
 13 18  1  0  0  0
 13 14  1  0  0  0
 13 47  1  0  0  0
 14 15  1  0  0  0
 14 48  1  0  0  0
 14 49  1  0  0  0
 15 16  1  0  0  0
 15 50  1  0  0  0
 15 51  1  0  0  0
 16 17  1  0  0  0
 16 19  1  0  0  0
 17 18  1  0  0  0
 17 52  1  0  0  0
 17 53  1  0  0  0
 18 54  1  0  0  0
 18 55  1  0  0  0
 19 20  2  0  0  0
 19 21  1  0  0  0
 21 22  1  0  0  0
 21 56  1  0  0  0
 22 27  2  0  0  0
 22 23  1  0  0  0
 23 24  2  0  0  0
 23 57  1  0  0  0
 24 25  1  0  0  0
 24 58  1  0  0  0
 25 26  2  0  0  0
 25 28  1  0  0  0
 26 27  1  0  0  0
 26 59  1  0  0  0
 27 60  1  0  0  0
 28 61  1  0  0  0
 28 62  1  0  0  0
 28 63  1  0  0  0
 29 30  2  0  0  0
 29 31  1  0  0  0
 31 36  1  0  0  0
 31 32  1  0  0  0
 32 33  1  0  0  0
 32 64  1  0  0  0
 32 65  1  0  0  0
 33 34  1  0  0  0
 33 66  1  0  0  0
 33 67  1  0  0  0
 34 35  1  0  0  0
 34 68  1  0  0  0
 34 69  1  0  0  0
 35 36  1  0  0  0
 35 70  1  0  0  0
 35 71  1  0  0  0
 36 37  1  0  0  0
 36 38  1  0  0  0
 38 72  1  0  0  0
 38 73  1  0  0  0
 38 74  1  0  0  0
M  END
> <i_i_glide_confnum>
209

> <i_i_glide_lignum>
698

> <i_i_glide_posenum>
197

> <i_i_glide_rotatable_bonds>
9

> <i_m_Source_File_Index>
4972

> <b_m_subgroup_collapsed>
0

> <r_i_docking_score>
-3.98051

> <r_i_glide_ecoul>
-8.82144

> <r_i_glide_eff_state_penalty>
0

> <r_i_glide_einternal>
22.7157

> <r_i_glide_emodel>
-20.5001

> <r_i_glide_energy>
-22.3201

> <r_i_glide_erotb>
0.7609

> <r_i_glide_esite>
-0.0214869

> <r_i_glide_evdw>
-13.4986

> <r_i_glide_gscore>
-3.98051

> <r_i_glide_hbond>
-0.608

> <r_i_glide_ligand_efficiency>
-0.11057

> <r_i_glide_ligand_efficiency_ln>
-0.86844

> <r_i_glide_ligand_efficiency_sa>
-0.365093

> <r_i_glide_lipo>
-1.38268

> <r_i_glide_metal>
0

> <r_i_glide_rewards>
-0.731101

> <s_i_glide_gridfile>
wee1_glide-grid

> <s_m_Source_File>
wee1_decoys_glide_SP.sdf

> <s_m_Source_Path>
/Users/zhangxujun/Desktop

> <s_m_entry_id>
5247

> <s_m_entry_name>
wee1_decoys_glide_SP.4972

> <s_m_subgroup_title>
wee1_decoys_glide_SP

> <s_m_subgroupid>
wee1_decoys_glide_SP


$$$$
