@<TRIPOS>MOLECULE
ZINC40329584_1584
39   40    1
SMALL
USER_CHARGES


@<TRIPOS>ATOM
      1 C1          1.5800   53.5540   23.4514 C.ar      1 UNK         0.0000 
      2 C2          2.8254   54.1709   23.5638 C.ar      1 UNK         0.0000 
      3 C3          3.4636   54.2496   24.8019 C.ar      1 UNK         0.0000 
      4 C4          2.8568   53.6965   25.9363 C.ar      1 UNK         0.0000 
      5 C5          1.6199   53.0574   25.8178 C.ar      1 UNK         0.0000 
      6 C6          0.9766   52.9854   24.5772 C.ar      1 UNK         0.0000 
      7 S7         -0.6087   52.1541   24.4435 S.o2      1 UNK         0.0000 
      8 O8         -1.2922   52.7341   23.2814 O.2       1 UNK         0.0000 
      9 O9         -1.2417   52.2482   25.7642 O.2       1 UNK         0.0000 
     10 N10        -0.2562   50.4307   24.0959 N.pl3     1 UNK         0.0000 
     11 C11        -0.5032   49.4155   25.1358 C.3       1 UNK         0.0000 
     12 C12        -1.5377   48.3510   24.7210 C.2       1 UNK         0.0000 
     13 O13        -1.9558   48.2382   23.5708 O.2       1 UNK         0.0000 
     14 N14        -1.9877   47.5516   25.6817 N.am      1 UNK         0.0000 
     15 C15         0.5330   50.0084   22.8866 C.3       1 UNK         0.0000 
     16 C16         0.0927   50.5464   21.5183 C.3       1 UNK         0.0000 
     17 C17         1.3130   50.2926   20.6328 C.3       1 UNK         0.0000 
     18 C18         2.5016   50.6148   21.5427 C.3       1 UNK         0.0000 
     19 C19         2.0537   50.2173   22.9605 C.3       1 UNK         0.0000 
     20 N20         3.4790   53.7685   27.1853 N.pl3     1 UNK         0.0000 
     21 F21         4.6685   54.8642   24.8907 F         1 UNK         0.0000 
     22 H22         1.1046   53.4998   22.4822 H         1 UNK         0.0000 
     23 H23         3.2951   54.5920   22.6864 H         1 UNK         0.0000 
     24 H24         1.1541   52.6189   26.6898 H         1 UNK         0.0000 
     25 H25         0.4280   48.9391   25.4477 H         1 UNK         0.0000 
     26 H26        -0.8827   49.8719   26.0487 H         1 UNK         0.0000 
     27 H27        -1.6970   47.6979   26.6507 H         1 UNK         0.0000 
     28 H28        -2.7001   46.8747   25.4712 H         1 UNK         0.0000 
     29 H29         0.3684   48.9300   22.8663 H         1 UNK         0.0000 
     30 H30        -0.1003   51.6173   21.5304 H         1 UNK         0.0000 
     31 H31        -0.7973   50.0393   21.1431 H         1 UNK         0.0000 
     32 H32         1.3079   50.9021   19.7280 H         1 UNK         0.0000 
     33 H33         1.3464   49.2451   20.3253 H         1 UNK         0.0000 
     34 H34         2.7205   51.6840   21.5026 H         1 UNK         0.0000 
     35 H35         3.4072   50.0923   21.2301 H         1 UNK         0.0000 
     36 H36         2.5461   49.2967   23.2666 H         1 UNK         0.0000 
     37 H37         2.3281   50.9728   23.6876 H         1 UNK         0.0000 
     38 H38         4.4123   54.1519   27.2394 H         1 UNK         0.0000 
     39 H39         3.0734   53.2847   27.9729 H         1 UNK         0.0000 
@<TRIPOS>BOND
     1    1    6 ar   
     2    1    2 ar   
     3    1   22 1    
     4    2    3 ar   
     5    2   23 1    
     6    3    4 ar   
     7    3   21 1    
     8    4    5 ar   
     9    4   20 1    
    10    5    6 ar   
    11    5   24 1    
    12    6    7 1    
    13    7    8 2    
    14    7    9 2    
    15    7   10 1    
    16   10   11 1    
    17   10   15 1    
    18   11   12 1    
    19   11   25 1    
    20   11   26 1    
    21   12   13 2    
    22   12   14 am   BACKBONE|DICT|INTERRES
    23   14   27 1    
    24   14   28 1    
    25   15   19 1    
    26   15   16 1    
    27   15   29 1    
    28   16   17 1    
    29   16   30 1    
    30   16   31 1    
    31   17   18 1    
    32   17   32 1    
    33   17   33 1    
    34   18   19 1    
    35   18   34 1    
    36   18   35 1    
    37   19   36 1    
    38   19   37 1    
    39   20   38 1    
    40   20   39 1    
@<TRIPOS>SUBSTRUCTURE
     1 UNK         1 GROUP             0       ****    0 ROOT    
