@<TRIPOS>MOLECULE
ZINC17080407_4573
56   58    1
SMALL
USER_CHARGES


@<TRIPOS>ATOM
      1 C1         -2.7060   46.6299   26.4831 C.3       1 UNK         0.0000 
      2 C2         -2.8072   46.6682   24.9657 C.2       1 UNK         0.0000 
      3 O3         -3.6393   45.9367   24.4259 O.2       1 UNK         0.0000 
      4 C4         -1.8929   47.5844   24.2124 C.ar      1 UNK         0.0000 
      5 C5         -0.9315   48.3734   24.8631 C.ar      1 UNK         0.0000 
      6 C6         -0.1046   49.2230   24.1300 C.ar      1 UNK         0.0000 
      7 C7         -0.2326   49.2964   22.7353 C.ar      1 UNK         0.0000 
      8 C8         -1.1744   48.4990   22.0866 C.ar      1 UNK         0.0000 
      9 C9         -2.0003   47.6526   22.8178 C.ar      1 UNK         0.0000 
     10 N10         0.5594   50.1053   21.9027 N.am      1 UNK         0.0000 
     11 C11         1.3212   51.1684   22.2220 C.2       1 UNK         0.0000 
     12 O12         1.3948   51.6838   23.3405 O.2       1 UNK         0.0000 
     13 N13         2.0091   51.5796   21.1392 N.am      1 UNK         0.0000 
     14 N14         2.8739   52.6664   21.2510 N.am      1 UNK         0.0000 
     15 C15         4.2004   52.4229   21.2811 C.2       1 UNK         0.0000 
     16 O16         4.6968   51.2967   21.2832 O.2       1 UNK         0.0000 
     17 C17         5.1727   53.6010   21.2689 C.3       1 UNK         0.0000 
     18 H18         5.9043   53.4825   20.4753 H         1 UNK         0.0000 
     19 C19         4.7279   55.0063   21.4896 C.3       1 UNK         0.0000 
     20 C20         5.5445   54.3099   22.5787 C.3       1 UNK         0.0000 
     21 H21         6.5975   54.5927   22.6240 H         1 UNK         0.0000 
     22 C22         4.9210   54.1646   23.9797 C.ar      1 UNK         0.0000 
     23 C23         3.5395   54.0949   24.1883 C.ar      1 UNK         0.0000 
     24 C24         3.0200   53.9973   25.4747 C.ar      1 UNK         0.0000 
     25 C25         3.8576   53.9772   26.5978 C.ar      1 UNK         0.0000 
     26 C26         5.2424   54.0850   26.3853 C.ar      1 UNK         0.0000 
     27 C27         5.7647   54.1727   25.0942 C.ar      1 UNK         0.0000 
     28 C28         3.2392   53.7958   28.0133 C.3       1 UNK         0.0000 
     29 C29         2.4540   55.0633   28.4170 C.3       1 UNK         0.0000 
     30 C30         4.3049   53.5157   29.1070 C.3       1 UNK         0.0000 
     31 C31         2.2463   52.6038   28.0286 C.3       1 UNK         0.0000 
     32 H32        -1.6950   46.3734   26.7987 H         1 UNK         0.0000 
     33 H33        -2.9270   47.6192   26.8815 H         1 UNK         0.0000 
     34 H34        -3.4003   45.9111   26.9174 H         1 UNK         0.0000 
     35 H35        -0.8057   48.3412   25.9384 H         1 UNK         0.0000 
     36 H36         0.6370   49.7996   24.6615 H         1 UNK         0.0000 
     37 H37        -1.2793   48.5333   21.0117 H         1 UNK         0.0000 
     38 H38        -2.7279   47.0557   22.2853 H         1 UNK         0.0000 
     39 H39         0.5107   49.8694   20.9239 H         1 UNK         0.0000 
     40 H40         1.7703   51.3575   20.1837 H         1 UNK         0.0000 
     41 H41         2.4490   53.5605   21.0448 H         1 UNK         0.0000 
     42 H42         3.6918   55.2779   21.6949 H         1 UNK         0.0000 
     43 H43         5.2231   55.7724   20.8957 H         1 UNK         0.0000 
     44 H44         2.8428   54.1157   23.3680 H         1 UNK         0.0000 
     45 H45         1.9483   53.9294   25.5859 H         1 UNK         0.0000 
     46 H46         5.9393   54.0785   27.2087 H         1 UNK         0.0000 
     47 H47         6.8348   54.2402   24.9631 H         1 UNK         0.0000 
     48 H48         1.9654   54.9423   29.3848 H         1 UNK         0.0000 
     49 H49         1.6729   55.2983   27.6943 H         1 UNK         0.0000 
     50 H50         3.1043   55.9308   28.5003 H         1 UNK         0.0000 
     51 H51         4.9038   52.6350   28.8680 H         1 UNK         0.0000 
     52 H52         4.9868   54.3580   29.2371 H         1 UNK         0.0000 
     53 H53         3.8464   53.3361   30.0810 H         1 UNK         0.0000 
     54 H54         2.7132   51.6863   27.6819 H         1 UNK         0.0000 
     55 H55         1.8623   52.4097   29.0313 H         1 UNK         0.0000 
     56 H56         1.3744   52.7768   27.3978 H         1 UNK         0.0000 
@<TRIPOS>BOND
     1    1    2 1    
     2    1   32 1    
     3    1   33 1    
     4    1   34 1    
     5    2    3 2    
     6    2    4 1    
     7    4    9 ar   
     8    4    5 ar   
     9    5    6 ar   
    10    5   35 1    
    11    6    7 ar   
    12    6   36 1    
    13    7    8 ar   
    14    7   10 1    
    15    8    9 ar   
    16    8   37 1    
    17    9   38 1    
    18   10   11 am   BACKBONE|DICT|INTERRES
    19   10   39 1    
    20   11   12 2    
    21   11   13 am   BACKBONE|DICT|INTERRES
    22   13   14 1    
    23   13   40 1    
    24   14   15 am   BACKBONE|DICT|INTERRES
    25   14   41 1    
    26   15   16 2    
    27   15   17 1    
    28   17   18 1    
    29   17   20 1    
    30   17   19 1    
    31   19   20 1    
    32   19   42 1    
    33   19   43 1    
    34   20   21 1    
    35   20   22 1    
    36   22   27 ar   
    37   22   23 ar   
    38   23   24 ar   
    39   23   44 1    
    40   24   25 ar   
    41   24   45 1    
    42   25   26 ar   
    43   25   28 1    
    44   26   27 ar   
    45   26   46 1    
    46   27   47 1    
    47   28   29 1    
    48   28   30 1    
    49   28   31 1    
    50   29   48 1    
    51   29   49 1    
    52   29   50 1    
    53   30   51 1    
    54   30   52 1    
    55   30   53 1    
    56   31   54 1    
    57   31   55 1    
    58   31   56 1    
@<TRIPOS>SUBSTRUCTURE
     1 UNK         1 GROUP             0       ****    0 ROOT    
