@<TRIPOS>MOLECULE
ZINC15776462_5581
59   63    1
SMALL
USER_CHARGES


@<TRIPOS>ATOM
      1 C1          2.5280   50.7104   20.4967 C.3       1 UNK         0.0000 
      2 C2          1.9729   51.1579   21.8369 C.ar      1 UNK         0.0000 
      3 C3          1.4123   50.2164   22.7015 C.ar      1 UNK         0.0000 
      4 C4          0.9004   50.6200   23.9304 C.ar      1 UNK         0.0000 
      5 C5          0.9648   51.9646   24.3160 C.ar      1 UNK         0.0000 
      6 C6          1.5134   52.9068   23.4370 C.ar      1 UNK         0.0000 
      7 C7          2.0147   52.5054   22.2014 C.ar      1 UNK         0.0000 
      8 C8          0.4563   52.3695   25.6422 C.2       1 UNK         0.0000 
      9 N9         -0.7767   52.4943   25.9666 N.2       1 UNK         0.0000 
     10 N10        -1.7298   52.4933   25.0033 N.pl3     1 UNK         0.0000 
     11 S11        -3.4228   52.2138   25.4037 S.o2      1 UNK         0.0000 
     12 O12        -3.6342   52.4988   26.8274 O.2       1 UNK         0.0000 
     13 O13        -4.2198   52.9048   24.3833 O.2       1 UNK         0.0000 
     14 C14        -3.6803   50.4581   25.1941 C.ar      1 UNK         0.0000 
     15 C15        -3.2957   49.5844   26.2126 C.ar      1 UNK         0.0000 
     16 C16        -3.5325   48.2197   26.0814 C.ar      1 UNK         0.0000 
     17 C17        -4.1469   47.7354   24.9282 C.ar      1 UNK         0.0000 
     18 C18        -4.5273   48.6049   23.9058 C.ar      1 UNK         0.0000 
     19 C19        -4.2933   49.9711   24.0374 C.ar      1 UNK         0.0000 
     20 C20         1.5298   52.6534   26.7433 C.3       1 UNK         0.0000 
     21 H21         2.0894   51.7323   26.8820 H         1 UNK         0.0000 
     22 N22         1.0403   52.9971   28.0762 N.pl3     1 UNK         0.0000 
     23 C23         1.1688   54.1679   28.8188 C.ar      1 UNK         0.0000 
     24 C24         1.7793   55.4115   28.5964 C.ar      1 UNK         0.0000 
     25 C25         1.7387   56.3395   29.6336 C.ar      1 UNK         0.0000 
     26 C26         1.1043   56.0676   30.8390 C.ar      1 UNK         0.0000 
     27 C27         0.4735   54.8409   31.0581 C.ar      1 UNK         0.0000 
     28 C28         0.5240   53.8807   30.0434 C.ar      1 UNK         0.0000 
     29 N29         0.0365   52.6133   30.0218 N.2       1 UNK         0.0000 
     30 N30         0.3772   52.0729   28.8061 N.2       1 UNK         0.0000 
     31 O31         2.3367   53.6567   26.1746 O.3       1 UNK         0.0000 
     32 C32         3.6766   53.7823   26.4991 C.ar      1 UNK         0.0000 
     33 C33         4.2550   53.2964   27.6817 C.ar      1 UNK         0.0000 
     34 C34         5.5936   53.5590   27.9646 C.ar      1 UNK         0.0000 
     35 C35         6.3625   54.2867   27.0601 C.ar      1 UNK         0.0000 
     36 C36         5.8036   54.7606   25.8752 C.ar      1 UNK         0.0000 
     37 C37         4.4602   54.5122   25.6038 C.ar      1 UNK         0.0000 
     38 H38         3.5039   50.2409   20.6216 H         1 UNK         0.0000 
     39 H39         1.8640   49.9817   20.0347 H         1 UNK         0.0000 
     40 H40         2.6202   51.5418   19.7981 H         1 UNK         0.0000 
     41 H41         1.3801   49.1727   22.4246 H         1 UNK         0.0000 
     42 H42         0.4757   49.8756   24.5919 H         1 UNK         0.0000 
     43 H43         1.5599   53.9536   23.7064 H         1 UNK         0.0000 
     44 H44         2.4338   53.2413   21.5296 H         1 UNK         0.0000 
     45 H45        -1.4406   52.2200   24.0617 H         1 UNK         0.0000 
     46 H46        -2.8198   49.9515   27.1110 H         1 UNK         0.0000 
     47 H47        -3.2365   47.5502   26.8783 H         1 UNK         0.0000 
     48 H48        -4.3392   46.6765   24.8307 H         1 UNK         0.0000 
     49 H49        -5.0102   48.2208   23.0203 H         1 UNK         0.0000 
     50 H50        -4.6010   50.6458   23.2506 H         1 UNK         0.0000 
     51 H51         2.2891   55.6543   27.6818 H         1 UNK         0.0000 
     52 H52         2.2182   57.2961   29.4978 H         1 UNK         0.0000 
     53 H53         1.1040   56.8203   31.6163 H         1 UNK         0.0000 
     54 H54        -0.0110   54.6191   31.9993 H         1 UNK         0.0000 
     55 H55         3.6751   52.7387   28.3991 H         1 UNK         0.0000 
     56 H56         6.0394   53.2026   28.8817 H         1 UNK         0.0000 
     57 H57         7.3981   54.4906   27.2891 H         1 UNK         0.0000 
     58 H58         6.4006   55.3267   25.1755 H         1 UNK         0.0000 
     59 H59         4.0186   54.8959   24.6947 H         1 UNK         0.0000 
@<TRIPOS>BOND
     1    1    2 1    
     2    1   38 1    
     3    1   39 1    
     4    1   40 1    
     5    2    7 ar   
     6    2    3 ar   
     7    3    4 ar   
     8    3   41 1    
     9    4    5 ar   
    10    4   42 1    
    11    5    6 ar   
    12    5    8 1    
    13    6    7 ar   
    14    6   43 1    
    15    7   44 1    
    16    8    9 2    
    17    8   20 1    
    18    9   10 1    
    19   10   11 1    
    20   10   45 1    
    21   11   12 2    
    22   11   13 2    
    23   11   14 1    
    24   14   19 ar   
    25   14   15 ar   
    26   15   16 ar   
    27   15   46 1    
    28   16   17 ar   
    29   16   47 1    
    30   17   18 ar   
    31   17   48 1    
    32   18   19 ar   
    33   18   49 1    
    34   19   50 1    
    35   20   21 1    
    36   20   22 1    
    37   20   31 1    
    38   22   30 ar   
    39   22   23 ar   
    40   23   28 ar   
    41   23   24 ar   
    42   24   25 ar   
    43   24   51 1    
    44   25   26 ar   
    45   25   52 1    
    46   26   27 ar   
    47   26   53 1    
    48   27   28 ar   
    49   27   54 1    
    50   28   29 ar   
    51   29   30 ar   
    52   31   32 1    
    53   32   37 ar   
    54   32   33 ar   
    55   33   34 ar   
    56   33   55 1    
    57   34   35 ar   
    58   34   56 1    
    59   35   36 ar   
    60   35   57 1    
    61   36   37 ar   
    62   36   58 1    
    63   37   59 1    
@<TRIPOS>SUBSTRUCTURE
     1 UNK         1 GROUP             0       ****    0 ROOT    
