ZINC39667559_3687
                    3D
 Schrodinger Suite 2024-2.
 65 68  0  0  1  0            999 V2000
    7.1738   55.0636   22.1786 C   0  0  0  0  0  0
    5.8506   54.5109   21.6792 C   0  0  0  0  0  0
    5.7055   54.2693   20.3106 C   0  0  0  0  0  0
    4.5479   53.6828   19.8199 C   0  0  0  0  0  0
    3.5043   53.3954   20.6891 C   0  0  0  0  0  0
    3.5879   53.7053   22.0539 C   0  0  0  0  0  0
    4.7964   54.2176   22.5658 C   0  0  0  0  0  0
    4.9443   54.4995   24.0651 C   0  0  0  0  0  0
    2.3802   53.4975   22.9804 C   0  0  0  0  0  0
    1.2804   52.6495   22.5159 N   0  0  0  0  0  0
    1.3888   51.3350   22.2879 C   0  0  0  0  0  0
    2.4715   50.7469   22.3179 O   0  0  0  0  0  0
    0.0760   50.5858   21.9494 C   0  0  1  0  0  0
   -0.6439   51.2879   21.5253 H   0  0  0  0  0  0
    0.4044   49.4987   20.9099 C   0  0  0  0  0  0
   -0.5999   48.4631   21.1536 N   0  0  0  0  0  0
   -1.3368   48.6941   22.4063 C   0  0  0  0  0  0
   -0.5584   49.8097   23.1447 C   0  0  0  0  0  0
    0.5162   49.1725   24.0855 C   0  0  0  0  0  0
   -0.0555   48.3972   25.2788 C   0  0  0  0  0  0
   -0.9559   49.3526   26.0817 N   0  3  0  0  0  0
   -2.0880   49.9545   25.2235 C   0  0  0  0  0  0
   -1.4307   50.7214   24.0532 C   0  0  0  0  0  0
   -0.9517   47.4798   20.2815 C   0  0  0  0  0  0
   -1.9112   46.7381   20.5076 O   0  0  0  0  0  0
   -0.1749   47.2846   18.9889 C   0  0  0  0  0  0
    1.2252   47.3898   18.9218 C   0  0  0  0  0  0
    1.9019   47.2059   17.7170 C   0  0  0  0  0  0
    1.2031   46.8641   16.5628 C   0  0  0  0  0  0
   -0.1907   46.7219   16.6095 C   0  0  0  0  0  0
   -0.8634   46.9298   17.8192 C   0  0  0  0  0  0
   -0.9802   46.3467   15.3653 C   0  0  0  0  0  0
    2.1849   46.5742   14.9518 Br  0  0  0  0  0  0
    7.5050   54.4774   23.0356 H   0  0  0  0  0  0
    7.0651   56.0971   22.5031 H   0  0  0  0  0  0
    7.9646   55.0085   21.4281 H   0  0  0  0  0  0
    6.5093   54.4950   19.6244 H   0  0  0  0  0  0
    4.4513   53.4612   18.7665 H   0  0  0  0  0  0
    2.6022   52.9781   20.2722 H   0  0  0  0  0  0
    4.0241   54.8963   24.4892 H   0  0  0  0  0  0
    5.1999   53.5850   24.5993 H   0  0  0  0  0  0
    5.6955   55.2549   24.2856 H   0  0  0  0  0  0
    2.7138   53.0820   23.9335 H   0  0  0  0  0  0
    1.9664   54.4826   23.1992 H   0  0  0  0  0  0
    0.3911   53.1003   22.3724 H   0  0  0  0  0  0
    0.3849   49.9104   19.8985 H   0  0  0  0  0  0
    1.3586   49.0360   21.1611 H   0  0  0  0  0  0
   -1.5397   47.8111   23.0121 H   0  0  0  0  0  0
   -2.3104   49.0965   22.1229 H   0  0  0  0  0  0
    1.1346   48.4970   23.5007 H   0  0  0  0  0  0
    1.2064   49.9167   24.4834 H   0  0  0  0  0  0
   -0.6508   47.5227   25.0179 H   0  0  0  0  0  0
    0.7488   48.0971   25.9492 H   0  0  0  0  0  0
   -1.2957   48.8955   26.9455 H   0  0  0  0  0  0
   -2.7266   49.1287   24.9053 H   0  0  0  0  0  0
   -2.6581   50.6082   25.8870 H   0  0  0  0  0  0
   -0.8406   51.5558   24.4360 H   0  0  0  0  0  0
   -2.2215   51.1833   23.4596 H   0  0  0  0  0  0
    1.8216   47.5976   19.7947 H   0  0  0  0  0  0
    2.9786   47.3132   17.6792 H   0  0  0  0  0  0
   -1.9390   46.8218   17.8456 H   0  0  0  0  0  0
   -0.8140   47.0857   14.5795 H   0  0  0  0  0  0
   -0.6451   45.3834   14.9812 H   0  0  0  0  0  0
   -2.0522   46.2863   15.5521 H   0  0  0  0  0  0
   -0.3836   50.1085   26.4263 H   0  0  0  0  0  0
  1  2  1  0  0  0
  1 34  1  0  0  0
  1 35  1  0  0  0
  1 36  1  0  0  0
  2  7  2  0  0  0
  2  3  1  0  0  0
  3  4  2  0  0  0
  3 37  1  0  0  0
  4  5  1  0  0  0
  4 38  1  0  0  0
  5  6  2  0  0  0
  5 39  1  0  0  0
  6  7  1  0  0  0
  6  9  1  0  0  0
  7  8  1  0  0  0
  8 40  1  0  0  0
  8 41  1  0  0  0
  8 42  1  0  0  0
  9 10  1  0  0  0
  9 43  1  0  0  0
  9 44  1  0  0  0
 10 11  1  0  0  0
 10 45  1  0  0  0
 11 12  2  0  0  0
 11 13  1  0  0  0
 13 14  1  0  0  0
 13 18  1  0  0  0
 13 15  1  0  0  0
 15 16  1  0  0  0
 15 46  1  0  0  0
 15 47  1  0  0  0
 16 17  1  0  0  0
 16 24  1  0  0  0
 17 18  1  0  0  0
 17 48  1  0  0  0
 17 49  1  0  0  0
 18 23  1  0  0  0
 18 19  1  0  0  0
 19 20  1  0  0  0
 19 50  1  0  0  0
 19 51  1  0  0  0
 20 21  1  0  0  0
 20 52  1  0  0  0
 20 53  1  0  0  0
 21 22  1  0  0  0
 21 54  1  0  0  0
 21 65  1  0  0  0
 22 23  1  0  0  0
 22 55  1  0  0  0
 22 56  1  0  0  0
 23 57  1  0  0  0
 23 58  1  0  0  0
 24 25  2  0  0  0
 24 26  1  0  0  0
 26 31  2  0  0  0
 26 27  1  0  0  0
 27 28  2  0  0  0
 27 59  1  0  0  0
 28 29  1  0  0  0
 28 60  1  0  0  0
 29 30  2  0  0  0
 29 33  1  0  0  0
 30 31  1  0  0  0
 30 32  1  0  0  0
 31 61  1  0  0  0
 32 62  1  0  0  0
 32 63  1  0  0  0
 32 64  1  0  0  0
M  CHG  1  21   1
M  END
> <i_i_glide_confnum>
8

> <i_i_glide_lignum>
3688

> <i_i_glide_posenum>
368

> <i_i_glide_rotatable_bonds>
6

> <i_m_Source_File_Index>
5527

> <b_m_subgroup_collapsed>
0

> <r_i_docking_score>
-3.18014

> <r_i_glide_ecoul>
-6.40516

> <r_i_glide_eff_state_penalty>
0

> <r_i_glide_einternal>
3.69557

> <r_i_glide_emodel>
-41.5508

> <r_i_glide_energy>
-33.5363

> <r_i_glide_erotb>
0.490966

> <r_i_glide_esite>
-0.1

> <r_i_glide_evdw>
-27.1311

> <r_i_glide_gscore>
-3.18014

> <r_i_glide_hbond>
-0.2

> <r_i_glide_ligand_efficiency>
-0.0993794

> <r_i_glide_ligand_efficiency_ln>
-0.71212

> <r_i_glide_ligand_efficiency_sa>
-0.31551

> <r_i_glide_lipo>
-0.939827

> <r_i_glide_metal>
0

> <r_i_glide_rewards>
-0.11395

> <s_i_glide_gridfile>
wee1_glide-grid

> <s_m_Source_File>
wee1_decoys_glide_SP.sdf

> <s_m_Source_Path>
/Users/zhangxujun/Desktop

> <s_m_entry_id>
5802

> <s_m_entry_name>
wee1_decoys_glide_SP.5527

> <s_m_subgroup_title>
wee1_decoys_glide_SP

> <s_m_subgroupid>
wee1_decoys_glide_SP


$$$$
