ZINC12645905_3209
                    3D
 Schrodinger Suite 2024-2.
 66 69  0  0  1  0            999 V2000
   -0.4334   51.8241   29.8522 C   0  0  0  0  0  0
    1.0609   52.1124   29.7539 C   0  0  0  0  0  0
    1.8087   52.2246   30.9321 C   0  0  0  0  0  0
    3.1838   52.4504   30.8819 C   0  0  0  0  0  0
    3.8234   52.5996   29.6566 C   0  0  0  0  0  0
    3.0879   52.5108   28.4789 C   0  0  0  0  0  0
    1.7046   52.2574   28.5109 C   0  0  0  0  0  0
    0.9365   52.0740   27.3432 N   0  0  0  0  0  0
    1.1714   52.5137   26.0891 C   0  0  0  0  0  0
    2.0708   53.3029   25.7969 O   0  0  0  0  0  0
    0.2418   51.9921   25.0133 C   0  0  0  0  0  0
    0.2747   52.5546   23.7279 C   0  0  0  0  0  0
   -0.5502   52.0765   22.7135 C   0  0  0  0  0  0
   -1.4169   51.0247   22.9838 C   0  0  0  0  0  0
   -1.4751   50.4198   24.2424 C   0  0  0  0  0  0
   -0.6432   50.9260   25.2561 C   0  0  0  0  0  0
   -2.4067   49.3617   24.4293 N   0  0  0  0  0  0
   -3.0538   48.7111   23.4110 C   0  0  0  0  0  0
   -3.9394   47.8614   23.5647 O   0  0  0  0  0  0
   -2.5411   49.1752   21.9936 C   0  0  0  0  0  0
   -2.2506   50.5895   21.9763 O   0  0  0  0  0  0
   -1.2562   48.3589   21.6809 C   0  0  0  0  0  0
   -3.6745   48.9891   20.9621 C   0  0  0  0  0  0
   -2.7576   48.9666   25.8208 C   0  0  0  0  0  0
   -3.7100   49.9652   26.5122 C   0  0  0  0  0  0
   -4.2598   50.8650   25.8725 O   0  0  0  0  0  0
   -3.8549   49.7554   27.8361 N   0  0  0  0  0  0
   -4.7121   50.3876   28.7614 C   0  0  0  0  0  0
   -4.4941   50.0958   30.1056 C   0  0  0  0  0  0
   -5.2917   50.6640   31.0942 C   0  0  0  0  0  0
   -6.3412   51.5350   30.7640 C   0  0  0  0  0  0
   -6.5639   51.8102   29.4057 C   0  0  0  0  0  0
   -5.7654   51.2441   28.4142 C   0  0  0  0  0  0
   -7.1248   52.1506   31.7801 N   0  0  0  0  0  0
   -7.0980   51.6044   33.1413 C   0  0  0  0  0  0
   -8.3280   52.9131   31.4316 C   0  0  0  0  0  0
   -0.7830   51.7405   30.8815 H   0  0  0  0  0  0
   -0.9931   52.6224   29.3673 H   0  0  0  0  0  0
   -0.6773   50.8971   29.3340 H   0  0  0  0  0  0
    1.3254   52.1100   31.8941 H   0  0  0  0  0  0
    3.7558   52.4966   31.7972 H   0  0  0  0  0  0
    4.8866   52.7712   29.6110 H   0  0  0  0  0  0
    3.6213   52.6018   27.5442 H   0  0  0  0  0  0
    0.0911   51.5456   27.4840 H   0  0  0  0  0  0
    0.9505   53.3692   23.5028 H   0  0  0  0  0  0
   -0.5147   52.5042   21.7257 H   0  0  0  0  0  0
   -0.6712   50.4703   26.2339 H   0  0  0  0  0  0
   -1.4810   47.2995   21.5422 H   0  0  0  0  0  0
   -0.8024   48.7100   20.7540 H   0  0  0  0  0  0
   -0.4953   48.4346   22.4593 H   0  0  0  0  0  0
   -3.9768   47.9439   20.8685 H   0  0  0  0  0  0
   -4.5587   49.5763   21.2175 H   0  0  0  0  0  0
   -3.3477   49.3100   19.9715 H   0  0  0  0  0  0
   -1.8514   48.8357   26.4105 H   0  0  0  0  0  0
   -3.1993   47.9701   25.8600 H   0  0  0  0  0  0
   -3.1842   49.1001   28.2356 H   0  0  0  0  0  0
   -3.6962   49.4268   30.3983 H   0  0  0  0  0  0
   -5.0570   50.4207   32.1189 H   0  0  0  0  0  0
   -7.3607   52.4641   29.0889 H   0  0  0  0  0  0
   -5.9897   51.4803   27.3868 H   0  0  0  0  0  0
   -6.0954   51.6620   33.5712 H   0  0  0  0  0  0
   -7.3926   50.5516   33.1295 H   0  0  0  0  0  0
   -7.7802   52.1286   33.8152 H   0  0  0  0  0  0
   -9.0826   52.2521   31.0014 H   0  0  0  0  0  0
   -8.7687   53.4008   32.3033 H   0  0  0  0  0  0
   -8.1089   53.6907   30.6982 H   0  0  0  0  0  0
  1  2  1  0  0  0
  1 37  1  0  0  0
  1 38  1  0  0  0
  1 39  1  0  0  0
  2  7  2  0  0  0
  2  3  1  0  0  0
  3  4  2  0  0  0
  3 40  1  0  0  0
  4  5  1  0  0  0
  4 41  1  0  0  0
  5  6  2  0  0  0
  5 42  1  0  0  0
  6  7  1  0  0  0
  6 43  1  0  0  0
  7  8  1  0  0  0
  8  9  1  0  0  0
  8 44  1  0  0  0
  9 10  2  0  0  0
  9 11  1  0  0  0
 11 16  2  0  0  0
 11 12  1  0  0  0
 12 13  2  0  0  0
 12 45  1  0  0  0
 13 14  1  0  0  0
 13 46  1  0  0  0
 14 21  1  0  0  0
 14 15  2  0  0  0
 15 16  1  0  0  0
 15 17  1  0  0  0
 16 47  1  0  0  0
 17 18  1  0  0  0
 17 24  1  0  0  0
 18 19  2  0  0  0
 18 20  1  0  0  0
 20 21  1  0  0  0
 20 22  1  0  0  0
 20 23  1  0  0  0
 22 48  1  0  0  0
 22 49  1  0  0  0
 22 50  1  0  0  0
 23 51  1  0  0  0
 23 52  1  0  0  0
 23 53  1  0  0  0
 24 25  1  0  0  0
 24 54  1  0  0  0
 24 55  1  0  0  0
 25 26  2  0  0  0
 25 27  1  0  0  0
 27 28  1  0  0  0
 27 56  1  0  0  0
 28 33  2  0  0  0
 28 29  1  0  0  0
 29 30  2  0  0  0
 29 57  1  0  0  0
 30 31  1  0  0  0
 30 58  1  0  0  0
 31 32  2  0  0  0
 31 34  1  0  0  0
 32 33  1  0  0  0
 32 59  1  0  0  0
 33 60  1  0  0  0
 34 35  1  0  0  0
 34 36  1  0  0  0
 35 61  1  0  0  0
 35 62  1  0  0  0
 35 63  1  0  0  0
 36 64  1  0  0  0
 36 65  1  0  0  0
 36 66  1  0  0  0
M  END
> <i_i_glide_confnum>
41

> <i_i_glide_lignum>
3210

> <i_i_glide_posenum>
341

> <i_i_glide_rotatable_bonds>
8

> <i_m_Source_File_Index>
5215

> <b_m_subgroup_collapsed>
0

> <r_i_docking_score>
-4.13283

> <r_i_glide_ecoul>
-10.0929

> <r_i_glide_eff_state_penalty>
0

> <r_i_glide_einternal>
1.7819

> <r_i_glide_emodel>
-57.6389

> <r_i_glide_energy>
-45.228

> <r_i_glide_erotb>
0.600913

> <r_i_glide_esite>
-0.227571

> <r_i_glide_evdw>
-35.1351

> <r_i_glide_gscore>
-4.13283

> <r_i_glide_hbond>
-0.16

> <r_i_glide_ligand_efficiency>
-0.114801

> <r_i_glide_ligand_efficiency_ln>
-0.901672

> <r_i_glide_ligand_efficiency_sa>
-0.379064

> <r_i_glide_lipo>
-0.803848

> <r_i_glide_metal>
0

> <r_i_glide_rewards>
-0.271641

> <s_i_glide_gridfile>
wee1_glide-grid

> <s_m_Source_File>
wee1_decoys_glide_SP.sdf

> <s_m_Source_Path>
/Users/zhangxujun/Desktop

> <s_m_entry_id>
5490

> <s_m_entry_name>
wee1_decoys_glide_SP.5215

> <s_m_subgroup_title>
wee1_decoys_glide_SP

> <s_m_subgroupid>
wee1_decoys_glide_SP


$$$$
