ZINC08978262_4011
                    3D
 Schrodinger Suite 2024-2.
 50 54  0  0  1  0            999 V2000
    6.0662   54.0955   28.3545 C   0  0  0  0  0  0
    4.6745   54.1242   28.4570 C   0  0  0  0  0  0
    3.8665   54.2253   27.3259 C   0  0  0  0  0  0
    4.5021   54.3074   26.0789 C   0  0  0  0  0  0
    5.9128   54.2643   25.9591 C   0  0  0  0  0  0
    6.7029   54.1520   27.1126 C   0  0  0  0  0  0
    6.3890   54.3386   24.6876 N   0  0  0  0  0  0
    5.4216   54.4220   23.8090 C   0  0  0  0  0  0
    3.8059   54.4746   24.4828 S   0  0  0  0  0  0
    5.6518   54.5701   22.3577 C   0  0  0  0  0  0
    6.8146   55.1872   21.8529 C   0  0  0  0  0  0
    6.8404   55.2966   20.4708 C   0  0  0  0  0  0
    5.4179   54.6328   19.7407 S   0  0  0  0  0  0
    4.7803   54.2305   21.3025 C   0  0  0  0  0  0
    3.5055   53.6971   21.3409 N   0  0  0  0  0  0
    3.2565   52.3984   21.5943 C   0  0  0  0  0  0
    4.1444   51.5455   21.6719 O   0  0  0  0  0  0
    1.7747   52.0127   21.8449 C   0  0  1  0  0  0
    1.1601   52.8833   21.6164 H   0  0  0  0  0  0
    1.3525   50.7489   21.0528 C   0  0  0  0  0  0
    0.8085   49.7713   22.0853 C   0  0  0  0  0  0
    1.5841   50.1007   23.3534 C   0  0  0  0  0  0
    1.6516   51.5789   23.2733 N   0  0  0  0  0  0
    0.8275   52.5946   24.4727 S   0  0  0  0  0  0
    0.7050   53.9381   23.8971 O   0  0  0  0  0  0
    1.4989   52.4013   25.7614 O   0  0  0  0  0  0
   -0.8263   51.9298   24.6613 C   0  0  0  0  0  0
   -1.8910   52.4794   23.9465 C   0  0  0  0  0  0
   -3.1758   51.9713   24.1213 C   0  0  0  0  0  0
   -3.3893   50.9160   25.0044 C   0  0  0  0  0  0
   -2.3272   50.3607   25.7192 C   0  0  0  0  0  0
   -1.0434   50.8688   25.5476 C   0  0  0  0  0  0
   -4.9829   50.2947   25.2200 Cl  0  0  0  0  0  0
    6.6638   54.0304   29.2544 H   0  0  0  0  0  0
    4.2168   54.0696   29.4334 H   0  0  0  0  0  0
    2.7903   54.2465   27.4035 H   0  0  0  0  0  0
    7.7789   54.1095   27.0541 H   0  0  0  0  0  0
    7.6184   55.5417   22.4836 H   0  0  0  0  0  0
    7.6224   55.7132   19.8542 H   0  0  0  0  0  0
    2.7321   54.3183   21.1372 H   0  0  0  0  0  0
    2.1818   50.2848   20.5114 H   0  0  0  0  0  0
    0.5836   50.9866   20.3169 H   0  0  0  0  0  0
    0.9382   48.7322   21.7793 H   0  0  0  0  0  0
   -0.2600   49.9340   22.2473 H   0  0  0  0  0  0
    2.5973   49.6964   23.2858 H   0  0  0  0  0  0
    1.2150   49.7184   24.3057 H   0  0  0  0  0  0
   -1.7274   53.3125   23.2784 H   0  0  0  0  0  0
   -4.0054   52.4034   23.5811 H   0  0  0  0  0  0
   -2.4921   49.5453   26.4105 H   0  0  0  0  0  0
   -0.2280   50.4409   26.1154 H   0  0  0  0  0  0
  1  6  2  0  0  0
  1  2  1  0  0  0
  1 34  1  0  0  0
  2  3  2  0  0  0
  2 35  1  0  0  0
  3  4  1  0  0  0
  3 36  1  0  0  0
  4  9  1  0  0  0
  4  5  2  0  0  0
  5  6  1  0  0  0
  5  7  1  0  0  0
  6 37  1  0  0  0
  7  8  2  0  0  0
  8  9  1  0  0  0
  8 10  1  0  0  0
 10 14  2  0  0  0
 10 11  1  0  0  0
 11 12  2  0  0  0
 11 38  1  0  0  0
 12 13  1  0  0  0
 12 39  1  0  0  0
 13 14  1  0  0  0
 14 15  1  0  0  0
 15 16  1  0  0  0
 15 40  1  0  0  0
 16 17  2  0  0  0
 16 18  1  0  0  0
 18 19  1  0  0  0
 18 23  1  0  0  0
 18 20  1  0  0  0
 20 21  1  0  0  0
 20 41  1  0  0  0
 20 42  1  0  0  0
 21 22  1  0  0  0
 21 43  1  0  0  0
 21 44  1  0  0  0
 22 23  1  0  0  0
 22 45  1  0  0  0
 22 46  1  0  0  0
 23 24  1  0  0  0
 24 25  2  0  0  0
 24 26  2  0  0  0
 24 27  1  0  0  0
 27 32  2  0  0  0
 27 28  1  0  0  0
 28 29  2  0  0  0
 28 47  1  0  0  0
 29 30  1  0  0  0
 29 48  1  0  0  0
 30 31  2  0  0  0
 30 33  1  0  0  0
 31 32  1  0  0  0
 31 49  1  0  0  0
 32 50  1  0  0  0
M  END
> <i_i_glide_confnum>
107

> <i_i_glide_lignum>
4012

> <i_i_glide_posenum>
121

> <i_i_glide_rotatable_bonds>
6

> <i_m_Source_File_Index>
2881

> <b_m_subgroup_collapsed>
0

> <r_i_docking_score>
-6.23882

> <r_i_glide_ecoul>
-5.40873

> <r_i_glide_eff_state_penalty>
0

> <r_i_glide_einternal>
9.26965

> <r_i_glide_emodel>
-68.2483

> <r_i_glide_energy>
-53.6118

> <r_i_glide_erotb>
0.482809

> <r_i_glide_esite>
-0.00943688

> <r_i_glide_evdw>
-48.203

> <r_i_glide_gscore>
-6.23882

> <r_i_glide_hbond>
-0.32

> <r_i_glide_ligand_efficiency>
-0.194963

> <r_i_glide_ligand_efficiency_ln>
-1.39704

> <r_i_glide_ligand_efficiency_sa>
-0.61897

> <r_i_glide_lipo>
-3.00114

> <r_i_glide_metal>
0

> <r_i_glide_rewards>
-0.169591

> <s_i_glide_gridfile>
wee1_glide-grid

> <s_m_Source_File>
wee1_decoys_glide_SP.sdf

> <s_m_Source_Path>
/Users/zhangxujun/Desktop

> <s_m_entry_id>
3156

> <s_m_entry_name>
wee1_decoys_glide_SP.2881

> <s_m_subgroup_title>
wee1_decoys_glide_SP

> <s_m_subgroupid>
wee1_decoys_glide_SP


$$$$
