@<TRIPOS>MOLECULE
ZINC10435196_360
70   74    1
SMALL
USER_CHARGES


@<TRIPOS>ATOM
      1 C1          5.9348   55.1044   25.3192 C.3       1 UNK         0.0000 
      2 C2          4.7622   54.4967   24.5703 C.ar      1 UNK         0.0000 
      3 C3          3.4952   54.4501   25.1513 C.ar      1 UNK         0.0000 
      4 C4          2.4255   53.8847   24.4561 C.ar      1 UNK         0.0000 
      5 C5          2.6096   53.3344   23.1816 C.ar      1 UNK         0.0000 
      6 C6          3.8870   53.4232   22.5987 C.ar      1 UNK         0.0000 
      7 C7          4.9532   53.9980   23.2844 C.ar      1 UNK         0.0000 
      8 C8          1.4813   52.6733   22.4194 C.ar      1 UNK         0.0000 
      9 C9          0.2377   52.1243   22.8552 C.ar      1 UNK         0.0000 
     10 C10        -0.3557   51.6980   21.6718 C.ar      1 UNK         0.0000 
     11 N11         0.5325   51.9072   20.6549 N.pl3     1 UNK         0.0000 
     12 N12         1.6346   52.4968   21.1200 N.2       1 UNK         0.0000 
     13 C13         0.4121   51.5443   19.2922 C.ar      1 UNK         0.0000 
     14 C14        -0.8498   51.5077   18.6866 C.ar      1 UNK         0.0000 
     15 C15        -0.9697   51.1350   17.3500 C.ar      1 UNK         0.0000 
     16 C16         0.1671   50.7927   16.6221 C.ar      1 UNK         0.0000 
     17 C17         1.4255   50.8196   17.2164 C.ar      1 UNK         0.0000 
     18 C18         1.5513   51.2001   18.5487 C.ar      1 UNK         0.0000 
     19 C19        -0.3396   51.9084   24.2599 C.3       1 UNK         0.0000 
     20 H20         0.4397   52.0636   25.0046 H         1 UNK         0.0000 
     21 C21        -1.5745   52.7539   24.5471 C.3       1 UNK         0.0000 
     22 C22        -2.6616   51.7181   24.7081 C.2       1 UNK         0.0000 
     23 N23        -2.2046   50.5336   24.6434 N.2       1 UNK         0.0000 
     24 N24        -0.8642   50.5496   24.4439 N.am      1 UNK         0.0000 
     25 C25        -0.1166   49.4187   24.3846 C.2       1 UNK         0.0000 
     26 O26         1.1044   49.4614   24.2854 O.2       1 UNK         0.0000 
     27 C27        -0.7884   48.0396   24.3241 C.3       1 UNK         0.0000 
     28 C28        -2.3387   46.5500   25.6032 C.3       1 UNK         0.0000 
     29 C29        -2.7205   46.0704   27.0126 C.3       1 UNK         0.0000 
     30 O30        -3.5070   44.8968   26.8817 O.3       1 UNK         0.0000 
     31 C31        -4.0753   52.0656   24.9562 C.ar      1 UNK         0.0000 
     32 C32        -4.9969   51.0584   25.2782 C.ar      1 UNK         0.0000 
     33 C33        -6.3313   51.3685   25.5228 C.ar      1 UNK         0.0000 
     34 C34        -6.7718   52.6959   25.4423 C.ar      1 UNK         0.0000 
     35 C35        -5.8576   53.6940   25.1176 C.ar      1 UNK         0.0000 
     36 C36        -4.5186   53.3920   24.8814 C.ar      1 UNK         0.0000 
     37 O37        -8.0720   53.1035   25.6664 O.3       1 UNK         0.0000 
     38 C38        -9.0576   52.1312   25.9989 C.3       1 UNK         0.0000 
     39 H39         5.6435   55.5027   26.2910 H         1 UNK         0.0000 
     40 H40         6.7096   54.3516   25.4707 H         1 UNK         0.0000 
     41 H41         6.3753   55.9136   24.7357 H         1 UNK         0.0000 
     42 H42         3.3332   54.8598   26.1375 H         1 UNK         0.0000 
     43 H43         1.4525   53.8999   24.9182 H         1 UNK         0.0000 
     44 H44         4.0732   53.0280   21.6100 H         1 UNK         0.0000 
     45 H45         5.9284   54.0410   22.8201 H         1 UNK         0.0000 
     46 H46        -1.2909   51.1910   21.4896 H         1 UNK         0.0000 
     47 H47        -1.7403   51.7677   19.2378 H         1 UNK         0.0000 
     48 H48        -1.9414   51.1083   16.8800 H         1 UNK         0.0000 
     49 H49         0.0740   50.4972   15.5872 H         1 UNK         0.0000 
     50 H50         2.3050   50.5387   16.6517 H         1 UNK         0.0000 
     51 H51         2.5370   51.2065   18.9935 H         1 UNK         0.0000 
     52 H52        -1.7908   53.4547   23.7397 H         1 UNK         0.0000 
     53 H53        -1.4628   53.2964   25.4835 H         1 UNK         0.0000 
     54 H54        -0.0707   47.2583   24.0794 H         1 UNK         0.0000 
     55 H55        -1.6276   48.0346   23.6265 H         1 UNK         0.0000 
     56 H56        -1.8506   45.7586   25.0304 H         1 UNK         0.0000 
     57 H57        -3.1943   46.9645   25.0666 H         1 UNK         0.0000 
     58 H58        -3.2961   46.8256   27.5513 H         1 UNK         0.0000 
     59 H59        -1.8350   45.8419   27.6078 H         1 UNK         0.0000 
     60 H60        -3.2955   44.2945   27.6353 H         1 UNK         0.0000 
     61 H61        -4.6900   50.0246   25.3496 H         1 UNK         0.0000 
     62 H62        -7.0084   50.5663   25.7728 H         1 UNK         0.0000 
     63 H63        -6.2073   54.7096   25.0369 H         1 UNK         0.0000 
     64 H64        -3.8454   54.1984   24.6297 H         1 UNK         0.0000 
     65 H65       -10.0192   52.6265   26.1343 H         1 UNK         0.0000 
     66 H66        -9.1764   51.3933   25.2041 H         1 UNK         0.0000 
     67 H67        -8.8155   51.6185   26.9313 H         1 UNK         0.0000 
     68 N68        -1.3069   47.6967   25.6817 N.4       1 UNK         0.0000 
     69 H69        -1.7133   48.4881   26.1732 H         1 UNK         0.0000 
     70 H70        -0.5441   47.3809   26.2793 H         1 UNK         0.0000 
@<TRIPOS>BOND
     1    1    2 1    
     2    1   39 1    
     3    1   40 1    
     4    1   41 1    
     5    2    7 ar   
     6    2    3 ar   
     7    3    4 ar   
     8    3   42 1    
     9    4    5 ar   
    10    4   43 1    
    11    5    6 ar   
    12    5    8 1    
    13    6    7 ar   
    14    6   44 1    
    15    7   45 1    
    16    8   12 ar   
    17    8    9 ar   
    18    9   10 ar   
    19    9   19 1    
    20   10   11 ar   
    21   10   46 1    
    22   11   12 ar   
    23   11   13 1    
    24   13   18 ar   
    25   13   14 ar   
    26   14   15 ar   
    27   14   47 1    
    28   15   16 ar   
    29   15   48 1    
    30   16   17 ar   
    31   16   49 1    
    32   17   18 ar   
    33   17   50 1    
    34   18   51 1    
    35   19   20 1    
    36   19   24 1    
    37   19   21 1    
    38   21   22 1    
    39   21   52 1    
    40   21   53 1    
    41   22   23 2    
    42   22   31 1    
    43   23   24 1    
    44   24   25 am   BACKBONE|DICT|INTERRES
    45   25   26 2    
    46   25   27 1    
    47   27   54 1    
    48   27   55 1    
    49   27   68 1    
    50   28   29 1    
    51   28   56 1    
    52   28   57 1    
    53   28   68 1    
    54   29   30 1    
    55   29   58 1    
    56   29   59 1    
    57   30   60 1    
    58   31   36 ar   
    59   31   32 ar   
    60   32   33 ar   
    61   32   61 1    
    62   33   34 ar   
    63   33   62 1    
    64   34   35 ar   
    65   34   37 1    
    66   35   36 ar   
    67   35   63 1    
    68   36   64 1    
    69   37   38 1    
    70   38   65 1    
    71   38   66 1    
    72   38   67 1    
    73   68   69 1    
    74   68   70 1    
@<TRIPOS>SUBSTRUCTURE
     1 UNK         1 GROUP             0       ****    0 ROOT    
