@<TRIPOS>MOLECULE
ZINC00672931_2336
55   59    1
SMALL
USER_CHARGES


@<TRIPOS>ATOM
      1 C1          6.8219   55.2324   17.8783 C.3       1 UNK         0.0000 
      2 C2          6.7654   55.2124   19.3881 C.2       1 UNK         0.0000 
      3 C3          7.6826   55.6967   20.3146 C.2       1 UNK         0.0000 
      4 C4          7.3022   55.5103   21.6460 C.2       1 UNK         0.0000 
      5 C5          6.0816   54.8631   21.7936 C.2       1 UNK         0.0000 
      6 S6          5.4158   54.4974   20.2251 S.3       1 UNK         0.0000 
      7 C7          5.3539   54.4920   23.0489 C.ar      1 UNK         0.0000 
      8 C8          3.9981   54.1639   23.0610 C.ar      1 UNK         0.0000 
      9 C9          3.3145   53.9855   24.2705 C.ar      1 UNK         0.0000 
     10 C10         4.0623   54.1474   25.4985 C.ar      1 UNK         0.0000 
     11 C11         3.5114   54.0957   26.8161 C.ar      1 UNK         0.0000 
     12 C12         4.3265   54.1954   27.9403 C.ar      1 UNK         0.0000 
     13 C13         5.6966   54.3779   27.8086 C.ar      1 UNK         0.0000 
     14 C14         6.2715   54.4926   26.5490 C.ar      1 UNK         0.0000 
     15 C15         5.4694   54.4007   25.3857 C.ar      1 UNK         0.0000 
     16 N16         6.0874   54.5755   24.1863 N.ar      1 UNK         0.0000 
     17 C17         1.8446   53.6287   24.1897 C.2       1 UNK         0.0000 
     18 O18         1.1509   54.0960   23.2853 O.2       1 UNK         0.0000 
     19 N19         1.3865   52.7778   25.1320 N.am      1 UNK         0.0000 
     20 C20         0.1001   52.2498   25.2556 C.2       1 UNK         0.0000 
     21 C21        -0.5257   51.8173   26.4370 C.2       1 UNK         0.0000 
     22 C22        -1.8601   51.3720   26.2127 C.2       1 UNK         0.0000 
     23 C23        -2.2071   51.3713   24.8518 C.2       1 UNK         0.0000 
     24 S24        -0.9414   52.0478   23.8857 S.3       1 UNK         0.0000 
     25 C25        -3.5081   50.8926   24.2444 C.3       1 UNK         0.0000 
     26 C26        -4.7313   51.6965   24.7151 C.3       1 UNK         0.0000 
     27 C27        -5.1844   51.3766   26.1546 C.3       1 UNK         0.0000 
     28 C28        -4.1807   51.6952   27.2806 C.3       1 UNK         0.0000 
     29 C29        -2.8601   50.8951   27.2628 C.3       1 UNK         0.0000 
     30 C30         0.0720   51.9328   27.7546 C.2       1 UNK         0.0000 
     31 O31        -0.4957   52.4765   28.6980 O.2       1 UNK         0.0000 
     32 N32         1.3153   51.4669   27.8654 N.am      1 UNK         0.0000 
     33 H33         7.7255   55.7182   17.5086 H         1 UNK         0.0000 
     34 H34         6.8065   54.2241   17.4616 H         1 UNK         0.0000 
     35 H35         5.9738   55.7706   17.4527 H         1 UNK         0.0000 
     36 H36         8.6102   56.1715   20.0255 H         1 UNK         0.0000 
     37 H37         7.9008   55.8344   22.4833 H         1 UNK         0.0000 
     38 H38         3.4599   54.0942   22.1255 H         1 UNK         0.0000 
     39 H39         2.4529   53.9939   26.9781 H         1 UNK         0.0000 
     40 H40         3.8865   54.1411   28.9236 H         1 UNK         0.0000 
     41 H41         6.3134   54.4581   28.6931 H         1 UNK         0.0000 
     42 H42         7.3333   54.6494   26.4523 H         1 UNK         0.0000 
     43 H43         1.9865   52.6430   25.9313 H         1 UNK         0.0000 
     44 H44        -3.6695   49.8475   24.5093 H         1 UNK         0.0000 
     45 H45        -3.4502   50.9097   23.1563 H         1 UNK         0.0000 
     46 H46        -5.5640   51.4834   24.0437 H         1 UNK         0.0000 
     47 H47        -4.5376   52.7661   24.6108 H         1 UNK         0.0000 
     48 H48        -5.4627   50.3236   26.2168 H         1 UNK         0.0000 
     49 H49        -6.1050   51.9287   26.3513 H         1 UNK         0.0000 
     50 H50        -4.6782   51.5057   28.2327 H         1 UNK         0.0000 
     51 H51        -3.9567   52.7616   27.2781 H         1 UNK         0.0000 
     52 H52        -2.4299   50.9141   28.2639 H         1 UNK         0.0000 
     53 H53        -3.0822   49.8384   27.1048 H         1 UNK         0.0000 
     54 H54         1.6755   50.8356   27.1661 H         1 UNK         0.0000 
     55 H55         1.7898   51.5708   28.7488 H         1 UNK         0.0000 
@<TRIPOS>BOND
     1    1    2 1    
     2    1   33 1    
     3    1   34 1    
     4    1   35 1    
     5    2    6 1    
     6    2    3 2    
     7    3    4 1    
     8    3   36 1    
     9    4    5 2    
    10    4   37 1    
    11    5    6 1    
    12    5    7 1    
    13    7   16 ar   
    14    7    8 ar   
    15    8    9 ar   
    16    8   38 1    
    17    9   10 ar   
    18    9   17 1    
    19   10   15 ar   
    20   10   11 ar   
    21   11   12 ar   
    22   11   39 1    
    23   12   13 ar   
    24   12   40 1    
    25   13   14 ar   
    26   13   41 1    
    27   14   15 ar   
    28   14   42 1    
    29   15   16 ar   
    30   17   18 2    
    31   17   19 am   BACKBONE|DICT|INTERRES
    32   19   20 am   BACKBONE|DICT|INTERRES
    33   19   43 1    
    34   20   24 1    
    35   20   21 2    
    36   21   22 1    
    37   21   30 1    
    38   22   29 1    
    39   22   23 2    
    40   23   24 1    
    41   23   25 1    
    42   25   26 1    
    43   25   44 1    
    44   25   45 1    
    45   26   27 1    
    46   26   46 1    
    47   26   47 1    
    48   27   28 1    
    49   27   48 1    
    50   27   49 1    
    51   28   29 1    
    52   28   50 1    
    53   28   51 1    
    54   29   52 1    
    55   29   53 1    
    56   30   31 2    
    57   30   32 am   BACKBONE|DICT|INTERRES
    58   32   54 1    
    59   32   55 1    
@<TRIPOS>SUBSTRUCTURE
     1 UNK         1 GROUP             0       ****    0 ROOT    
