@<TRIPOS>MOLECULE
ZINC13121528_500
63   67    1
SMALL
USER_CHARGES


@<TRIPOS>ATOM
      1 C1         -1.5128   51.5806   22.7160 C.3       1 UNK         0.0000 
      2 C2         -0.2287   51.2542   23.4898 C.3       1 UNK         0.0000 
      3 H3          0.0244   50.2166   23.2561 H         1 UNK         0.0000 
      4 C4          0.8999   52.2112   22.9915 C.2       1 UNK         0.0000 
      5 O5          0.9654   53.3744   23.4013 O.2       1 UNK         0.0000 
      6 N6          1.7367   51.7109   22.0554 N.am      1 UNK         0.0000 
      7 C7          2.7733   52.4107   21.4123 C.ar      1 UNK         0.0000 
      8 C8          3.6043   53.3335   22.0811 C.ar      1 UNK         0.0000 
      9 C9          4.5768   54.0633   21.3886 C.ar      1 UNK         0.0000 
     10 C10         4.7193   53.8271   20.0244 C.ar      1 UNK         0.0000 
     11 C11         3.9480   52.9009   19.3781 C.ar      1 UNK         0.0000 
     12 C12         2.9736   52.1642   20.0478 C.ar      1 UNK         0.0000 
     13 N13         4.3646   52.8976   18.0681 N.pl3     1 UNK         0.0000 
     14 H14         4.1208   52.1915   17.3870 H         1 UNK         0.0000 
     15 C15         5.3443   53.8025   17.8604 C.ar      1 UNK         0.0000 
     16 O16         5.9383   54.0431   16.8128 O.2       1 UNK         0.0000 
     17 N17         5.5503   54.3651   19.0699 N.pl3     1 UNK         0.0000 
     18 H18         6.2391   55.0837   19.2307 H         1 UNK         0.0000 
     19 N19        -0.4278   51.3301   24.9603 N.3       1 UNK         0.0000 
     20 C20        -1.2369   52.4436   25.5078 C.3       1 UNK         0.0000 
     21 C21        -1.2264   52.6366   27.0520 C.3       1 UNK         0.0000 
     22 N22        -0.0647   52.0431   27.7454 N.pl3     1 UNK         0.0000 
     23 C23         0.3579   50.7491   27.2411 C.3       1 UNK         0.0000 
     24 C24         0.7047   50.8196   25.7486 C.3       1 UNK         0.0000 
     25 S25         0.9821   52.9323   28.8697 S.o2      1 UNK         0.0000 
     26 O26         0.2994   54.1520   29.3057 O.2       1 UNK         0.0000 
     27 O27         1.5502   51.9927   29.8437 O.2       1 UNK         0.0000 
     28 C28         2.3490   53.4663   27.8705 C.ar      1 UNK         0.0000 
     29 C29         2.1112   53.9145   26.5813 C.ar      1 UNK         0.0000 
     30 C30         3.1658   54.3044   25.7737 C.ar      1 UNK         0.0000 
     31 C31         4.4782   54.2675   26.2374 C.ar      1 UNK         0.0000 
     32 C32         4.7192   53.8878   27.5784 C.ar      1 UNK         0.0000 
     33 C33         3.6475   53.4662   28.3710 C.ar      1 UNK         0.0000 
     34 C34         6.1017   54.0104   28.2023 C.3       1 UNK         0.0000 
     35 C35         7.2278   54.1343   27.1668 C.3       1 UNK         0.0000 
     36 C36         6.8648   55.0778   26.0050 C.3       1 UNK         0.0000 
     37 C37         5.6178   54.5780   25.2768 C.3       1 UNK         0.0000 
     38 H38        -1.3767   51.3729   21.6531 H         1 UNK         0.0000 
     39 H39        -2.3290   50.9551   23.0818 H         1 UNK         0.0000 
     40 H40        -1.7923   52.6298   22.8288 H         1 UNK         0.0000 
     41 H41         1.5119   50.8065   21.6684 H         1 UNK         0.0000 
     42 H42         3.4936   53.4852   23.1388 H         1 UNK         0.0000 
     43 H43         5.1934   54.7805   21.9098 H         1 UNK         0.0000 
     44 H44         2.3715   51.4403   19.5173 H         1 UNK         0.0000 
     45 H45        -0.6482   53.2922   25.1845 H         1 UNK         0.0000 
     46 H46        -2.2516   52.4922   25.1091 H         1 UNK         0.0000 
     47 H47        -2.0798   52.0987   27.4680 H         1 UNK         0.0000 
     48 H48        -1.2971   53.6950   27.2831 H         1 UNK         0.0000 
     49 H49        -0.4248   50.0311   27.4537 H         1 UNK         0.0000 
     50 H50         1.2581   50.4950   27.7960 H         1 UNK         0.0000 
     51 H51         1.0809   49.8616   25.3853 H         1 UNK         0.0000 
     52 H52         1.4638   51.5956   25.6586 H         1 UNK         0.0000 
     53 H53         1.1087   53.9619   26.1911 H         1 UNK         0.0000 
     54 H54         2.9457   54.6500   24.7760 H         1 UNK         0.0000 
     55 H55         3.8262   53.1652   29.3936 H         1 UNK         0.0000 
     56 H56         6.0944   54.8974   28.8320 H         1 UNK         0.0000 
     57 H57         6.2915   53.1771   28.8785 H         1 UNK         0.0000 
     58 H58         7.4709   53.1430   26.7821 H         1 UNK         0.0000 
     59 H59         8.1110   54.5018   27.6826 H         1 UNK         0.0000 
     60 H60         7.6712   55.1309   25.2732 H         1 UNK         0.0000 
     61 H61         6.7021   56.0903   26.3766 H         1 UNK         0.0000 
     62 H62         5.8665   53.6592   24.7427 H         1 UNK         0.0000 
     63 H63         5.3078   55.2968   24.5170 H         1 UNK         0.0000 
@<TRIPOS>BOND
     1    1    2 1    
     2    1   38 1    
     3    1   39 1    
     4    1   40 1    
     5    2    3 1    
     6    2    4 1    
     7    2   19 1    
     8    4    5 2    
     9    4    6 am   BACKBONE|DICT|INTERRES
    10    6    7 1    
    11    6   41 1    
    12    7   12 ar   
    13    7    8 ar   
    14    8    9 ar   
    15    8   42 1    
    16    9   10 ar   
    17    9   43 1    
    18   10   17 ar   
    19   10   11 ar   
    20   11   12 ar   
    21   11   13 ar   
    22   12   44 1    
    23   13   14 1    
    24   13   15 ar   
    25   15   16 2    
    26   15   17 ar   
    27   17   18 1    
    28   19   24 1    
    29   19   20 1    
    30   20   21 1    
    31   20   45 1    
    32   20   46 1    
    33   21   22 1    
    34   21   47 1    
    35   21   48 1    
    36   22   23 1    
    37   22   25 1    
    38   23   24 1    
    39   23   49 1    
    40   23   50 1    
    41   24   51 1    
    42   24   52 1    
    43   25   26 2    
    44   25   27 2    
    45   25   28 1    
    46   28   33 ar   
    47   28   29 ar   
    48   29   30 ar   
    49   29   53 1    
    50   30   31 ar   
    51   30   54 1    
    52   31   37 1    
    53   31   32 ar   
    54   32   33 ar   
    55   32   34 1    
    56   33   55 1    
    57   34   35 1    
    58   34   56 1    
    59   34   57 1    
    60   35   36 1    
    61   35   58 1    
    62   35   59 1    
    63   36   37 1    
    64   36   60 1    
    65   36   61 1    
    66   37   62 1    
    67   37   63 1    
@<TRIPOS>SUBSTRUCTURE
     1 UNK         1 GROUP             0       ****    0 ROOT    
