ZINC20352483_3449
                    3D
 Schrodinger Suite 2024-2.
 48 49  0  0  1  0            999 V2000
    0.8778   51.4447   27.8508 C   0  0  0  0  0  0
    1.6110   52.7135   28.2586 C   0  0  0  0  0  0
    2.7468   53.1160   27.5520 C   0  0  0  0  0  0
    3.4375   54.2755   27.9128 C   0  0  0  0  0  0
    2.9654   55.0500   28.9732 C   0  0  0  0  0  0
    1.8340   54.6579   29.6815 C   0  0  0  0  0  0
    1.1706   53.4813   29.3423 C   0  0  0  0  0  0
   -0.4683   52.8962   30.4929 I   0  0  0  0  0  0
    4.5786   54.7012   27.2247 N   0  0  0  0  0  0
    5.5940   53.8759   26.6179 C   0  0  2  0  0  0
    5.1720   52.9161   26.3194 H   0  0  0  0  0  0
    6.7763   53.5924   27.5619 C   0  0  0  0  0  0
    6.0411   54.6467   25.3497 C   0  0  0  0  0  0
    6.7034   55.6864   25.4567 O   0  0  0  0  0  0
    5.6292   54.0968   24.1904 N   0  0  0  0  0  0
    5.9088   54.5987   22.9724 N   0  0  0  0  0  0
    5.3823   53.9212   22.0312 C   0  0  0  0  0  0
    5.5044   54.2357   20.5924 C   0  0  0  0  0  0
    4.9729   53.3002   19.6922 C   0  0  0  0  0  0
    5.0952   53.4682   18.3183 C   0  0  0  0  0  0
    5.7401   54.5874   17.8090 C   0  0  0  0  0  0
    6.2525   55.5611   18.6702 C   0  0  0  0  0  0
    6.1467   55.3830   20.0634 C   0  0  0  0  0  0
    6.6837   56.3348   20.8997 O   0  0  0  0  0  0
    6.9193   56.7934   18.0520 C   0  0  0  0  0  0
    5.9724   57.8242   17.4486 C   0  0  0  0  0  0
    4.6440   57.6979   17.2816 C   0  0  0  0  0  0
   -0.0146   51.6838   27.2710 H   0  0  0  0  0  0
    1.5048   50.7630   27.2799 H   0  0  0  0  0  0
    0.5609   50.8957   28.7338 H   0  0  0  0  0  0
    3.0804   52.5240   26.7155 H   0  0  0  0  0  0
    3.4706   55.9578   29.2628 H   0  0  0  0  0  0
    1.4815   55.2584   30.5072 H   0  0  0  0  0  0
    4.9459   55.5754   27.5761 H   0  0  0  0  0  0
    7.4814   52.9000   27.1042 H   0  0  0  0  0  0
    7.3170   54.4969   27.8440 H   0  0  0  0  0  0
    6.4258   53.1254   28.4815 H   0  0  0  0  0  0
    5.0677   53.2592   24.1957 H   0  0  0  0  0  0
    4.7945   53.0243   22.2276 H   0  0  0  0  0  0
    4.4771   52.4029   20.0384 H   0  0  0  0  0  0
    4.7046   52.7144   17.6479 H   0  0  0  0  0  0
    5.8260   54.7079   16.7384 H   0  0  0  0  0  0
    6.5946   56.0445   21.8153 H   0  0  0  0  0  0
    7.5948   56.4621   17.2609 H   0  0  0  0  0  0
    7.5595   57.2967   18.7776 H   0  0  0  0  0  0
    6.4386   58.7447   17.1242 H   0  0  0  0  0  0
    4.1065   56.8106   17.5777 H   0  0  0  0  0  0
    4.0711   58.5017   16.8396 H   0  0  0  0  0  0
  1  2  1  0  0  0
  1 28  1  0  0  0
  1 29  1  0  0  0
  1 30  1  0  0  0
  2  7  2  0  0  0
  2  3  1  0  0  0
  3  4  2  0  0  0
  3 31  1  0  0  0
  4  5  1  0  0  0
  4  9  1  0  0  0
  5  6  2  0  0  0
  5 32  1  0  0  0
  6  7  1  0  0  0
  6 33  1  0  0  0
  7  8  1  0  0  0
  9 10  1  0  0  0
  9 34  1  0  0  0
 10 11  1  0  0  0
 10 12  1  0  0  0
 10 13  1  0  0  0
 12 35  1  0  0  0
 12 36  1  0  0  0
 12 37  1  0  0  0
 13 14  2  0  0  0
 13 15  1  0  0  0
 15 16  1  0  0  0
 15 38  1  0  0  0
 16 17  2  0  0  0
 17 18  1  0  0  0
 17 39  1  0  0  0
 18 23  2  0  0  0
 18 19  1  0  0  0
 19 20  2  0  0  0
 19 40  1  0  0  0
 20 21  1  0  0  0
 20 41  1  0  0  0
 21 22  2  0  0  0
 21 42  1  0  0  0
 22 23  1  0  0  0
 22 25  1  0  0  0
 23 24  1  0  0  0
 24 43  1  0  0  0
 25 26  1  0  0  0
 25 44  1  0  0  0
 25 45  1  0  0  0
 26 27  2  0  0  0
 26 46  1  0  0  0
 27 47  1  0  0  0
 27 48  1  0  0  0
M  END
> <i_i_glide_confnum>
171

> <i_i_glide_lignum>
3450

> <i_i_glide_posenum>
91

> <i_i_glide_rotatable_bonds>
9

> <i_m_Source_File_Index>
5884

> <b_m_subgroup_collapsed>
0

> <r_i_docking_score>
-5.39736

> <r_i_glide_ecoul>
-4.84627

> <r_i_glide_eff_state_penalty>
0

> <r_i_glide_einternal>
10.5223

> <r_i_glide_emodel>
-56.0604

> <r_i_glide_energy>
-45.693

> <r_i_glide_erotb>
0.750989

> <r_i_glide_esite>
0

> <r_i_glide_evdw>
-40.8467

> <r_i_glide_gscore>
-5.39736

> <r_i_glide_hbond>
-0.414586

> <r_i_glide_ligand_efficiency>
-0.207591

> <r_i_glide_ligand_efficiency_ln>
-1.26755

> <r_i_glide_ligand_efficiency_sa>
-0.614987

> <r_i_glide_lipo>
-2.02046

> <r_i_glide_metal>
0

> <r_i_glide_rewards>
-0.944029

> <s_i_glide_gridfile>
wee1_glide-grid

> <s_m_Source_File>
wee1_decoys_glide_SP.sdf

> <s_m_Source_Path>
/Users/zhangxujun/Desktop

> <s_m_entry_id>
6159

> <s_m_entry_name>
wee1_decoys_glide_SP.5884

> <s_m_subgroup_title>
wee1_decoys_glide_SP

> <s_m_subgroupid>
wee1_decoys_glide_SP


$$$$
