ZINC64104269_3091
                    3D
 Schrodinger Suite 2024-2.
 44 46  0  0  1  0            999 V2000
    3.7562   54.2619   25.4937 C   0  0  0  0  0  0
    4.0047   54.0968   24.1285 C   0  0  0  0  0  0
    5.3501   54.2004   23.7705 C   0  0  0  0  0  0
    6.3063   54.5280   25.1933 S   0  0  0  0  0  0
    4.9115   54.5012   26.2154 C   0  0  0  0  0  0
    5.9982   54.0450   22.4099 C   0  0  0  0  0  0
    5.3999   54.9870   21.3490 C   0  0  0  0  0  0
    6.0525   54.8968   20.0499 N   0  0  0  0  0  0
    6.9203   55.8042   19.5498 C   0  0  0  0  0  0
    7.1043   56.8968   20.0818 O   0  0  0  0  0  0
    7.6436   55.4759   18.4560 N   0  0  0  0  0  0
    7.6001   54.3533   17.7030 C   0  0  0  0  0  0
    6.7105   53.4996   17.7661 O   0  0  0  0  0  0
    8.7211   54.2109   16.6719 C   0  0  0  0  0  0
    8.9971   52.8250   16.5108 O   0  0  0  0  0  0
    9.9918   52.4002   15.7312 C   0  0  0  0  0  0
   10.7570   53.1159   15.0804 O   0  0  0  0  0  0
   10.0910   50.8709   15.7516 C   0  0  1  0  0  0
    9.1053   50.4243   15.8924 H   0  0  0  0  0  0
   10.8524   50.2986   14.5810 C   0  0  0  0  0  0
   11.9529   49.6839   15.0499 C   0  0  0  0  0  0
   13.0421   48.9816   14.3630 C   0  0  0  0  0  0
   14.0602   48.4240   15.0494 C   0  0  0  0  0  0
   14.0493   48.5711   16.4996 C   0  0  0  0  0  0
   13.0629   49.2372   17.1558 C   0  0  0  0  0  0
   11.9953   49.7964   16.4426 C   0  0  0  0  0  0
   10.9531   50.4681   16.8817 N   0  3  0  0  0  0
   15.5090   47.4601   14.1204 Br  0  0  0  0  0  0
   10.3043   50.4966   12.9115 Cl  0  0  0  0  0  0
    2.7716   54.2033   25.9355 H   0  0  0  0  0  0
    3.2228   53.8948   23.4116 H   0  0  0  0  0  0
    5.0106   54.6607   27.2792 H   0  0  0  0  0  0
    7.0726   54.2216   22.4835 H   0  0  0  0  0  0
    5.8748   53.0119   22.0815 H   0  0  0  0  0  0
    4.3303   54.8106   21.2275 H   0  0  0  0  0  0
    5.5043   56.0125   21.6816 H   0  0  0  0  0  0
    5.8093   54.1088   19.4604 H   0  0  0  0  0  0
    8.3527   56.1524   18.2166 H   0  0  0  0  0  0
    8.4095   54.6799   15.7370 H   0  0  0  0  0  0
    9.6179   54.7311   17.0188 H   0  0  0  0  0  0
   13.0596   48.8966   13.2845 H   0  0  0  0  0  0
   14.8602   48.1371   17.0657 H   0  0  0  0  0  0
   13.1089   49.3146   18.2332 H   0  0  0  0  0  0
   10.7645   50.6991   17.8614 H   0  0  0  0  0  0
  1  5  2  0  0  0
  1  2  1  0  0  0
  1 30  1  0  0  0
  2  3  2  0  0  0
  2 31  1  0  0  0
  3  4  1  0  0  0
  3  6  1  0  0  0
  4  5  1  0  0  0
  5 32  1  0  0  0
  6  7  1  0  0  0
  6 33  1  0  0  0
  6 34  1  0  0  0
  7  8  1  0  0  0
  7 35  1  0  0  0
  7 36  1  0  0  0
  8  9  1  0  0  0
  8 37  1  0  0  0
  9 10  2  0  0  0
  9 11  1  0  0  0
 11 12  1  0  0  0
 11 38  1  0  0  0
 12 13  2  0  0  0
 12 14  1  0  0  0
 14 15  1  0  0  0
 14 39  1  0  0  0
 14 40  1  0  0  0
 15 16  1  0  0  0
 16 17  2  0  0  0
 16 18  1  0  0  0
 18 19  1  0  0  0
 18 27  1  0  0  0
 18 20  1  0  0  0
 20 21  2  0  0  0
 20 29  1  0  0  0
 21 26  1  0  0  0
 21 22  1  0  0  0
 22 23  2  0  0  0
 22 41  1  0  0  0
 23 24  1  0  0  0
 23 28  1  0  0  0
 24 25  2  0  0  0
 24 42  1  0  0  0
 25 26  1  0  0  0
 25 43  1  0  0  0
 26 27  2  0  0  0
 27 44  1  0  0  0
M  CHG  1  27   1
M  END
> <i_i_glide_confnum>
29

> <i_i_glide_lignum>
3092

> <i_i_glide_posenum>
208

> <i_i_glide_rotatable_bonds>
10

> <i_m_Source_File_Index>
1071

> <b_m_subgroup_collapsed>
0

> <r_i_docking_score>
-4.36875

> <r_i_glide_ecoul>
-9.55666

> <r_i_glide_eff_state_penalty>
0

> <r_i_glide_einternal>
5.66485

> <r_i_glide_emodel>
-52.4615

> <r_i_glide_energy>
-43.0655

> <r_i_glide_erotb>
0.688834

> <r_i_glide_esite>
-0.00365225

> <r_i_glide_evdw>
-33.5089

> <r_i_glide_gscore>
-4.36875

> <r_i_glide_hbond>
-0.29869

> <r_i_glide_ligand_efficiency>
-0.156027

> <r_i_glide_ligand_efficiency_ln>
-1.00844

> <r_i_glide_ligand_efficiency_sa>
-0.473789

> <r_i_glide_lipo>
-1.9751

> <r_i_glide_metal>
0

> <r_i_glide_rewards>
0.328793

> <s_i_glide_gridfile>
wee1_glide-grid

> <s_m_Source_File>
wee1_decoys_glide_SP.sdf

> <s_m_Source_Path>
/Users/zhangxujun/Desktop

> <s_m_entry_id>
1346

> <s_m_entry_name>
wee1_decoys_glide_SP.1071

> <s_m_subgroup_title>
wee1_decoys_glide_SP

> <s_m_subgroupid>
wee1_decoys_glide_SP


$$$$
