@<TRIPOS>MOLECULE
ZINC44714599_405
79   83    1
SMALL
USER_CHARGES


@<TRIPOS>ATOM
      1 C1          1.0471   48.8082   16.6724 C.3       1 UNK         0.0000 
      2 C2         -0.1851   49.2421   17.4246 C.ar      1 UNK         0.0000 
      3 C3         -0.3426   50.3092   18.3045 C.ar      1 UNK         0.0000 
      4 C4         -1.6609   50.2723   18.7379 C.ar      1 UNK         0.0000 
      5 N5         -2.2249   49.1825   18.0852 N.pl3     1 UNK         0.0000 
      6 N6         -1.3039   48.5660   17.3117 N.2       1 UNK         0.0000 
      7 C7         -3.6030   48.5923   18.1799 C.3       1 UNK         0.0000 
      8 C8         -3.6729   47.7070   19.4433 C.3       1 UNK         0.0000 
      9 C9         -3.9223   47.7148   16.9342 C.3       1 UNK         0.0000 
     10 C10        -4.6866   49.7009   18.2324 C.3       1 UNK         0.0000 
     11 C11        -2.2580   51.0943   19.7531 C.2       1 UNK         0.0000 
     12 O12        -2.8966   52.0966   19.4301 O.2       1 UNK         0.0000 
     13 N13        -2.0697   50.7056   21.0381 N.am      1 UNK         0.0000 
     14 C14        -2.4951   51.5514   22.1617 C.3       1 UNK         0.0000 
     15 C15        -1.4627   51.2319   23.2597 C.3       1 UNK         0.0000 
     16 H16        -1.8988   51.3745   24.2459 H         1 UNK         0.0000 
     17 C17        -1.1223   49.7258   23.0094 C.3       1 UNK         0.0000 
     18 C18        -1.1419   49.6443   21.4686 C.3       1 UNK         0.0000 
     19 C19        -2.2390   48.7599   23.5179 C.3       1 UNK         0.0000 
     20 C20        -2.3855   48.7814   25.0544 C.3       1 UNK         0.0000 
     21 N21        -1.0229   48.4154   25.6816 N.4       1 UNK         0.0000 
     22 C22         0.1812   49.2257   25.1554 C.3       1 UNK         0.0000 
     23 C23         0.1834   49.1377   23.6164 C.3       1 UNK         0.0000 
     24 C24        -0.2250   52.1601   23.1295 C.2       1 UNK         0.0000 
     25 O25         0.3015   52.3492   22.0328 O.2       1 UNK         0.0000 
     26 N26         0.1747   52.8060   24.2370 N.am      1 UNK         0.0000 
     27 C27         1.3128   53.7260   24.3038 C.3       1 UNK         0.0000 
     28 C28         2.6564   53.0467   23.9822 C.3       1 UNK         0.0000 
     29 C29         3.8692   53.7873   24.5039 C.ar      1 UNK         0.0000 
     30 C30         4.8959   54.3689   23.7737 C.ar      1 UNK         0.0000 
     31 N31         5.8473   54.8410   24.6463 N.pl3     1 UNK         0.0000 
     32 H32         6.6916   55.2880   24.3213 H         1 UNK         0.0000 
     33 C33         5.4947   54.5626   25.9475 C.ar      1 UNK         0.0000 
     34 C34         4.2355   53.9030   25.8885 C.ar      1 UNK         0.0000 
     35 C35         3.6410   53.4663   27.0830 C.ar      1 UNK         0.0000 
     36 C36         4.3151   53.6576   28.2884 C.ar      1 UNK         0.0000 
     37 C37         5.5327   54.3347   28.3177 C.ar      1 UNK         0.0000 
     38 C38         6.1518   54.8002   27.1579 C.ar      1 UNK         0.0000 
     39 C39         3.7623   53.0976   29.5118 C.1       1 UNK         0.0000 
     40 N40         3.3243   52.6450   30.4818 N.1       1 UNK         0.0000 
     41 C41         5.0963   54.4966   22.2803 C.3       1 UNK         0.0000 
     42 H42         1.9038   49.4392   16.9086 H         1 UNK         0.0000 
     43 H43         1.3339   47.7837   16.9111 H         1 UNK         0.0000 
     44 H44         0.9024   48.8624   15.5938 H         1 UNK         0.0000 
     45 H45         0.4260   51.0089   18.6056 H         1 UNK         0.0000 
     46 H46        -4.6434   47.2144   19.5298 H         1 UNK         0.0000 
     47 H47        -3.5299   48.2903   20.3526 H         1 UNK         0.0000 
     48 H48        -2.9088   46.9268   19.4282 H         1 UNK         0.0000 
     49 H49        -3.8295   48.2836   16.0075 H         1 UNK         0.0000 
     50 H50        -3.2565   46.8542   16.8550 H         1 UNK         0.0000 
     51 H51        -4.9372   47.3179   16.9673 H         1 UNK         0.0000 
     52 H52        -4.5115   50.4710   17.4779 H         1 UNK         0.0000 
     53 H53        -5.6843   49.2965   18.0507 H         1 UNK         0.0000 
     54 H54        -4.7399   50.1896   19.2053 H         1 UNK         0.0000 
     55 H55        -2.5009   52.6233   21.9624 H         1 UNK         0.0000 
     56 H56        -3.4665   51.2304   22.5390 H         1 UNK         0.0000 
     57 H57        -1.3127   48.6461   21.0654 H         1 UNK         0.0000 
     58 H58        -0.1460   49.9286   21.1245 H         1 UNK         0.0000 
     59 H59        -3.2032   49.0293   23.0837 H         1 UNK         0.0000 
     60 H60        -2.0624   47.7393   23.1715 H         1 UNK         0.0000 
     61 H61        -2.6659   49.7512   25.4658 H         1 UNK         0.0000 
     62 H62        -3.0963   48.0385   25.4207 H         1 UNK         0.0000 
     63 H63        -1.0976   48.4978   26.7008 H         1 UNK         0.0000 
     64 H64         0.0669   50.2414   25.5341 H         1 UNK         0.0000 
     65 H65         1.0702   48.7751   25.6032 H         1 UNK         0.0000 
     66 H66         0.3271   48.1026   23.3012 H         1 UNK         0.0000 
     67 H67         1.0556   49.6738   23.2399 H         1 UNK         0.0000 
     68 H68        -0.3415   52.6664   25.0922 H         1 UNK         0.0000 
     69 H69         1.1566   54.5966   23.6651 H         1 UNK         0.0000 
     70 H70         1.3354   54.0977   25.3255 H         1 UNK         0.0000 
     71 H71         2.6551   52.0484   24.4111 H         1 UNK         0.0000 
     72 H72         2.7350   52.8979   22.9045 H         1 UNK         0.0000 
     73 H73         2.7047   52.9308   27.0556 H         1 UNK         0.0000 
     74 H74         6.0374   54.4963   29.2575 H         1 UNK         0.0000 
     75 H75         7.1046   55.2969   27.2126 H         1 UNK         0.0000 
     76 H76         4.1786   54.8164   21.7848 H         1 UNK         0.0000 
     77 H77         5.8692   55.2194   22.0158 H         1 UNK         0.0000 
     78 H78         5.3769   53.5397   21.8366 H         1 UNK         0.0000 
     79 H79        -0.8320   47.4348   25.5276 H         1 UNK         0.0000 
@<TRIPOS>BOND
     1    1    2 1    
     2    1   42 1    
     3    1   43 1    
     4    1   44 1    
     5    2    6 ar   
     6    2    3 ar   
     7    3    4 ar   
     8    3   45 1    
     9    4    5 ar   
    10    4   11 1    
    11    5    6 ar   
    12    5    7 1    
    13    7    8 1    
    14    7    9 1    
    15    7   10 1    
    16    8   46 1    
    17    8   47 1    
    18    8   48 1    
    19    9   49 1    
    20    9   50 1    
    21    9   51 1    
    22   10   52 1    
    23   10   53 1    
    24   10   54 1    
    25   11   12 2    
    26   11   13 am   BACKBONE|DICT|INTERRES
    27   13   18 1    
    28   13   14 1    
    29   14   15 1    
    30   14   55 1    
    31   14   56 1    
    32   15   16 1    
    33   15   17 1    
    34   15   24 1    
    35   17   23 1    
    36   17   18 1    
    37   17   19 1    
    38   18   57 1    
    39   18   58 1    
    40   19   20 1    
    41   19   59 1    
    42   19   60 1    
    43   20   21 1    
    44   20   61 1    
    45   20   62 1    
    46   21   22 1    
    47   21   63 1    
    48   21   79 1    
    49   22   23 1    
    50   22   64 1    
    51   22   65 1    
    52   23   66 1    
    53   23   67 1    
    54   24   25 2    
    55   24   26 am   BACKBONE|DICT|INTERRES
    56   26   27 1    
    57   26   68 1    
    58   27   28 1    
    59   27   69 1    
    60   27   70 1    
    61   28   29 1    
    62   28   71 1    
    63   28   72 1    
    64   29   34 ar   
    65   29   30 ar   
    66   30   31 ar   
    67   30   41 1    
    68   31   32 1    
    69   31   33 ar   
    70   33   38 ar   
    71   33   34 ar   
    72   34   35 ar   
    73   35   36 ar   
    74   35   73 1    
    75   36   37 ar   
    76   36   39 1    
    77   37   38 ar   
    78   37   74 1    
    79   38   75 1    
    80   39   40 3    
    81   41   76 1    
    82   41   77 1    
    83   41   78 1    
@<TRIPOS>SUBSTRUCTURE
     1 UNK         1 GROUP             0       ****    0 ROOT    
