@<TRIPOS>MOLECULE
ZINC12711332_3133
56   59    1
SMALL
USER_CHARGES


@<TRIPOS>ATOM
      1 C1         -2.4612   51.6968   27.1586 C.ar      1 UNK         0.0000 
      2 C2         -2.1662   51.4132   25.8265 C.ar      1 UNK         0.0000 
      3 C3         -0.8742   51.0017   25.4395 C.ar      1 UNK         0.0000 
      4 C4          0.1115   50.9537   26.4360 C.ar      1 UNK         0.0000 
      5 C5         -0.1622   51.3010   27.7553 C.ar      1 UNK         0.0000 
      6 C6         -1.4538   51.6608   28.1203 C.ar      1 UNK         0.0000 
      7 F7          0.8273   51.2964   28.6777 F         1 UNK         0.0000 
      8 N8         -0.5263   50.7523   24.0619 N.am      1 UNK         0.0000 
      9 C9          0.7805   51.3126   23.5500 C.3       1 UNK         0.0000 
     10 H10         1.4982   50.8849   24.2460 H         1 UNK         0.0000 
     11 C11         1.2992   50.8465   22.2128 C.2       1 UNK         0.0000 
     12 C12         1.9114   49.6228   21.9693 C.2       1 UNK         0.0000 
     13 C13         2.2641   49.4365   20.6290 C.2       1 UNK         0.0000 
     14 C14         1.9590   50.5326   19.8375 C.2       1 UNK         0.0000 
     15 S15         1.1820   51.7908   20.7435 S.3       1 UNK         0.0000 
     16 C16         1.0164   52.8286   23.7838 C.2       1 UNK         0.0000 
     17 O17         0.0761   53.5639   24.0818 O.2       1 UNK         0.0000 
     18 N18         2.2893   53.2505   23.6804 N.am      1 UNK         0.0000 
     19 C19         2.7482   54.5893   24.0492 C.3       1 UNK         0.0000 
     20 C20         3.5043   54.6460   25.4007 C.3       1 UNK         0.0000 
     21 H21         3.5800   55.6968   25.6819 H         1 UNK         0.0000 
     22 C22         4.9470   54.1599   25.3619 C.3       1 UNK         0.0000 
     23 C23         5.2271   53.7808   26.8025 C.3       1 UNK         0.0000 
     24 C24         3.8438   53.5362   27.4230 C.3       1 UNK         0.0000 
     25 O25         2.8877   53.8555   26.4115 O.3       1 UNK         0.0000 
     26 C26        -1.4409   50.1658   23.2119 C.2       1 UNK         0.0000 
     27 O27        -1.4901   50.3554   21.9954 O.2       1 UNK         0.0000 
     28 C28        -2.3729   49.2206   23.7961 C.2       1 UNK         0.0000 
     29 C29        -2.1437   48.1334   24.6407 C.2       1 UNK         0.0000 
     30 C30        -3.3571   47.4926   24.9780 C.2       1 UNK         0.0000 
     31 N31        -4.4492   47.9326   24.3793 N.2       1 UNK         0.0000 
     32 S32        -4.0456   49.2320   23.3450 S.3       1 UNK         0.0000 
     33 C33        -3.5266   46.3569   25.8552 C.2       1 UNK         0.0000 
     34 O34        -4.0954   45.3221   25.4986 O.2       1 UNK         0.0000 
     35 N35        -3.0220   46.4960   27.0826 N.am      1 UNK         0.0000 
     36 N36        -0.8956   47.7593   25.0760 N.pl3     1 UNK         0.0000 
     37 H37        -3.4644   51.9802   27.4395 H         1 UNK         0.0000 
     38 H38        -2.9562   51.5193   25.0988 H         1 UNK         0.0000 
     39 H39         1.1044   50.6368   26.2076 H         1 UNK         0.0000 
     40 H40        -1.6721   51.8945   29.1514 H         1 UNK         0.0000 
     41 H41         2.0846   48.8895   22.7422 H         1 UNK         0.0000 
     42 H42         2.7266   48.5381   20.2486 H         1 UNK         0.0000 
     43 H43         2.1470   50.6519   18.7789 H         1 UNK         0.0000 
     44 H44         2.9915   52.5930   23.3772 H         1 UNK         0.0000 
     45 H45         1.9147   55.2917   24.0819 H         1 UNK         0.0000 
     46 H46         3.3870   54.9663   23.2506 H         1 UNK         0.0000 
     47 H47         5.6303   54.8916   24.9285 H         1 UNK         0.0000 
     48 H48         5.0229   53.2967   24.7045 H         1 UNK         0.0000 
     49 H49         5.7317   54.5979   27.3208 H         1 UNK         0.0000 
     50 H50         5.8671   52.9005   26.8765 H         1 UNK         0.0000 
     51 H51         3.6958   54.1784   28.2915 H         1 UNK         0.0000 
     52 H52         3.7238   52.4962   27.7245 H         1 UNK         0.0000 
     53 H53        -2.5324   47.3397   27.3963 H         1 UNK         0.0000 
     54 H54        -3.1056   45.7301   27.7354 H         1 UNK         0.0000 
     55 H55        -0.7582   47.1177   25.8516 H         1 UNK         0.0000 
     56 H56        -0.0736   48.2843   24.8156 H         1 UNK         0.0000 
@<TRIPOS>BOND
     1    1    6 ar   
     2    1    2 ar   
     3    1   37 1    
     4    2    3 ar   
     5    2   38 1    
     6    3    4 ar   
     7    3    8 1    
     8    4    5 ar   
     9    4   39 1    
    10    5    6 ar   
    11    5    7 1    
    12    6   40 1    
    13    8    9 1    
    14    8   26 am   BACKBONE|DICT|INTERRES
    15    9   10 1    
    16    9   11 1    
    17    9   16 1    
    18   11   15 1    
    19   11   12 2    
    20   12   13 1    
    21   12   41 1    
    22   13   14 2    
    23   13   42 1    
    24   14   15 1    
    25   14   43 1    
    26   16   17 2    
    27   16   18 am   BACKBONE|DICT|INTERRES
    28   18   19 1    
    29   18   44 1    
    30   19   20 1    
    31   19   45 1    
    32   19   46 1    
    33   20   21 1    
    34   20   25 1    
    35   20   22 1    
    36   22   23 1    
    37   22   47 1    
    38   22   48 1    
    39   23   24 1    
    40   23   49 1    
    41   23   50 1    
    42   24   25 1    
    43   24   51 1    
    44   24   52 1    
    45   26   27 2    
    46   26   28 1    
    47   28   32 1    
    48   28   29 2    
    49   29   30 1    
    50   29   36 1    
    51   30   31 2    
    52   30   33 1    
    53   31   32 1    
    54   33   34 2    
    55   33   35 am   BACKBONE|DICT|INTERRES
    56   35   53 1    
    57   35   54 1    
    58   36   55 1    
    59   36   56 1    
@<TRIPOS>SUBSTRUCTURE
     1 UNK         1 GROUP             0       ****    0 ROOT    
