@<TRIPOS>MOLECULE
ZINC36721865_1781
33   33    1
SMALL
USER_CHARGES


@<TRIPOS>ATOM
      1 C1          4.5655   54.9477   29.2137 C.3       1 UNK         0.0000 
      2 C2          4.5567   54.0429   27.9593 C.3       1 UNK         0.0000 
      3 C3          4.6669   54.8966   26.6610 C.3       1 UNK         0.0000 
      4 C4          5.8060   53.1393   28.0093 C.3       1 UNK         0.0000 
      5 C5          3.2649   53.1743   28.0293 C.2       1 UNK         0.0000 
      6 O6          3.1416   52.3329   28.9249 O.2       1 UNK         0.0000 
      7 N7          2.3190   53.4056   27.0973 N.am      1 UNK         0.0000 
      8 C8          1.1044   52.7358   26.9187 C.ar      1 UNK         0.0000 
      9 C9          0.3053   52.3354   27.9997 C.ar      1 UNK         0.0000 
     10 C10        -0.9110   51.6967   27.7716 C.ar      1 UNK         0.0000 
     11 C11        -1.3447   51.4678   26.4639 C.ar      1 UNK         0.0000 
     12 C12        -0.5508   51.8609   25.3849 C.ar      1 UNK         0.0000 
     13 C13         0.6709   52.4962   25.6064 C.ar      1 UNK         0.0000 
     14 Br14        1.7060   53.0413   24.0963 Br        1 UNK         0.0000 
     15 S15        -2.9043   50.6531   26.1738 S.o2      1 UNK         0.0000 
     16 O16        -3.7389   50.8452   27.3639 O.2       1 UNK         0.0000 
     17 O17        -3.3855   51.0599   24.8493 O.2       1 UNK         0.0000 
     18 N18        -2.4956   48.9658   26.0817 N.pl3     1 UNK         0.0000 
     19 H19         5.5044   55.4928   29.3057 H         1 UNK         0.0000 
     20 H20         4.4548   54.3759   30.1362 H         1 UNK         0.0000 
     21 H21         3.7570   55.6809   29.1924 H         1 UNK         0.0000 
     22 H22         4.7684   54.2624   25.7781 H         1 UNK         0.0000 
     23 H23         3.7992   55.5323   26.4857 H         1 UNK         0.0000 
     24 H24         5.5466   55.5408   26.6838 H         1 UNK         0.0000 
     25 H25         5.8709   52.4967   27.1324 H         1 UNK         0.0000 
     26 H26         6.7283   53.7207   28.0572 H         1 UNK         0.0000 
     27 H27         5.7895   52.4967   28.8817 H         1 UNK         0.0000 
     28 H28         2.5540   54.0625   26.3700 H         1 UNK         0.0000 
     29 H29         0.6168   52.5160   29.0180 H         1 UNK         0.0000 
     30 H30        -1.5114   51.3748   28.6120 H         1 UNK         0.0000 
     31 H31        -0.8807   51.6764   24.3724 H         1 UNK         0.0000 
     32 H32        -2.1177   48.6446   27.0030 H         1 UNK         0.0000 
     33 H33        -3.3210   48.4044   25.8716 H         1 UNK         0.0000 
@<TRIPOS>BOND
     1    1    2 1    
     2    1   19 1    
     3    1   20 1    
     4    1   21 1    
     5    2    3 1    
     6    2    4 1    
     7    2    5 1    
     8    3   22 1    
     9    3   23 1    
    10    3   24 1    
    11    4   25 1    
    12    4   26 1    
    13    4   27 1    
    14    5    6 2    
    15    5    7 am   BACKBONE|DICT|INTERRES
    16    7    8 1    
    17    7   28 1    
    18    8   13 ar   
    19    8    9 ar   
    20    9   10 ar   
    21    9   29 1    
    22   10   11 ar   
    23   10   30 1    
    24   11   12 ar   
    25   11   15 1    
    26   12   13 ar   
    27   12   31 1    
    28   13   14 1    
    29   15   16 2    
    30   15   17 2    
    31   15   18 1    
    32   18   32 1    
    33   18   33 1    
@<TRIPOS>SUBSTRUCTURE
     1 UNK         1 GROUP             0       ****    0 ROOT    
