@<TRIPOS>MOLECULE
ZINC64661442_3701
51   54    1
SMALL
USER_CHARGES


@<TRIPOS>ATOM
      1 C1         -0.1878   47.5948   19.6803 C.2       1 UNK         0.0000 
      2 C2          0.7978   47.3242   18.6424 C.2       1 UNK         0.0000 
      3 C3          1.8953   48.1064   18.4734 C.2       1 UNK         0.0000 
      4 C4          2.1122   49.2104   19.3055 C.2       1 UNK         0.0000 
      5 N5          3.0876   50.0824   19.2887 N.pl3     1 UNK         0.0000 
      6 C6          2.9104   51.0593   20.3693 C.3       1 UNK         0.0000 
      7 C7          1.6153   50.5950   21.0093 C.2       1 UNK         0.0000 
      8 C8          1.2057   49.5080   20.3266 C.2       1 UNK         0.0000 
      9 C9          0.0179   48.6543   20.4893 C.2       1 UNK         0.0000 
     10 C10         0.9547   51.3359   22.1649 C.3       1 UNK         0.0000 
     11 C11         1.0984   52.8713   22.1519 C.3       1 UNK         0.0000 
     12 N12         2.4582   53.3122   22.4780 N.am      1 UNK         0.0000 
     13 C13         2.8174   53.8554   23.6488 C.2       1 UNK         0.0000 
     14 O14         2.0079   54.0943   24.5430 O.2       1 UNK         0.0000 
     15 C15         4.2392   54.0975   23.7698 C.2       1 UNK         0.0000 
     16 C16         4.8668   54.4354   24.9212 C.2       1 UNK         0.0000 
     17 C17         6.3513   54.6631   25.1271 C.3       1 UNK         0.0000 
     18 S18         6.7039   54.0960   26.7996 S.3       1 UNK         0.0000 
     19 C19         4.9732   53.8852   27.2347 C.3       1 UNK         0.0000 
     20 H20         4.7420   52.8191   27.1983 H         1 UNK         0.0000 
     21 N21         4.2827   54.5834   26.1621 N.pl3     1 UNK         0.0000 
     22 S22         4.5175   54.4970   28.8843 S.3       1 UNK         0.0000 
     23 C23         2.6964   54.5284   28.8363 C.3       1 UNK         0.0000 
     24 C24         2.1251   53.2079   29.3667 C.2       1 UNK         0.0000 
     25 O25         2.4617   52.7896   30.4752 O.2       1 UNK         0.0000 
     26 C26         1.1367   52.5341   28.5415 C.2       1 UNK         0.0000 
     27 C27         1.1069   52.3929   27.1582 C.2       1 UNK         0.0000 
     28 C28        -0.0140   51.7000   26.6956 C.2       1 UNK         0.0000 
     29 C29        -0.8438   51.2967   27.7294 C.2       1 UNK         0.0000 
     30 S30        -0.2250   51.7486   29.2825 S.3       1 UNK         0.0000 
     31 H31        -1.0593   46.9662   19.7953 H         1 UNK         0.0000 
     32 H32         0.6493   46.4810   17.9828 H         1 UNK         0.0000 
     33 H33         2.5960   47.8707   17.6823 H         1 UNK         0.0000 
     34 H34         2.8532   52.0468   19.9091 H         1 UNK         0.0000 
     35 H35         3.7781   50.9952   21.0266 H         1 UNK         0.0000 
     36 H36        -0.7152   48.8503   21.2586 H         1 UNK         0.0000 
     37 H37         1.3337   50.9371   23.1073 H         1 UNK         0.0000 
     38 H38        -0.1064   51.0868   22.1367 H         1 UNK         0.0000 
     39 H39         0.3683   53.2957   22.8460 H         1 UNK         0.0000 
     40 H40         0.8319   53.2654   21.1708 H         1 UNK         0.0000 
     41 H41         3.1455   53.2681   21.7426 H         1 UNK         0.0000 
     42 H42         6.5738   55.7283   25.0696 H         1 UNK         0.0000 
     43 H43         4.8230   53.9839   22.8680 H         1 UNK         0.0000 
     44 H44         6.9656   54.1239   24.4048 H         1 UNK         0.0000 
     45 H45         3.2788   54.6404   26.2545 H         1 UNK         0.0000 
     46 H46         2.3231   54.7612   27.8413 H         1 UNK         0.0000 
     47 H47         2.3524   55.3260   29.4936 H         1 UNK         0.0000 
     48 H48         1.8848   52.7610   26.5110 H         1 UNK         0.0000 
     49 H49        -0.2020   51.4871   25.6536 H         1 UNK         0.0000 
     50 H50        -1.7483   50.7057   27.6679 H         1 UNK         0.0000 
     51 H51         3.8715   50.0947   18.6198 H         1 UNK         0.0000 
@<TRIPOS>BOND
     1    1    9 2    
     2    1    2 1    
     3    1   31 1    
     4    2    3 2    
     5    2   32 1    
     6    3    4 1    
     7    3   33 1    
     8    4    8 1    
     9    4    5 2    
    10    5    6 1    
    11    5   51 1    
    12    6    7 1    
    13    6   34 1    
    14    6   35 1    
    15    7    8 2    
    16    7   10 1    
    17    8    9 1    
    18    9   36 1    
    19   10   11 1    
    20   10   37 1    
    21   10   38 1    
    22   11   12 1    
    23   11   39 1    
    24   11   40 1    
    25   12   41 1    
    26   12   13 am   BACKBONE|DICT|INTERRES
    27   13   14 2    
    28   13   15 1    
    29   15   43 1    
    30   15   16 2    
    31   16   17 1    
    32   16   21 1    
    33   17   18 1    
    34   17   44 1    
    35   17   42 1    
    36   18   19 1    
    37   19   20 1    
    38   19   22 1    
    39   19   21 1    
    40   21   45 1    
    41   22   23 1    
    42   23   24 1    
    43   23   46 1    
    44   23   47 1    
    45   24   25 2    
    46   24   26 1    
    47   26   30 1    
    48   26   27 2    
    49   27   28 1    
    50   27   48 1    
    51   28   29 2    
    52   28   49 1    
    53   29   30 1    
    54   29   50 1    
@<TRIPOS>SUBSTRUCTURE
     1 UNK         1 GROUP             0       ****    0 ROOT    
