ZINC43528178_2164
                    3D
 Schrodinger Suite 2024-2.
 61 64  0  0  1  0            999 V2000
    0.7887   43.0451   15.0316 C   0  0  0  0  0  0
    0.2629   43.5727   16.2452 O   0  0  0  0  0  0
    0.7895   44.7441   16.7547 C   0  0  0  0  0  0
    0.2356   45.2065   17.9480 C   0  0  0  0  0  0
    0.7047   46.3727   18.5470 C   0  0  0  0  0  0
    1.7512   47.0912   17.9511 C   0  0  0  0  0  0
    2.3018   46.6360   16.7507 C   0  0  0  0  0  0
    1.8273   45.4717   16.1524 C   0  0  0  0  0  0
    2.3043   48.2786   18.4652 N   0  0  0  0  0  0
    2.0234   48.9467   19.5960 C   0  0  0  0  0  0
    1.2926   48.5522   20.5041 O   0  0  0  0  0  0
    2.5781   50.1683   19.5836 N   0  0  0  0  0  0
    2.0044   51.3138   20.2933 C   0  0  0  0  0  0
    2.4898   51.4369   21.7591 C   0  0  1  0  0  0
    2.5385   50.4441   22.2150 H   0  0  0  0  0  0
    3.8421   52.1961   21.9297 C   0  0  0  0  0  0
    3.7037   53.4005   22.9322 C   0  0  1  0  0  0
    4.6671   53.8900   23.0879 H   0  0  0  0  0  0
    2.7311   54.3196   22.1869 C   0  0  0  0  0  0
    1.3109   53.6720   22.1782 C   0  0  0  0  0  0
    1.3865   52.1747   22.5751 N   0  3  2  0  0  0
    1.7521   52.1431   24.0775 C   0  0  0  0  0  0
    2.9997   53.0556   24.3016 C   0  0  2  0  0  0
    3.6496   52.4968   24.9179 H   0  0  0  0  0  0
    2.6866   54.2714   25.2172 C   0  0  0  0  0  0
    3.0202   53.9634   26.6145 N   0  0  0  0  0  0
    2.0905   54.4972   27.6084 C   0  0  0  0  0  0
    2.2623   53.8057   28.9687 C   0  0  0  0  0  0
    3.9025   54.0869   29.6814 S   0  0  0  0  0  0
    4.8647   53.5490   28.2408 C   0  0  0  0  0  0
    4.4285   54.2290   26.9334 C   0  0  0  0  0  0
    0.2764   42.1121   14.7902 H   0  0  0  0  0  0
    1.8541   42.8213   15.1195 H   0  0  0  0  0  0
    0.6342   43.7325   14.1964 H   0  0  0  0  0  0
   -0.5689   44.6547   18.4114 H   0  0  0  0  0  0
    0.2390   46.6956   19.4646 H   0  0  0  0  0  0
    3.1013   47.1858   16.2739 H   0  0  0  0  0  0
    2.2798   45.1496   15.2279 H   0  0  0  0  0  0
    2.9923   48.7052   17.8485 H   0  0  0  0  0  0
    3.3502   50.3476   18.9507 H   0  0  0  0  0  0
    2.2332   52.2211   19.7316 H   0  0  0  0  0  0
    0.9150   51.2334   20.2561 H   0  0  0  0  0  0
    4.6636   51.5004   22.0818 H   0  0  0  0  0  0
    4.1514   52.5921   20.9606 H   0  0  0  0  0  0
    3.1036   54.5095   21.1797 H   0  0  0  0  0  0
    2.7056   55.2955   22.6615 H   0  0  0  0  0  0
    0.7847   53.6951   21.2360 H   0  0  0  0  0  0
    0.7043   54.1479   22.9426 H   0  0  0  0  0  0
    0.8669   52.4752   24.6238 H   0  0  0  0  0  0
    1.9044   51.0967   24.3447 H   0  0  0  0  0  0
    3.2153   55.1700   24.8958 H   0  0  0  0  0  0
    1.6249   54.4964   25.1218 H   0  0  0  0  0  0
    2.1061   55.5848   27.6820 H   0  0  0  0  0  0
    1.0852   54.2451   27.2809 H   0  0  0  0  0  0
    2.0411   52.7403   28.9082 H   0  0  0  0  0  0
    1.5469   54.2177   29.6790 H   0  0  0  0  0  0
    4.8447   52.4654   28.1453 H   0  0  0  0  0  0
    5.9020   53.8048   28.4545 H   0  0  0  0  0  0
    5.0441   53.7833   26.1502 H   0  0  0  0  0  0
    4.6758   55.2915   26.9010 H   0  0  0  0  0  0
    0.4946   51.7175   22.4340 H   0  0  0  0  0  0
  1  2  1  0  0  0
  1 32  1  0  0  0
  1 33  1  0  0  0
  1 34  1  0  0  0
  2  3  1  0  0  0
  3  8  2  0  0  0
  3  4  1  0  0  0
  4  5  2  0  0  0
  4 35  1  0  0  0
  5  6  1  0  0  0
  5 36  1  0  0  0
  6  7  2  0  0  0
  6  9  1  0  0  0
  7  8  1  0  0  0
  7 37  1  0  0  0
  8 38  1  0  0  0
  9 10  1  0  0  0
  9 39  1  0  0  0
 10 11  2  0  0  0
 10 12  1  0  0  0
 12 13  1  0  0  0
 12 40  1  0  0  0
 13 14  1  0  0  0
 13 41  1  0  0  0
 13 42  1  0  0  0
 14 15  1  0  0  0
 14 21  1  0  0  0
 14 16  1  0  0  0
 16 17  1  0  0  0
 16 43  1  0  0  0
 16 44  1  0  0  0
 17 18  1  0  0  0
 17 23  1  0  0  0
 17 19  1  0  0  0
 19 20  1  0  0  0
 19 45  1  0  0  0
 19 46  1  0  0  0
 20 21  1  0  0  0
 20 47  1  0  0  0
 20 48  1  0  0  0
 21 22  1  0  0  0
 21 61  1  0  0  0
 22 23  1  0  0  0
 22 49  1  0  0  0
 22 50  1  0  0  0
 23 24  1  0  0  0
 23 25  1  0  0  0
 25 26  1  0  0  0
 25 51  1  0  0  0
 25 52  1  0  0  0
 26 31  1  0  0  0
 26 27  1  0  0  0
 27 28  1  0  0  0
 27 53  1  0  0  0
 27 54  1  0  0  0
 28 29  1  0  0  0
 28 55  1  0  0  0
 28 56  1  0  0  0
 29 30  1  0  0  0
 30 31  1  0  0  0
 30 57  1  0  0  0
 30 58  1  0  0  0
 31 59  1  0  0  0
 31 60  1  0  0  0
M  CHG  1  21   1
M  END
> <i_i_glide_confnum>
44

> <i_i_glide_lignum>
2165

> <i_i_glide_posenum>
246

> <i_i_glide_rotatable_bonds>
8

> <i_m_Source_File_Index>
2658

> <b_m_subgroup_collapsed>
0

> <r_i_docking_score>
-3.6245

> <r_i_glide_ecoul>
-6.62869

> <r_i_glide_eff_state_penalty>
0

> <r_i_glide_einternal>
8.76873

> <r_i_glide_emodel>
-28.625

> <r_i_glide_energy>
-24.4513

> <r_i_glide_erotb>
0.836375

> <r_i_glide_esite>
-0.221134

> <r_i_glide_evdw>
-17.8226

> <r_i_glide_gscore>
-3.6245

> <r_i_glide_hbond>
-0.256855

> <r_i_glide_ligand_efficiency>
-0.129446

> <r_i_glide_ligand_efficiency_ln>
-0.83664

> <r_i_glide_ligand_efficiency_sa>
-0.393075

> <r_i_glide_lipo>
-1.56683

> <r_i_glide_metal>
0

> <r_i_glide_rewards>
-0.530623

> <s_i_glide_gridfile>
wee1_glide-grid

> <s_m_Source_File>
wee1_decoys_glide_SP.sdf

> <s_m_Source_Path>
/Users/zhangxujun/Desktop

> <s_m_entry_id>
2933

> <s_m_entry_name>
wee1_decoys_glide_SP.2658

> <s_m_subgroup_title>
wee1_decoys_glide_SP

> <s_m_subgroupid>
wee1_decoys_glide_SP


$$$$
