@<TRIPOS>MOLECULE
ZINC44855767_5259
66   69    1
SMALL
USER_CHARGES


@<TRIPOS>ATOM
      1 C1         -1.4414   51.2884   27.9165 C.3       1 UNK         0.0000 
      2 C2         -0.2548   51.6828   28.8114 C.3       1 UNK         0.0000 
      3 H3          0.3449   50.7926   28.9986 H         1 UNK         0.0000 
      4 C4         -0.6581   52.1889   30.2008 C.3       1 UNK         0.0000 
      5 C5          0.5780   52.5732   31.0237 C.3       1 UNK         0.0000 
      6 C6          1.5536   53.4662   30.2304 C.3       1 UNK         0.0000 
      7 N7          1.9205   52.9003   28.9165 N.pl3     1 UNK         0.0000 
      8 C8          0.6842   52.7048   28.1387 C.3       1 UNK         0.0000 
      9 C9          3.1119   53.2989   28.3188 C.ar      1 UNK         0.0000 
     10 C10         3.1676   53.7544   26.9942 C.ar      1 UNK         0.0000 
     11 C11         4.3826   54.0967   26.4112 C.ar      1 UNK         0.0000 
     12 C12         5.5703   53.9942   27.1446 C.ar      1 UNK         0.0000 
     13 C13         5.5180   53.5526   28.4651 C.ar      1 UNK         0.0000 
     14 C14         4.3040   53.2031   29.0437 C.ar      1 UNK         0.0000 
     15 C15         6.9433   54.3100   26.5508 C.3       1 UNK         0.0000 
     16 N16         7.0948   54.0970   25.1038 N.am      1 UNK         0.0000 
     17 C17         6.7044   54.9811   24.1729 C.2       1 UNK         0.0000 
     18 O18         6.3045   56.0966   24.4829 O.2       1 UNK         0.0000 
     19 C19         6.7304   54.5411   22.6939 C.3       1 UNK         0.0000 
     20 H20         7.4136   53.6969   22.6912 H         1 UNK         0.0000 
     21 C21         7.2507   55.6870   21.7928 C.3       1 UNK         0.0000 
     22 C22         7.2205   55.2648   20.3116 C.3       1 UNK         0.0000 
     23 C23         5.8172   54.8041   19.8627 C.3       1 UNK         0.0000 
     24 N24         5.2691   53.6941   20.8013 N.4       1 UNK         0.0000 
     25 C25         5.2958   54.1046   22.2987 C.3       1 UNK         0.0000 
     26 C26         3.8568   53.2663   20.3198 C.3       1 UNK         0.0000 
     27 C27         3.1022   52.2871   21.2114 C.ar      1 UNK         0.0000 
     28 C28         2.2816   52.7714   22.2356 C.ar      1 UNK         0.0000 
     29 C29         1.5711   51.8823   23.0377 C.ar      1 UNK         0.0000 
     30 C30         1.6697   50.5127   22.8038 C.ar      1 UNK         0.0000 
     31 C31         2.4631   50.0270   21.7655 C.ar      1 UNK         0.0000 
     32 C32         3.1795   50.9141   20.9657 C.ar      1 UNK         0.0000 
     33 Br33        0.7056   49.2970   23.9057 Br        1 UNK         0.0000 
     34 H34        -2.0422   52.1478   27.6251 H         1 UNK         0.0000 
     35 H35        -1.0965   50.7979   27.0053 H         1 UNK         0.0000 
     36 H36        -2.1014   50.5852   28.4268 H         1 UNK         0.0000 
     37 H37        -1.2651   51.4468   30.7235 H         1 UNK         0.0000 
     38 H38        -1.2939   53.0598   30.0818 H         1 UNK         0.0000 
     39 H39         1.1056   51.6968   31.3974 H         1 UNK         0.0000 
     40 H40         0.2561   53.1004   31.9232 H         1 UNK         0.0000 
     41 H41         2.4444   53.5726   30.8448 H         1 UNK         0.0000 
     42 H42         1.1461   54.4699   30.0970 H         1 UNK         0.0000 
     43 H43         0.1804   53.6453   27.9116 H         1 UNK         0.0000 
     44 H44         0.9526   52.2746   27.1735 H         1 UNK         0.0000 
     45 H45         2.2727   53.8470   26.3977 H         1 UNK         0.0000 
     46 H46         4.3766   54.4355   25.3879 H         1 UNK         0.0000 
     47 H47         6.4300   53.4614   29.0351 H         1 UNK         0.0000 
     48 H48         4.3036   52.8287   30.0565 H         1 UNK         0.0000 
     49 H49         7.6761   53.6800   27.0521 H         1 UNK         0.0000 
     50 H50         7.1708   55.3417   26.8267 H         1 UNK         0.0000 
     51 H51         7.3475   53.1648   24.8141 H         1 UNK         0.0000 
     52 H52         8.2774   55.9676   22.0390 H         1 UNK         0.0000 
     53 H53         6.5736   56.5380   21.8417 H         1 UNK         0.0000 
     54 H54         7.9652   54.4967   20.1059 H         1 UNK         0.0000 
     55 H55         7.5235   56.1096   19.6907 H         1 UNK         0.0000 
     56 H56         5.8656   54.3716   18.8609 H         1 UNK         0.0000 
     57 H57         5.1037   55.6289   19.8707 H         1 UNK         0.0000 
     58 H58         4.5502   54.8966   22.3966 H         1 UNK         0.0000 
     59 H59         5.0002   53.2131   22.8555 H         1 UNK         0.0000 
     60 H60         4.0115   52.8528   19.3195 H         1 UNK         0.0000 
     61 H61         3.2941   54.1899   20.2165 H         1 UNK         0.0000 
     62 H62         2.1916   53.8344   22.4083 H         1 UNK         0.0000 
     63 H63         0.9434   52.2536   23.8346 H         1 UNK         0.0000 
     64 H64         2.5302   48.9639   21.5844 H         1 UNK         0.0000 
     65 H65         3.7859   50.5352   20.1533 H         1 UNK         0.0000 
     66 H66         5.8787   52.8945   20.7042 H         1 UNK         0.0000 
@<TRIPOS>BOND
     1    1    2 1    
     2    1   34 1    
     3    1   35 1    
     4    1   36 1    
     5    2    3 1    
     6    2    8 1    
     7    2    4 1    
     8    4    5 1    
     9    4   37 1    
    10    4   38 1    
    11    5    6 1    
    12    5   39 1    
    13    5   40 1    
    14    6    7 1    
    15    6   41 1    
    16    6   42 1    
    17    7    8 1    
    18    7    9 1    
    19    8   43 1    
    20    8   44 1    
    21    9   14 ar   
    22    9   10 ar   
    23   10   11 ar   
    24   10   45 1    
    25   11   12 ar   
    26   11   46 1    
    27   12   13 ar   
    28   12   15 1    
    29   13   14 ar   
    30   13   47 1    
    31   14   48 1    
    32   15   16 1    
    33   15   49 1    
    34   15   50 1    
    35   16   17 am   BACKBONE|DICT|INTERRES
    36   16   51 1    
    37   17   18 2    
    38   17   19 1    
    39   19   20 1    
    40   19   25 1    
    41   19   21 1    
    42   21   22 1    
    43   21   52 1    
    44   21   53 1    
    45   22   23 1    
    46   22   54 1    
    47   22   55 1    
    48   23   24 1    
    49   23   56 1    
    50   23   57 1    
    51   24   25 1    
    52   24   26 1    
    53   24   66 1    
    54   25   58 1    
    55   25   59 1    
    56   26   27 1    
    57   26   60 1    
    58   26   61 1    
    59   27   32 ar   
    60   27   28 ar   
    61   28   29 ar   
    62   28   62 1    
    63   29   30 ar   
    64   29   63 1    
    65   30   31 ar   
    66   30   33 1    
    67   31   32 ar   
    68   31   64 1    
    69   32   65 1    
@<TRIPOS>SUBSTRUCTURE
     1 UNK         1 GROUP             0       ****    0 ROOT    
