@<TRIPOS>MOLECULE
ZINC63472945_4097
64   70    1
SMALL
USER_CHARGES


@<TRIPOS>ATOM
      1 C1         -7.2857   48.4006   27.9994 C.2       1 UNK         0.0000 
      2 C2         -8.2569   49.0336   27.1176 C.2       1 UNK         0.0000 
      3 C3         -7.9648   50.1602   26.4145 C.2       1 UNK         0.0000 
      4 C4         -6.6990   50.7522   26.5204 C.2       1 UNK         0.0000 
      5 N5         -6.2235   51.8218   25.9285 N.pl3     1 UNK         0.0000 
      6 C6         -4.8305   52.0526   26.3511 C.3       1 UNK         0.0000 
      7 C7         -4.5959   50.9028   27.3104 C.2       1 UNK         0.0000 
      8 C8         -5.7320   50.1835   27.3554 C.2       1 UNK         0.0000 
      9 C9         -6.0657   48.9635   28.1068 C.2       1 UNK         0.0000 
     10 C10        -3.2614   50.6759   28.0043 C.3       1 UNK         0.0000 
     11 C11        -2.0053   50.7284   27.1063 C.3       1 UNK         0.0000 
     12 H12        -1.2461   50.1731   27.6627 H         1 UNK         0.0000 
     13 C13        -1.4299   52.1262   26.8498 C.3       1 UNK         0.0000 
     14 H14        -2.1988   52.8981   26.8186 H         1 UNK         0.0000 
     15 C15        -0.7455   52.0224   25.5175 C.3       1 UNK         0.0000 
     16 H16        -1.2096   52.7337   24.8326 H         1 UNK         0.0000 
     17 C17         0.6800   52.4970   25.7804 C.2       1 UNK         0.0000 
     18 O18         1.5260   52.6557   24.8999 O.2       1 UNK         0.0000 
     19 N19         0.7950   52.7477   27.1101 N.am      1 UNK         0.0000 
     20 C20        -0.3278   52.4978   27.8305 C.2       1 UNK         0.0000 
     21 O21        -0.4942   52.6151   29.0449 O.2       1 UNK         0.0000 
     22 C22         2.0520   53.2426   27.7020 C.3       1 UNK         0.0000 
     23 C23         1.9783   54.6371   28.3652 C.3       1 UNK         0.0000 
     24 C24         3.3697   55.1330   28.7840 C.3       1 UNK         0.0000 
     25 C25         4.1059   54.1229   29.6769 C.3       1 UNK         0.0000 
     26 C26         4.1747   52.7265   29.0385 C.3       1 UNK         0.0000 
     27 C27         2.7790   52.2344   28.6155 C.3       1 UNK         0.0000 
     28 C28        -0.9455   50.5472   25.0141 C.3       1 UNK         0.0000 
     29 N29        -2.1062   50.0988   25.7912 N.3       1 UNK         0.0000 
     30 C30        -1.0579   50.4354   23.5176 C.ar      1 UNK         0.0000 
     31 C31        -1.9352   51.0439   22.6148 C.ar      1 UNK         0.0000 
     32 C32        -1.7560   50.8529   21.2415 C.ar      1 UNK         0.0000 
     33 C33        -0.7179   50.0382   20.7764 C.ar      1 UNK         0.0000 
     34 C34         0.1496   49.4179   21.6799 C.ar      1 UNK         0.0000 
     35 C35        -0.0335   49.6326   23.0455 C.ar      1 UNK         0.0000 
     36 N36         0.7043   49.1495   24.1114 N.am      1 UNK         0.0000 
     37 C37         0.2469   49.5753   25.2983 C.2       1 UNK         0.0000 
     38 O38         0.7115   49.2967   26.3990 O.2       1 UNK         0.0000 
     39 Cl39       -2.7996   51.6465   20.1173 Cl        1 UNK         0.0000 
     40 H40        -7.5377   47.5068   28.5512 H         1 UNK         0.0000 
     41 H41        -9.2386   48.5919   27.0217 H         1 UNK         0.0000 
     42 H42        -8.7272   50.5855   25.7774 H         1 UNK         0.0000 
     43 H43        -4.1937   52.0093   25.4652 H         1 UNK         0.0000 
     44 H44        -4.7689   53.0368   26.8171 H         1 UNK         0.0000 
     45 H45        -5.3453   48.4936   28.7616 H         1 UNK         0.0000 
     46 H46        -3.1595   51.3874   28.8241 H         1 UNK         0.0000 
     47 H47        -3.2957   49.6971   28.4818 H         1 UNK         0.0000 
     48 H48         2.7277   53.3812   26.8546 H         1 UNK         0.0000 
     49 H49         1.5285   55.3532   27.6817 H         1 UNK         0.0000 
     50 H50         1.3223   54.6045   29.2371 H         1 UNK         0.0000 
     51 H51         3.9683   55.2966   27.8878 H         1 UNK         0.0000 
     52 H52         3.2789   56.0966   29.2828 H         1 UNK         0.0000 
     53 H53         5.1044   54.4972   29.8921 H         1 UNK         0.0000 
     54 H54         3.5951   54.0334   30.6291 H         1 UNK         0.0000 
     55 H55         4.8311   52.7524   28.1655 H         1 UNK         0.0000 
     56 H56         4.6282   52.0190   29.7333 H         1 UNK         0.0000 
     57 H57         2.1747   52.0261   29.4996 H         1 UNK         0.0000 
     58 H58         2.8605   51.2967   28.0821 H         1 UNK         0.0000 
     59 H59        -2.0896   49.0929   25.9211 H         1 UNK         0.0000 
     60 H60        -2.7298   51.6842   22.9660 H         1 UNK         0.0000 
     61 H61        -0.5744   49.8969   19.7139 H         1 UNK         0.0000 
     62 H62         0.9571   48.8018   21.3116 H         1 UNK         0.0000 
     63 H63         1.5218   48.5522   24.0453 H         1 UNK         0.0000 
     64 H64        -6.7276   52.4085   25.2688 H         1 UNK         0.0000 
@<TRIPOS>BOND
     1    1    9 2    
     2    1    2 1    
     3    1   40 1    
     4    2    3 2    
     5    2   41 1    
     6    3    4 1    
     7    3   42 1    
     8    4    8 1    
     9    4    5 2    
    10    5    6 1    
    11    5   64 1    
    12    6    7 1    
    13    6   43 1    
    14    6   44 1    
    15    7    8 2    
    16    7   10 1    
    17    8    9 1    
    18    9   45 1    
    19   10   11 1    
    20   10   46 1    
    21   10   47 1    
    22   11   12 1    
    23   11   29 1    
    24   11   13 1    
    25   13   14 1    
    26   13   20 1    
    27   13   15 1    
    28   15   16 1    
    29   15   17 1    
    30   15   28 1    
    31   17   18 2    
    32   17   19 am   BACKBONE|DICT|INTERRES
    33   19   20 am   BACKBONE|DICT|INTERRES
    34   19   22 1    
    35   20   21 2    
    36   22   27 1    
    37   22   23 1    
    38   22   48 1    
    39   23   24 1    
    40   23   49 1    
    41   23   50 1    
    42   24   25 1    
    43   24   51 1    
    44   24   52 1    
    45   25   26 1    
    46   25   53 1    
    47   25   54 1    
    48   26   27 1    
    49   26   55 1    
    50   26   56 1    
    51   27   57 1    
    52   27   58 1    
    53   28   37 1    
    54   28   29 1    
    55   28   30 1    
    56   29   59 1    
    57   30   35 ar   
    58   30   31 ar   
    59   31   32 ar   
    60   31   60 1    
    61   32   33 ar   
    62   32   39 1    
    63   33   34 ar   
    64   33   61 1    
    65   34   35 ar   
    66   34   62 1    
    67   35   36 1    
    68   36   37 am   BACKBONE|DICT|INTERRES
    69   36   63 1    
    70   37   38 2    
@<TRIPOS>SUBSTRUCTURE
     1 UNK         1 GROUP             0       ****    0 ROOT    
