@<TRIPOS>MOLECULE
ZINC39881451_6058
54   58    1
SMALL
USER_CHARGES


@<TRIPOS>ATOM
      1 C1         -2.5748   50.6990   26.5307 C.3       1 UNK         0.0000 
      2 C2         -1.5200   51.2995   27.4383 C.ar      1 UNK         0.0000 
      3 C3         -1.7173   51.2967   28.8207 C.ar      1 UNK         0.0000 
      4 C4         -0.7484   51.7932   29.6935 C.ar      1 UNK         0.0000 
      5 C5          0.4656   52.3125   29.1860 C.ar      1 UNK         0.0000 
      6 C6          1.4931   52.8293   30.0211 C.ar      1 UNK         0.0000 
      7 C7          2.6733   53.2956   29.4365 C.ar      1 UNK         0.0000 
      8 C8          2.8178   53.2923   28.0604 C.ar      1 UNK         0.0000 
      9 N9          1.8423   52.7936   27.2814 N.pl3     1 UNK         0.0000 
     10 C10         0.6560   52.2994   27.7696 C.ar      1 UNK         0.0000 
     11 C11        -0.3353   51.7982   26.8982 C.ar      1 UNK         0.0000 
     12 N12         4.0708   53.8484   27.6637 N.pl3     1 UNK         0.0000 
     13 C13         4.8860   54.0448   28.8758 C.3       1 UNK         0.0000 
     14 C14         3.9002   53.9024   30.0493 C.3       1 UNK         0.0000 
     15 C15         4.5529   54.0975   26.3285 C.ar      1 UNK         0.0000 
     16 C16         5.9243   54.2765   26.0911 C.ar      1 UNK         0.0000 
     17 C17         6.4010   54.4772   24.7957 C.ar      1 UNK         0.0000 
     18 C18         5.5171   54.4965   23.7115 C.ar      1 UNK         0.0000 
     19 C19         4.1438   54.3563   23.9541 C.ar      1 UNK         0.0000 
     20 C20         3.6696   54.1747   25.2440 C.ar      1 UNK         0.0000 
     21 C21         6.0384   54.7137   22.3109 C.2       1 UNK         0.0000 
     22 O22         7.1044   55.3026   22.1325 O.2       1 UNK         0.0000 
     23 N23         5.2654   54.2100   21.3250 N.am      1 UNK         0.0000 
     24 C24         5.4444   54.2350   19.9301 C.ar      1 UNK         0.0000 
     25 C25         6.3426   55.0963   19.2764 C.ar      1 UNK         0.0000 
     26 C26         6.4964   55.0590   17.8869 C.ar      1 UNK         0.0000 
     27 C27         5.7369   54.1481   17.1442 C.ar      1 UNK         0.0000 
     28 C28         4.8351   53.2968   17.7818 C.ar      1 UNK         0.0000 
     29 C29         4.6798   53.3385   19.1653 C.ar      1 UNK         0.0000 
     30 Cl30        3.5447   52.2557   19.9022 Cl        1 UNK         0.0000 
     31 C31         7.4849   56.0048   17.2074 C.3       1 UNK         0.0000 
     32 F32         7.2192   56.1541   15.9073 F         1 UNK         0.0000 
     33 F33         8.7155   55.5071   17.3318 F         1 UNK         0.0000 
     34 F34         7.4530   57.2094   17.7799 F         1 UNK         0.0000 
     35 H35        -2.1210   50.2631   25.6383 H         1 UNK         0.0000 
     36 H36        -3.0955   49.8817   27.0369 H         1 UNK         0.0000 
     37 H37        -3.3036   51.4541   26.2328 H         1 UNK         0.0000 
     38 H38        -2.6167   50.8630   29.2336 H         1 UNK         0.0000 
     39 H39        -0.9150   51.7546   30.7640 H         1 UNK         0.0000 
     40 H40         1.3407   52.8366   31.0920 H         1 UNK         0.0000 
     41 H41        -0.1640   51.7863   25.8317 H         1 UNK         0.0000 
     42 H42         5.6506   53.2688   28.8827 H         1 UNK         0.0000 
     43 H43         5.3736   55.0209   28.8533 H         1 UNK         0.0000 
     44 H44         4.3037   53.2795   30.8487 H         1 UNK         0.0000 
     45 H45         3.6824   54.8929   30.4468 H         1 UNK         0.0000 
     46 H46         6.6408   54.2399   26.8999 H         1 UNK         0.0000 
     47 H47         7.4636   54.6005   24.6365 H         1 UNK         0.0000 
     48 H48         3.4211   54.4188   23.1520 H         1 UNK         0.0000 
     49 H49         2.6012   54.1250   25.3657 H         1 UNK         0.0000 
     50 H50         4.4644   53.6725   21.6195 H         1 UNK         0.0000 
     51 H51         6.9323   55.8095   19.8304 H         1 UNK         0.0000 
     52 H52         5.8426   54.0880   16.0700 H         1 UNK         0.0000 
     53 H53         4.2677   52.5813   17.2023 H         1 UNK         0.0000 
     54 H54         1.9745   52.7511   26.2826 H         1 UNK         0.0000 
@<TRIPOS>BOND
     1    1    2 1    
     2    1   35 1    
     3    1   36 1    
     4    1   37 1    
     5    2   11 ar   
     6    2    3 ar   
     7    3    4 ar   
     8    3   38 1    
     9    4    5 ar   
    10    4   39 1    
    11    5   10 ar   
    12    5    6 ar   
    13    6    7 ar   
    14    6   40 1    
    15    7   14 1    
    16    7    8 ar   
    17    8    9 ar   
    18    8   12 1    
    19    9   10 ar   
    20    9   54 1    
    21   10   11 ar   
    22   11   41 1    
    23   12   13 1    
    24   12   15 1    
    25   13   14 1    
    26   13   42 1    
    27   13   43 1    
    28   14   44 1    
    29   14   45 1    
    30   15   20 ar   
    31   15   16 ar   
    32   16   17 ar   
    33   16   46 1    
    34   17   18 ar   
    35   17   47 1    
    36   18   19 ar   
    37   18   21 1    
    38   19   20 ar   
    39   19   48 1    
    40   20   49 1    
    41   21   22 2    
    42   21   23 am   BACKBONE|DICT|INTERRES
    43   23   24 1    
    44   23   50 1    
    45   24   29 ar   
    46   24   25 ar   
    47   25   26 ar   
    48   25   51 1    
    49   26   27 ar   
    50   26   31 1    
    51   27   28 ar   
    52   27   52 1    
    53   28   29 ar   
    54   28   53 1    
    55   29   30 1    
    56   31   32 1    
    57   31   33 1    
    58   31   34 1    
@<TRIPOS>SUBSTRUCTURE
     1 UNK         1 GROUP             0       ****    0 ROOT    
