@<TRIPOS>MOLECULE
ZINC40288104_100
50   52    1
SMALL
USER_CHARGES


@<TRIPOS>ATOM
      1 C1         -2.2073   48.8682   25.6805 C.3       1 UNK         0.0000 
      2 C2         -0.6991   48.7944   25.3591 C.3       1 UNK         0.0000 
      3 C3         -0.4114   47.6910   24.3300 C.3       1 UNK         0.0000 
      4 C4         -0.0495   50.1479   24.9592 C.3       1 UNK         0.0000 
      5 H5          0.9528   49.9349   24.5822 H         1 UNK         0.0000 
      6 C6         -0.7865   50.8825   23.8308 C.2       1 UNK         0.0000 
      7 O7         -0.6141   50.5849   22.6477 O.2       1 UNK         0.0000 
      8 O8         -1.6696   51.8207   24.2644 O.3       1 UNK         0.0000 
      9 C9         -2.4513   52.5605   23.3374 C.3       1 UNK         0.0000 
     10 N10         0.1752   50.9926   26.1518 N.am      1 UNK         0.0000 
     11 C11         0.9294   52.1087   26.2101 C.2       1 UNK         0.0000 
     12 O12         1.3564   52.6355   25.1786 O.2       1 UNK         0.0000 
     13 N13         1.1745   52.6213   27.4507 N.am      1 UNK         0.0000 
     14 C14         1.0219   51.8435   28.7133 C.3       1 UNK         0.0000 
     15 C15         0.1183   52.6369   29.6992 C.3       1 UNK         0.0000 
     16 C16         0.6517   54.0514   29.8310 C.ar      1 UNK         0.0000 
     17 C17         1.4297   54.6120   28.8369 C.ar      1 UNK         0.0000 
     18 N18         1.6972   55.8835   29.2588 N.pl3     1 UNK         0.0000 
     19 H19         2.2383   56.5854   28.7770 H         1 UNK         0.0000 
     20 C20         1.1055   55.9832   30.4859 C.ar      1 UNK         0.0000 
     21 N21         0.4798   54.8826   30.8466 N.2       1 UNK         0.0000 
     22 C22         1.8593   53.9395   27.5419 C.3       1 UNK         0.0000 
     23 H23         1.5055   54.4978   26.6814 H         1 UNK         0.0000 
     24 C24         3.3838   53.9114   27.4120 C.ar      1 UNK         0.0000 
     25 C25         4.1946   53.6260   28.5190 C.ar      1 UNK         0.0000 
     26 C26         5.5769   53.7446   28.4238 C.ar      1 UNK         0.0000 
     27 C27         6.1609   54.1466   27.2295 C.ar      1 UNK         0.0000 
     28 C28         5.3698   54.4043   26.1103 C.ar      1 UNK         0.0000 
     29 C29         3.9828   54.2851   26.2026 C.ar      1 UNK         0.0000 
     30 Br30        6.1730   54.9363   24.4669 Br        1 UNK         0.0000 
     31 F31         7.4956   54.3075   27.1755 F         1 UNK         0.0000 
     32 H32        -2.8024   49.1192   24.8022 H         1 UNK         0.0000 
     33 H33        -2.5687   47.9136   26.0640 H         1 UNK         0.0000 
     34 H34        -2.4059   49.6183   26.4471 H         1 UNK         0.0000 
     35 H35        -0.2100   48.4844   26.2846 H         1 UNK         0.0000 
     36 H36        -0.9023   47.8902   23.3763 H         1 UNK         0.0000 
     37 H37         0.6626   47.6201   24.1447 H         1 UNK         0.0000 
     38 H38        -0.7558   46.7221   24.6925 H         1 UNK         0.0000 
     39 H39        -2.8539   53.4552   23.8137 H         1 UNK         0.0000 
     40 H40        -1.8593   52.8875   22.4826 H         1 UNK         0.0000 
     41 H41        -3.2820   51.9573   22.9707 H         1 UNK         0.0000 
     42 H42        -0.1723   50.6007   27.0150 H         1 UNK         0.0000 
     43 H43         0.6095   50.8485   28.5586 H         1 UNK         0.0000 
     44 H44         2.0107   51.7047   29.1517 H         1 UNK         0.0000 
     45 H45        -0.9035   52.6427   29.3294 H         1 UNK         0.0000 
     46 H46         0.0806   52.1360   30.6684 H         1 UNK         0.0000 
     47 H47         1.1861   56.8967   31.0581 H         1 UNK         0.0000 
     48 H48         3.7547   53.3418   29.4638 H         1 UNK         0.0000 
     49 H49         6.2031   53.5521   29.2785 H         1 UNK         0.0000 
     50 H50         3.3699   54.5058   25.3397 H         1 UNK         0.0000 
@<TRIPOS>BOND
     1    1    2 1    
     2    1   32 1    
     3    1   33 1    
     4    1   34 1    
     5    2    3 1    
     6    2    4 1    
     7    2   35 1    
     8    3   36 1    
     9    3   37 1    
    10    3   38 1    
    11    4    5 1    
    12    4    6 1    
    13    4   10 1    
    14    6    7 2    
    15    6    8 1    
    16    8    9 1    
    17    9   39 1    
    18    9   40 1    
    19    9   41 1    
    20   10   11 am   BACKBONE|DICT|INTERRES
    21   10   42 1    
    22   11   12 2    
    23   11   13 am   BACKBONE|DICT|INTERRES
    24   13   22 1    
    25   13   14 1    
    26   14   15 1    
    27   14   43 1    
    28   14   44 1    
    29   15   16 1    
    30   15   45 1    
    31   15   46 1    
    32   16   21 ar   
    33   16   17 ar   
    34   17   18 ar   
    35   17   22 1    
    36   18   19 1    
    37   18   20 ar   
    38   20   21 ar   
    39   20   47 1    
    40   22   23 1    
    41   22   24 1    
    42   24   29 ar   
    43   24   25 ar   
    44   25   26 ar   
    45   25   48 1    
    46   26   27 ar   
    47   26   49 1    
    48   27   28 ar   
    49   27   31 1    
    50   28   29 ar   
    51   28   30 1    
    52   29   50 1    
@<TRIPOS>SUBSTRUCTURE
     1 UNK         1 GROUP             0       ****    0 ROOT    
