@<TRIPOS>MOLECULE
ZINC21000919_431
52   55    1
SMALL
USER_CHARGES


@<TRIPOS>ATOM
      1 C1          6.4837   54.6253   26.9033 C.ar      1 UNK         0.0000 
      2 C2          6.1222   53.9826   28.0819 C.ar      1 UNK         0.0000 
      3 C3          4.8035   53.5833   28.2716 C.ar      1 UNK         0.0000 
      4 C4          3.8477   53.8255   27.2802 C.ar      1 UNK         0.0000 
      5 C5          4.2213   54.4959   26.1075 C.ar      1 UNK         0.0000 
      6 C6          5.5409   54.8934   25.9156 C.ar      1 UNK         0.0000 
      7 C7          2.4561   53.3257   27.4800 C.2       1 UNK         0.0000 
      8 C8          1.7508   53.0800   28.6579 C.2       1 UNK         0.0000 
      9 C9          0.4684   52.5168   28.4722 C.2       1 UNK         0.0000 
     10 C10         0.1962   52.3370   27.1018 C.2       1 UNK         0.0000 
     11 S11         1.5045   52.8967   26.0948 S.3       1 UNK         0.0000 
     12 N12        -0.9463   51.7384   26.5798 N.am      1 UNK         0.0000 
     13 C13        -1.3535   51.6229   25.2988 C.2       1 UNK         0.0000 
     14 O14        -0.7925   52.1377   24.3301 O.2       1 UNK         0.0000 
     15 C15        -2.5970   50.7326   25.0684 C.3       1 UNK         0.0000 
     16 H16        -2.9668   50.5089   26.0719 H         1 UNK         0.0000 
     17 C17        -3.6633   51.5023   24.2409 C.3       1 UNK         0.0000 
     18 C18        -4.8883   50.6224   23.9329 C.3       1 UNK         0.0000 
     19 C19        -4.4786   49.3000   23.2669 C.3       1 UNK         0.0000 
     20 C20        -3.4657   48.5185   24.1221 C.3       1 UNK         0.0000 
     21 N21        -2.3027   49.3451   24.5452 N.pl3     1 UNK         0.0000 
     22 S22        -0.7146   48.5199   24.6745 S.o2      1 UNK         0.0000 
     23 O23         0.0612   49.0508   25.7987 O.2       1 UNK         0.0000 
     24 O24        -0.8980   47.0760   24.4817 O.2       1 UNK         0.0000 
     25 C25         0.0823   49.1206   23.1752 C.2       1 UNK         0.0000 
     26 C26        -0.3472   48.8971   21.8725 C.2       1 UNK         0.0000 
     27 C27         0.5028   49.4768   20.9235 C.2       1 UNK         0.0000 
     28 C28         1.5673   50.1589   21.5022 C.2       1 UNK         0.0000 
     29 S29         1.5077   50.0987   23.2337 S.3       1 UNK         0.0000 
     30 Cl30        2.8430   50.9930   20.7099 Cl        1 UNK         0.0000 
     31 C31        -0.4633   52.1573   29.5348 C.2       1 UNK         0.0000 
     32 O32        -1.5681   51.6872   29.2817 O.2       1 UNK         0.0000 
     33 N33        -0.0877   52.3824   30.7993 N.am      1 UNK         0.0000 
     34 H34         7.5047   54.9212   26.7612 H         1 UNK         0.0000 
     35 H35         6.8656   53.7894   28.8429 H         1 UNK         0.0000 
     36 H36         4.5391   53.0643   29.1808 H         1 UNK         0.0000 
     37 H37         3.4990   54.7014   25.3305 H         1 UNK         0.0000 
     38 H38         5.8304   55.3988   25.0051 H         1 UNK         0.0000 
     39 H39         2.1721   53.2908   29.6269 H         1 UNK         0.0000 
     40 H40        -1.5388   51.3267   27.2900 H         1 UNK         0.0000 
     41 H41        -4.0625   52.3423   24.8100 H         1 UNK         0.0000 
     42 H42        -3.2640   51.8153   23.2732 H         1 UNK         0.0000 
     43 H43        -5.4334   50.4130   24.8541 H         1 UNK         0.0000 
     44 H44        -5.5827   51.1629   23.2872 H         1 UNK         0.0000 
     45 H45        -5.3614   48.6843   23.0869 H         1 UNK         0.0000 
     46 H46        -4.0441   49.4988   22.2862 H         1 UNK         0.0000 
     47 H47        -3.9738   48.1956   25.0317 H         1 UNK         0.0000 
     48 H48        -3.1192   47.6248   23.6046 H         1 UNK         0.0000 
     49 H49        -1.2299   48.3253   21.6248 H         1 UNK         0.0000 
     50 H50         0.3568   49.4040   19.8542 H         1 UNK         0.0000 
     51 H51        -0.7148   52.0970   31.5546 H         1 UNK         0.0000 
     52 H52         0.8040   52.7854   31.0240 H         1 UNK         0.0000 
@<TRIPOS>BOND
     1    1    6 ar   
     2    1    2 ar   
     3    1   34 1    
     4    2    3 ar   
     5    2   35 1    
     6    3    4 ar   
     7    3   36 1    
     8    4    5 ar   
     9    4    7 1    
    10    5    6 ar   
    11    5   37 1    
    12    6   38 1    
    13    7   11 1    
    14    7    8 2    
    15    8    9 1    
    16    8   39 1    
    17    9   10 2    
    18    9   31 1    
    19   10   11 1    
    20   10   12 am   BACKBONE|DICT|INTERRES
    21   12   13 am   BACKBONE|DICT|INTERRES
    22   12   40 1    
    23   13   14 2    
    24   13   15 1    
    25   15   16 1    
    26   15   21 1    
    27   15   17 1    
    28   17   18 1    
    29   17   41 1    
    30   17   42 1    
    31   18   19 1    
    32   18   43 1    
    33   18   44 1    
    34   19   20 1    
    35   19   45 1    
    36   19   46 1    
    37   20   21 1    
    38   20   47 1    
    39   20   48 1    
    40   21   22 1    
    41   22   23 2    
    42   22   24 2    
    43   22   25 1    
    44   25   29 1    
    45   25   26 2    
    46   26   27 1    
    47   26   49 1    
    48   27   28 2    
    49   27   50 1    
    50   28   29 1    
    51   28   30 1    
    52   31   32 2    
    53   31   33 am   BACKBONE|DICT|INTERRES
    54   33   51 1    
    55   33   52 1    
@<TRIPOS>SUBSTRUCTURE
     1 UNK         1 GROUP             0       ****    0 ROOT    
