ZINC38733490_5344
                    3D
 Schrodinger Suite 2024-2.
 70 74  0  0  1  0            999 V2000
   10.2222   50.3076   14.0585 C   0  0  0  0  0  0
   10.8772   49.5623   15.0396 C   0  0  0  0  0  0
   10.8167   49.9819   16.3708 C   0  0  0  0  0  0
   10.1373   51.1054   16.6775 N   0  3  0  0  0  0
    9.4794   51.8659   15.7705 C   0  0  0  0  0  0
    9.5226   51.4632   14.4238 C   0  0  0  0  0  0
    8.8334   53.0793   16.1852 N   0  0  0  0  0  0
    7.6640   53.6549   15.4810 C   0  0  0  0  0  0
    7.7988   55.1888   15.3769 C   0  0  0  0  0  0
    7.9272   55.7350   16.7381 N   0  0  0  0  0  0
    9.1234   55.2450   17.4470 C   0  0  0  0  0  0
    9.0135   53.6964   17.5240 C   0  0  0  0  0  0
    6.9171   56.3311   17.4315 C   0  0  0  0  0  0
    7.0659   56.7045   18.5994 O   0  0  0  0  0  0
    5.5326   56.5896   16.7560 C   0  0  2  0  0  0
    5.5043   56.0444   15.8170 H   0  0  0  0  0  0
    5.4151   58.1045   16.4320 C   0  0  0  0  0  0
    3.9821   58.4968   16.1020 C   0  0  0  0  0  0
    2.9092   57.7058   16.2768 C   0  0  0  0  0  0
    2.9654   56.3132   16.8825 C   0  0  0  0  0  0
    4.3228   56.0714   17.6154 C   0  0  1  0  0  0
    4.2616   56.6135   18.5537 H   0  0  0  0  0  0
    4.4558   54.5478   17.9118 C   0  0  0  0  0  0
    4.2736   53.7833   16.9595 O   0  0  0  0  0  0
    4.6695   54.0821   19.1763 N   0  0  0  0  0  0
    4.7447   52.6355   19.4077 C   0  0  0  0  0  0
    3.9321   52.2465   20.6595 C   0  0  0  0  0  0
    4.1484   53.0932   21.9432 C   0  0  0  0  0  0
    4.2410   54.5537   21.4924 C   0  0  0  0  0  0
    5.1705   54.8752   20.3028 C   0  0  0  0  0  0
    3.0196   52.9784   23.0024 C   0  0  0  0  0  0
    1.9062   52.1365   22.8351 C   0  0  0  0  0  0
    0.9574   52.0011   23.8446 C   0  0  0  0  0  0
    1.1043   52.7053   25.0336 C   0  0  0  0  0  0
    2.1872   53.5596   25.2146 C   0  0  0  0  0  0
    3.1347   53.6966   24.2048 C   0  0  0  0  0  0
   -0.0486   52.4965   26.3007 Cl  0  0  0  0  0  0
    5.4361   52.8347   22.4779 O   0  0  0  0  0  0
   10.2752   50.0008   13.0212 H   0  0  0  0  0  0
   11.4324   48.6773   14.7605 H   0  0  0  0  0  0
   11.2942   49.4749   17.1985 H   0  0  0  0  0  0
    9.0454   52.0444   13.6504 H   0  0  0  0  0  0
    7.4862   53.2049   14.5062 H   0  0  0  0  0  0
    6.7812   53.3948   16.0687 H   0  0  0  0  0  0
    7.1744   55.7120   14.6527 H   0  0  0  0  0  0
    8.7819   55.3697   14.9365 H   0  0  0  0  0  0
    9.9833   55.5029   16.8231 H   0  0  0  0  0  0
    9.3016   55.7113   18.4201 H   0  0  0  0  0  0
    9.8848   53.2855   18.0329 H   0  0  0  0  0  0
    8.1382   53.4137   18.1092 H   0  0  0  0  0  0
    5.6731   58.7097   17.3053 H   0  0  0  0  0  0
    6.1140   58.4007   15.6479 H   0  0  0  0  0  0
    3.8112   59.4831   15.6905 H   0  0  0  0  0  0
    1.9460   58.1032   15.9899 H   0  0  0  0  0  0
    2.8417   55.6350   16.0355 H   0  0  0  0  0  0
    2.1244   56.1124   17.5480 H   0  0  0  0  0  0
    5.7888   52.3437   19.5276 H   0  0  0  0  0  0
    4.3035   52.0968   18.5703 H   0  0  0  0  0  0
    4.1019   51.1926   20.8834 H   0  0  0  0  0  0
    2.8844   52.2823   20.3657 H   0  0  0  0  0  0
    3.2305   54.8968   21.2817 H   0  0  0  0  0  0
    4.5363   55.1769   22.3282 H   0  0  0  0  0  0
    6.1853   54.5410   20.5230 H   0  0  0  0  0  0
    5.2326   55.9453   20.1348 H   0  0  0  0  0  0
    1.7661   51.5352   21.9513 H   0  0  0  0  0  0
    0.1190   51.3325   23.7138 H   0  0  0  0  0  0
    2.3025   54.0980   26.1433 H   0  0  0  0  0  0
    3.9800   54.3444   24.3811 H   0  0  0  0  0  0
    5.6906   53.5779   23.0265 H   0  0  0  0  0  0
   10.1235   51.3984   17.6466 H   0  0  0  0  0  0
  1  6  2  0  0  0
  1  2  1  0  0  0
  1 39  1  0  0  0
  2  3  2  0  0  0
  2 40  1  0  0  0
  3  4  1  0  0  0
  3 41  1  0  0  0
  4  5  2  0  0  0
  4 70  1  0  0  0
  5  6  1  0  0  0
  5  7  1  0  0  0
  6 42  1  0  0  0
  7 12  1  0  0  0
  7  8  1  0  0  0
  8  9  1  0  0  0
  8 43  1  0  0  0
  8 44  1  0  0  0
  9 10  1  0  0  0
  9 45  1  0  0  0
  9 46  1  0  0  0
 10 11  1  0  0  0
 10 13  1  0  0  0
 11 12  1  0  0  0
 11 47  1  0  0  0
 11 48  1  0  0  0
 12 49  1  0  0  0
 12 50  1  0  0  0
 13 14  2  0  0  0
 13 15  1  0  0  0
 15 16  1  0  0  0
 15 21  1  0  0  0
 15 17  1  0  0  0
 17 18  1  0  0  0
 17 51  1  0  0  0
 17 52  1  0  0  0
 18 19  2  0  0  0
 18 53  1  0  0  0
 19 20  1  0  0  0
 19 54  1  0  0  0
 20 21  1  0  0  0
 20 55  1  0  0  0
 20 56  1  0  0  0
 21 22  1  0  0  0
 21 23  1  0  0  0
 23 24  2  0  0  0
 23 25  1  0  0  0
 25 30  1  0  0  0
 25 26  1  0  0  0
 26 27  1  0  0  0
 26 57  1  0  0  0
 26 58  1  0  0  0
 27 28  1  0  0  0
 27 59  1  0  0  0
 27 60  1  0  0  0
 28 29  1  0  0  0
 28 31  1  0  0  0
 28 38  1  0  0  0
 29 30  1  0  0  0
 29 61  1  0  0  0
 29 62  1  0  0  0
 30 63  1  0  0  0
 30 64  1  0  0  0
 31 36  2  0  0  0
 31 32  1  0  0  0
 32 33  2  0  0  0
 32 65  1  0  0  0
 33 34  1  0  0  0
 33 66  1  0  0  0
 34 35  2  0  0  0
 34 37  1  0  0  0
 35 36  1  0  0  0
 35 67  1  0  0  0
 36 68  1  0  0  0
 38 69  1  0  0  0
M  CHG  1   4   1
M  END
> <i_i_glide_confnum>
54

> <i_i_glide_lignum>
5345

> <i_i_glide_posenum>
193

> <i_i_glide_rotatable_bonds>
7

> <i_m_Source_File_Index>
546

> <b_m_subgroup_collapsed>
0

> <r_i_docking_score>
-3.86692

> <r_i_glide_ecoul>
-6.93876

> <r_i_glide_eff_state_penalty>
0

> <r_i_glide_einternal>
1.43899

> <r_i_glide_emodel>
-46.8763

> <r_i_glide_energy>
-37.8347

> <r_i_glide_erotb>
0.472436

> <r_i_glide_esite>
-0.0290661

> <r_i_glide_evdw>
-30.8959

> <r_i_glide_gscore>
-3.86692

> <r_i_glide_hbond>
0

> <r_i_glide_ligand_efficiency>
-0.107414

> <r_i_glide_ligand_efficiency_ln>
-0.843658

> <r_i_glide_ligand_efficiency_sa>
-0.354675

> <r_i_glide_lipo>
-1.71515

> <r_i_glide_metal>
0

> <r_i_glide_rewards>
-0.00952578

> <s_i_glide_gridfile>
wee1_glide-grid

> <s_m_Source_File>
wee1_decoys_glide_SP.sdf

> <s_m_Source_Path>
/Users/zhangxujun/Desktop

> <s_m_entry_id>
821

> <s_m_entry_name>
wee1_decoys_glide_SP.546

> <s_m_subgroup_title>
wee1_decoys_glide_SP

> <s_m_subgroupid>
wee1_decoys_glide_SP


$$$$
