@<TRIPOS>MOLECULE
ZINC40844483_2069
48   50    1
SMALL
USER_CHARGES


@<TRIPOS>ATOM
      1 C1         -8.2123   52.9639   28.2360 C.3       1 UNK         0.0000 
      2 O2         -6.9132   53.4659   27.9539 O.3       1 UNK         0.0000 
      3 C3         -6.1559   52.6367   27.1647 C.ar      1 UNK         0.0000 
      4 C4         -6.1605   52.8154   25.7813 C.ar      1 UNK         0.0000 
      5 C5         -5.3735   52.0036   24.9644 C.ar      1 UNK         0.0000 
      6 C6         -4.5545   51.0078   25.5137 C.ar      1 UNK         0.0000 
      7 C7         -4.5739   50.8266   26.9065 C.ar      1 UNK         0.0000 
      8 C8         -5.3539   51.6386   27.7282 C.ar      1 UNK         0.0000 
      9 Br9        -5.2908   51.3793   29.6164 Br        1 UNK         0.0000 
     10 C10        -3.7370   50.1712   24.6099 C.2       1 UNK         0.0000 
     11 N11        -2.6318   49.5530   24.8381 N.2       1 UNK         0.0000 
     12 N12        -1.8584   49.8437   25.9355 N.am      1 UNK         0.0000 
     13 C13        -1.2979   51.0406   26.2377 C.2       1 UNK         0.0000 
     14 O14        -1.6089   52.1199   25.7225 O.2       1 UNK         0.0000 
     15 N15        -0.3561   50.8976   27.1884 N.am      1 UNK         0.0000 
     16 C16         0.1540   51.9778   27.8876 C.2       1 UNK         0.0000 
     17 C17         1.0655   52.9886   27.4953 C.2       1 UNK         0.0000 
     18 C18         1.2021   53.9260   28.5763 C.2       1 UNK         0.0000 
     19 C19         0.4755   53.5551   29.7239 C.2       1 UNK         0.0000 
     20 S20        -0.4048   52.0969   29.5133 S.3       1 UNK         0.0000 
     21 C21         0.4870   54.2751   31.0639 C.3       1 UNK         0.0000 
     22 C22         1.0392   55.7005   30.8812 C.3       1 UNK         0.0000 
     23 C23         2.3043   55.7048   30.0263 C.3       1 UNK         0.0000 
     24 C24         2.0427   55.2152   28.5957 C.3       1 UNK         0.0000 
     25 C25         1.7219   53.0361   26.1628 C.2       1 UNK         0.0000 
     26 O26         1.4802   52.2408   25.2521 O.2       1 UNK         0.0000 
     27 O27         2.6247   54.0343   26.0486 O.3       1 UNK         0.0000 
     28 C28         3.3508   54.2275   24.8422 C.3       1 UNK         0.0000 
     29 H29        -8.7540   53.6841   28.8485 H         1 UNK         0.0000 
     30 H30        -8.7893   52.8006   27.3245 H         1 UNK         0.0000 
     31 H31        -8.1696   52.0243   28.7901 H         1 UNK         0.0000 
     32 H32        -6.7754   53.5862   25.3411 H         1 UNK         0.0000 
     33 H33        -5.3993   52.1679   23.8960 H         1 UNK         0.0000 
     34 H34        -3.9796   50.0530   27.3730 H         1 UNK         0.0000 
     35 H35        -4.1782   50.0671   23.6226 H         1 UNK         0.0000 
     36 H36        -1.3474   49.0410   26.2793 H         1 UNK         0.0000 
     37 H37        -0.2627   49.9821   27.6105 H         1 UNK         0.0000 
     38 H38         1.1045   53.7119   31.7607 H         1 UNK         0.0000 
     39 H39        -0.4955   54.3126   31.5223 H         1 UNK         0.0000 
     40 H40         1.2267   56.1598   31.8502 H         1 UNK         0.0000 
     41 H41         0.3044   56.3457   30.4088 H         1 UNK         0.0000 
     42 H42         3.0668   55.0723   30.4801 H         1 UNK         0.0000 
     43 H43         2.7044   56.7187   29.9849 H         1 UNK         0.0000 
     44 H44         1.5024   56.0036   28.0791 H         1 UNK         0.0000 
     45 H45         3.0124   55.1085   28.1144 H         1 UNK         0.0000 
     46 H46         4.0354   55.0676   24.9532 H         1 UNK         0.0000 
     47 H47         3.9379   53.3430   24.5914 H         1 UNK         0.0000 
     48 H48         2.6778   54.4440   24.0114 H         1 UNK         0.0000 
@<TRIPOS>BOND
     1    1    2 1    
     2    1   29 1    
     3    1   30 1    
     4    1   31 1    
     5    2    3 1    
     6    3    8 ar   
     7    3    4 ar   
     8    4    5 ar   
     9    4   32 1    
    10    5    6 ar   
    11    5   33 1    
    12    6    7 ar   
    13    6   10 1    
    14    7    8 ar   
    15    7   34 1    
    16    8    9 1    
    17   10   11 2    
    18   10   35 1    
    19   11   12 1    
    20   12   13 am   BACKBONE|DICT|INTERRES
    21   12   36 1    
    22   13   14 2    
    23   13   15 am   BACKBONE|DICT|INTERRES
    24   15   16 am   BACKBONE|DICT|INTERRES
    25   15   37 1    
    26   16   20 1    
    27   16   17 2    
    28   17   18 1    
    29   17   25 1    
    30   18   24 1    
    31   18   19 2    
    32   19   20 1    
    33   19   21 1    
    34   21   22 1    
    35   21   38 1    
    36   21   39 1    
    37   22   23 1    
    38   22   40 1    
    39   22   41 1    
    40   23   24 1    
    41   23   42 1    
    42   23   43 1    
    43   24   44 1    
    44   24   45 1    
    45   25   26 2    
    46   25   27 1    
    47   27   28 1    
    48   28   46 1    
    49   28   47 1    
    50   28   48 1    
@<TRIPOS>SUBSTRUCTURE
     1 UNK         1 GROUP             0       ****    0 ROOT    
