ZINC01017528_4991
                    3D
 Schrodinger Suite 2024-2.
 76 79  0  0  1  0            999 V2000
    8.6934   54.5561   17.1323 C   0  0  0  0  0  0
    7.6184   54.5608   18.2035 C   0  0  0  0  0  0
    6.4555   53.8079   18.0382 C   0  0  0  0  0  0
    5.4861   53.7859   19.0389 C   0  0  0  0  0  0
    5.6762   54.4960   20.2279 C   0  0  0  0  0  0
    6.8422   55.2757   20.3947 C   0  0  0  0  0  0
    7.8015   55.2967   19.3754 C   0  0  0  0  0  0
    7.1052   56.0969   21.6433 C   0  0  0  0  0  0
    4.6690   54.3684   21.1972 N   0  0  0  0  0  0
    4.8216   53.7960   22.4120 C   0  0  0  0  0  0
    5.9031   53.4342   22.8824 O   0  0  0  0  0  0
    3.5820   53.5780   23.1412 C   0  0  0  0  0  0
    3.4740   53.6968   24.5529 C   0  0  0  0  0  0
    2.2187   53.2966   25.0365 C   0  0  0  0  0  0
    1.1549   52.8082   23.7658 S   0  0  0  0  0  0
    2.4141   53.0213   22.5775 C   0  0  0  0  0  0
    2.2671   52.6415   21.2444 N   0  0  0  0  0  0
    1.2129   52.0969   20.6033 C   0  0  0  0  0  0
    0.1463   51.7640   21.1252 O   0  0  0  0  0  0
    1.4187   51.9668   19.0802 C   0  0  0  0  0  0
    1.0137   50.6484   18.5560 N   0  0  0  0  0  0
    0.9348   50.7523   17.0861 C   0  0  0  0  0  0
    0.4937   49.4246   16.4358 C   0  0  0  0  0  0
    1.5046   48.3266   16.8221 N   0  3  0  0  0  0
    1.6391   48.2388   18.3568 C   0  0  0  0  0  0
    2.0280   49.6302   18.9007 C   0  0  0  0  0  0
    1.1273   46.9646   16.2102 C   0  0  0  0  0  0
    1.7989   53.2787   26.5045 C   0  0  0  0  0  0
    3.0555   53.4089   27.4159 C   0  0  1  0  0  0
    3.6442   52.4966   27.3303 H   0  0  0  0  0  0
    3.9274   54.5655   26.8662 C   0  0  0  0  0  0
    4.5560   54.2210   25.5017 C   0  0  0  0  0  0
    2.7078   53.5408   28.9494 C   0  0  0  0  0  0
    2.0522   54.9042   29.2911 C   0  0  0  0  0  0
    3.9994   53.3931   29.7950 C   0  0  0  0  0  0
    1.7425   52.4112   29.3932 C   0  0  0  0  0  0
    8.6610   53.6355   16.5467 H   0  0  0  0  0  0
    9.6855   54.6028   17.5830 H   0  0  0  0  0  0
    8.5759   55.4111   16.4647 H   0  0  0  0  0  0
    6.3042   53.2224   17.1425 H   0  0  0  0  0  0
    4.6053   53.1782   18.8913 H   0  0  0  0  0  0
    8.7075   55.8762   19.4965 H   0  0  0  0  0  0
    6.3707   56.8967   21.6810 H   0  0  0  0  0  0
    7.0160   55.5243   22.5607 H   0  0  0  0  0  0
    8.1180   56.4967   21.6534 H   0  0  0  0  0  0
    3.7320   54.6075   20.9052 H   0  0  0  0  0  0
    3.0822   52.8022   20.6734 H   0  0  0  0  0  0
    0.8448   52.7676   18.6103 H   0  0  0  0  0  0
    2.4478   52.1909   18.7876 H   0  0  0  0  0  0
    0.2255   51.5312   16.7958 H   0  0  0  0  0  0
    1.9219   51.0275   16.7026 H   0  0  0  0  0  0
    0.5366   49.5092   15.3489 H   0  0  0  0  0  0
   -0.4995   49.1039   16.7558 H   0  0  0  0  0  0
    2.4447   47.5276   18.5489 H   0  0  0  0  0  0
    0.6950   47.8738   18.7640 H   0  0  0  0  0  0
    2.9938   49.9302   18.4834 H   0  0  0  0  0  0
    2.1408   49.5550   19.9823 H   0  0  0  0  0  0
    0.1514   46.6688   16.6016 H   0  0  0  0  0  0
    1.1022   47.0892   15.1261 H   0  0  0  0  0  0
    1.9066   46.2535   16.4927 H   0  0  0  0  0  0
    1.1094   54.0958   26.7007 H   0  0  0  0  0  0
    1.2686   52.3522   26.7179 H   0  0  0  0  0  0
    3.3461   55.4828   26.8341 H   0  0  0  0  0  0
    4.7542   54.7772   27.5430 H   0  0  0  0  0  0
    5.3296   53.4635   25.6330 H   0  0  0  0  0  0
    5.0547   55.0988   25.0916 H   0  0  0  0  0  0
    1.1322   55.0702   28.7312 H   0  0  0  0  0  0
    1.7877   54.9681   30.3467 H   0  0  0  0  0  0
    2.7163   55.7447   29.0825 H   0  0  0  0  0  0
    4.5674   52.5067   29.5095 H   0  0  0  0  0  0
    4.6642   54.2502   29.6906 H   0  0  0  0  0  0
    3.7821   53.2953   30.8589 H   0  0  0  0  0  0
    2.1164   51.4267   29.1041 H   0  0  0  0  0  0
    1.6040   52.3974   30.4757 H   0  0  0  0  0  0
    0.7485   52.5247   28.9584 H   0  0  0  0  0  0
    2.4306   48.6079   16.4836 H   0  0  0  0  0  0
  1  2  1  0  0  0
  1 37  1  0  0  0
  1 38  1  0  0  0
  1 39  1  0  0  0
  2  7  2  0  0  0
  2  3  1  0  0  0
  3  4  2  0  0  0
  3 40  1  0  0  0
  4  5  1  0  0  0
  4 41  1  0  0  0
  5  6  2  0  0  0
  5  9  1  0  0  0
  6  7  1  0  0  0
  6  8  1  0  0  0
  7 42  1  0  0  0
  8 43  1  0  0  0
  8 44  1  0  0  0
  8 45  1  0  0  0
  9 10  1  0  0  0
  9 46  1  0  0  0
 10 11  2  0  0  0
 10 12  1  0  0  0
 12 16  2  0  0  0
 12 13  1  0  0  0
 13 32  1  0  0  0
 13 14  2  0  0  0
 14 15  1  0  0  0
 14 28  1  0  0  0
 15 16  1  0  0  0
 16 17  1  0  0  0
 17 18  1  0  0  0
 17 47  1  0  0  0
 18 19  2  0  0  0
 18 20  1  0  0  0
 20 21  1  0  0  0
 20 48  1  0  0  0
 20 49  1  0  0  0
 21 26  1  0  0  0
 21 22  1  0  0  0
 22 23  1  0  0  0
 22 50  1  0  0  0
 22 51  1  0  0  0
 23 24  1  0  0  0
 23 52  1  0  0  0
 23 53  1  0  0  0
 24 25  1  0  0  0
 24 27  1  0  0  0
 24 76  1  0  0  0
 25 26  1  0  0  0
 25 54  1  0  0  0
 25 55  1  0  0  0
 26 56  1  0  0  0
 26 57  1  0  0  0
 27 58  1  0  0  0
 27 59  1  0  0  0
 27 60  1  0  0  0
 28 29  1  0  0  0
 28 61  1  0  0  0
 28 62  1  0  0  0
 29 30  1  0  0  0
 29 31  1  0  0  0
 29 33  1  0  0  0
 31 32  1  0  0  0
 31 63  1  0  0  0
 31 64  1  0  0  0
 32 65  1  0  0  0
 32 66  1  0  0  0
 33 34  1  0  0  0
 33 35  1  0  0  0
 33 36  1  0  0  0
 34 67  1  0  0  0
 34 68  1  0  0  0
 34 69  1  0  0  0
 35 70  1  0  0  0
 35 71  1  0  0  0
 35 72  1  0  0  0
 36 73  1  0  0  0
 36 74  1  0  0  0
 36 75  1  0  0  0
M  CHG  1  24   1
M  END
> <i_i_glide_confnum>
94

> <i_i_glide_lignum>
4992

> <i_i_glide_posenum>
206

> <i_i_glide_rotatable_bonds>
8

> <i_m_Source_File_Index>
151

> <b_m_subgroup_collapsed>
0

> <r_i_docking_score>
-5.88734

> <r_i_glide_ecoul>
-6.36408

> <r_i_glide_eff_state_penalty>
0

> <r_i_glide_einternal>
5.36515

> <r_i_glide_emodel>
-63.0999

> <r_i_glide_energy>
-47.4713

> <r_i_glide_erotb>
0.576483

> <r_i_glide_esite>
-0.135747

> <r_i_glide_evdw>
-41.1072

> <r_i_glide_gscore>
-5.88734

> <r_i_glide_hbond>
-0.2

> <r_i_glide_ligand_efficiency>
-0.16821

> <r_i_glide_ligand_efficiency_ln>
-1.2924

> <r_i_glide_ligand_efficiency_sa>
-0.550225

> <r_i_glide_lipo>
-2.80638

> <r_i_glide_metal>
0

> <r_i_glide_rewards>
-0.31172

> <s_i_glide_gridfile>
wee1_glide-grid

> <s_m_Source_File>
wee1_decoys_glide_SP.sdf

> <s_m_Source_Path>
/Users/zhangxujun/Desktop

> <s_m_entry_id>
426

> <s_m_entry_name>
wee1_decoys_glide_SP.151

> <s_m_subgroup_title>
wee1_decoys_glide_SP

> <s_m_subgroupid>
wee1_decoys_glide_SP


$$$$
