@<TRIPOS>MOLECULE
ZINC39750064_5607
54   59    1
SMALL
USER_CHARGES


@<TRIPOS>ATOM
      1 C1         -2.9988   52.7185   17.7920 C.3       1 UNK         0.0000 
      2 C2         -3.0641   51.6478   18.8719 C.ar      1 UNK         0.0000 
      3 C3         -4.2367   50.8974   19.0215 C.ar      1 UNK         0.0000 
      4 C4         -4.3524   49.8975   19.9867 C.ar      1 UNK         0.0000 
      5 C5         -3.3010   49.5892   20.8475 C.ar      1 UNK         0.0000 
      6 C6         -2.1155   50.3196   20.7126 C.ar      1 UNK         0.0000 
      7 C7         -1.9908   51.3479   19.7371 C.ar      1 UNK         0.0000 
      8 N8         -0.7930   51.9941   19.7366 N.2       1 UNK         0.0000 
      9 C9          0.0138   51.5145   20.6380 C.2       1 UNK         0.0000 
     10 S10        -0.6124   50.1911   21.6155 S.3       1 UNK         0.0000 
     11 N11         1.2544   52.0984   20.8048 N.am      1 UNK         0.0000 
     12 C12         2.2740   51.6845   21.5844 C.2       1 UNK         0.0000 
     13 O13         2.3213   50.6222   22.2027 O.2       1 UNK         0.0000 
     14 C14         3.4566   52.6486   21.6657 C.3       1 UNK         0.0000 
     15 S15         3.1126   54.2031   22.5723 S.3       1 UNK         0.0000 
     16 C16         2.3564   53.6680   24.0824 C.ar      1 UNK         0.0000 
     17 N17         1.1184   53.2476   24.1206 N.2       1 UNK         0.0000 
     18 N18         0.8295   52.8967   25.4265 N.2       1 UNK         0.0000 
     19 C19         1.8778   53.1812   26.1592 C.ar      1 UNK         0.0000 
     20 N20         2.9101   53.6854   25.3604 N.pl3     1 UNK         0.0000 
     21 C21         4.2074   54.1160   25.7652 C.ar      1 UNK         0.0000 
     22 C22         5.3343   53.8578   24.9751 C.ar      1 UNK         0.0000 
     23 C23         6.6127   54.0971   25.4682 C.ar      1 UNK         0.0000 
     24 C24         6.7638   54.5697   26.7675 C.ar      1 UNK         0.0000 
     25 C25         5.6581   54.8965   27.5349 C.ar      1 UNK         0.0000 
     26 C26         4.3830   54.7327   27.0090 C.ar      1 UNK         0.0000 
     27 C27         1.8719   52.9494   27.6517 C.ar      1 UNK         0.0000 
     28 C28         0.6935   53.1652   28.4013 C.ar      1 UNK         0.0000 
     29 C29         0.6517   52.9304   29.7849 C.ar      1 UNK         0.0000 
     30 C30         1.8145   52.4725   30.3932 C.ar      1 UNK         0.0000 
     31 C31         2.9542   52.2447   29.6819 C.ar      1 UNK         0.0000 
     32 C32         3.0163   52.4779   28.3172 C.ar      1 UNK         0.0000 
     33 O33         3.9048   51.7122   30.4944 O.3       1 UNK         0.0000 
     34 C34         3.3926   51.8222   31.7934 C.3       1 UNK         0.0000 
     35 O35         2.0181   52.0967   31.6819 O.3       1 UNK         0.0000 
     36 H36        -2.7613   53.6885   18.2285 H         1 UNK         0.0000 
     37 H37        -3.9353   52.8149   17.2404 H         1 UNK         0.0000 
     38 H38        -2.2079   52.4819   17.0782 H         1 UNK         0.0000 
     39 H39        -5.0821   51.0904   18.3760 H         1 UNK         0.0000 
     40 H40        -5.2810   49.3488   20.0644 H         1 UNK         0.0000 
     41 H41        -3.3974   48.8115   21.5941 H         1 UNK         0.0000 
     42 H42         1.3998   52.9471   20.2728 H         1 UNK         0.0000 
     43 H43         4.3229   52.1409   22.0855 H         1 UNK         0.0000 
     44 H44         3.7555   52.9137   20.6518 H         1 UNK         0.0000 
     45 H45         5.2469   53.3865   24.0099 H         1 UNK         0.0000 
     46 H46         7.4771   53.8594   24.8648 H         1 UNK         0.0000 
     47 H47         7.7466   54.6914   27.1957 H         1 UNK         0.0000 
     48 H48         5.7932   55.2955   28.5301 H         1 UNK         0.0000 
     49 H49         3.5365   55.0105   27.6184 H         1 UNK         0.0000 
     50 H50        -0.2038   53.5064   27.9060 H         1 UNK         0.0000 
     51 H51        -0.2581   53.0740   30.3491 H         1 UNK         0.0000 
     52 H52         3.9195   52.2503   27.7726 H         1 UNK         0.0000 
     53 H53         3.9056   52.6435   32.2933 H         1 UNK         0.0000 
     54 H54         3.5544   50.9177   32.3799 H         1 UNK         0.0000 
@<TRIPOS>BOND
     1    1    2 1    
     2    1   36 1    
     3    1   37 1    
     4    1   38 1    
     5    2    7 ar   
     6    2    3 ar   
     7    3    4 ar   
     8    3   39 1    
     9    4    5 ar   
    10    4   40 1    
    11    5    6 ar   
    12    5   41 1    
    13    6   10 1    
    14    6    7 ar   
    15    7    8 1    
    16    8    9 2    
    17    9   10 1    
    18    9   11 am   BACKBONE|DICT|INTERRES
    19   11   12 am   BACKBONE|DICT|INTERRES
    20   11   42 1    
    21   12   13 2    
    22   12   14 1    
    23   14   15 1    
    24   14   43 1    
    25   14   44 1    
    26   15   16 1    
    27   16   20 ar   
    28   16   17 ar   
    29   17   18 ar   
    30   18   19 ar   
    31   19   20 ar   
    32   19   27 1    
    33   20   21 1    
    34   21   26 ar   
    35   21   22 ar   
    36   22   23 ar   
    37   22   45 1    
    38   23   24 ar   
    39   23   46 1    
    40   24   25 ar   
    41   24   47 1    
    42   25   26 ar   
    43   25   48 1    
    44   26   49 1    
    45   27   32 ar   
    46   27   28 ar   
    47   28   29 ar   
    48   28   50 1    
    49   29   30 ar   
    50   29   51 1    
    51   30   35 1    
    52   30   31 ar   
    53   31   32 ar   
    54   31   33 1    
    55   32   52 1    
    56   33   34 1    
    57   34   35 1    
    58   34   53 1    
    59   34   54 1    
@<TRIPOS>SUBSTRUCTURE
     1 UNK         1 GROUP             0       ****    0 ROOT    
