ZINC02203885_2488
                    3D
 Schrodinger Suite 2024-2.
 36 38  0  0  1  0            999 V2000
    6.5850   53.6991   27.2703 C   0  0  0  0  0  0
    5.8075   53.4070   28.3754 C   0  0  0  0  0  0
    4.4239   53.4927   28.3103 C   0  0  0  0  0  0
    3.7840   53.9082   27.1295 C   0  0  0  0  0  0
    4.5748   54.1870   25.9928 C   0  0  0  0  0  0
    5.9740   54.0912   26.0894 C   0  0  0  0  0  0
    3.9658   54.6219   24.8324 O   0  0  0  0  0  0
    4.3682   54.1757   23.5861 C   0  0  0  0  0  0
    3.5379   53.2945   22.8826 C   0  0  0  0  0  0
    3.8917   52.9272   21.5778 C   0  0  0  0  0  0
    4.9702   53.4412   20.9431 N   0  0  0  0  0  0
    5.7458   54.3314   21.6090 C   0  0  0  0  0  0
    5.5079   54.6843   22.9351 C   0  0  0  0  0  0
    6.3043   55.6169   23.5146 F   0  0  0  0  0  0
    6.7835   54.9040   20.9556 F   0  0  0  0  0  0
    3.1512   51.9880   20.8665 N   0  0  0  0  0  0
    2.4204   52.7954   23.4656 F   0  0  0  0  0  0
    2.4010   54.0348   27.0642 O   0  0  0  0  0  0
    1.6649   54.1242   28.2329 C   0  0  0  0  0  0
    0.9378   53.0272   28.7211 C   0  0  0  0  0  0
    0.2759   53.1484   29.9547 C   0  0  0  0  0  0
    0.3464   54.2753   30.7052 N   0  0  0  0  0  0
    1.0393   55.3380   30.2196 C   0  0  0  0  0  0
    1.6763   55.3085   28.9793 C   0  0  0  0  0  0
    2.3051   56.4107   28.5163 F   0  0  0  0  0  0
    1.0970   56.4673   30.9604 F   0  0  0  0  0  0
   -0.4835   52.0988   30.4799 N   0  0  0  0  0  0
    0.8929   51.8702   28.0167 F   0  0  0  0  0  0
    7.6591   53.6126   27.3276 H   0  0  0  0  0  0
    6.2862   53.0961   29.2799 H   0  0  0  0  0  0
    3.8596   53.2410   29.1957 H   0  0  0  0  0  0
    6.6245   54.2841   25.2585 H   0  0  0  0  0  0
    2.2469   51.7081   21.2180 H   0  0  0  0  0  0
    3.4305   51.7788   19.9164 H   0  0  0  0  0  0
   -0.5990   51.2539   29.9366 H   0  0  0  0  0  0
   -0.8518   52.1347   31.4339 H   0  0  0  0  0  0
  1  6  2  0  0  0
  1  2  1  0  0  0
  1 29  1  0  0  0
  2  3  2  0  0  0
  2 30  1  0  0  0
  3  4  1  0  0  0
  3 31  1  0  0  0
  4  5  2  0  0  0
  4 18  1  0  0  0
  5  6  1  0  0  0
  5  7  1  0  0  0
  6 32  1  0  0  0
  7  8  1  0  0  0
  8 13  2  0  0  0
  8  9  1  0  0  0
  9 10  2  0  0  0
  9 17  1  0  0  0
 10 11  1  0  0  0
 10 16  1  0  0  0
 11 12  2  0  0  0
 12 13  1  0  0  0
 12 15  1  0  0  0
 13 14  1  0  0  0
 16 33  1  0  0  0
 16 34  1  0  0  0
 18 19  1  0  0  0
 19 24  2  0  0  0
 19 20  1  0  0  0
 20 21  2  0  0  0
 20 28  1  0  0  0
 21 22  1  0  0  0
 21 27  1  0  0  0
 22 23  2  0  0  0
 23 24  1  0  0  0
 23 26  1  0  0  0
 24 25  1  0  0  0
 27 35  1  0  0  0
 27 36  1  0  0  0
M  END
> <i_i_glide_confnum>
14

> <i_i_glide_lignum>
2489

> <i_i_glide_posenum>
14

> <i_i_glide_rotatable_bonds>
4

> <i_m_Source_File_Index>
3556

> <b_m_subgroup_collapsed>
0

> <r_i_docking_score>
-7.27207

> <r_i_glide_ecoul>
-2.81073

> <r_i_glide_eff_state_penalty>
0

> <r_i_glide_einternal>
3.63233

> <r_i_glide_emodel>
-56.584

> <r_i_glide_energy>
-37.0879

> <r_i_glide_erotb>
0.485075

> <r_i_glide_esite>
-0.113937

> <r_i_glide_evdw>
-34.2772

> <r_i_glide_gscore>
-7.27207

> <r_i_glide_hbond>
-0.16

> <r_i_glide_ligand_efficiency>
-0.259717

> <r_i_glide_ligand_efficiency_ln>
-1.67861

> <r_i_glide_ligand_efficiency_sa>
-0.788653

> <r_i_glide_lipo>
-3.38039

> <r_i_glide_metal>
0

> <r_i_glide_rewards>
-1.96735

> <s_i_glide_gridfile>
wee1_glide-grid

> <s_m_Source_File>
wee1_decoys_glide_SP.sdf

> <s_m_Source_Path>
/Users/zhangxujun/Desktop

> <s_m_entry_id>
3831

> <s_m_entry_name>
wee1_decoys_glide_SP.3556

> <s_m_subgroup_title>
wee1_decoys_glide_SP

> <s_m_subgroupid>
wee1_decoys_glide_SP


$$$$
