@<TRIPOS>MOLECULE
ZINC12604180_6093
70   74    1
SMALL
USER_CHARGES


@<TRIPOS>ATOM
      1 C1          0.3035   51.1940   26.7302 C.ar      1 UNK         0.0000 
      2 C2          0.3027   50.0389   25.9570 C.ar      1 UNK         0.0000 
      3 C3          0.7027   50.1015   24.6249 C.ar      1 UNK         0.0000 
      4 C4          1.0989   51.3253   24.0523 C.ar      1 UNK         0.0000 
      5 C5          1.0714   52.4848   24.8408 C.ar      1 UNK         0.0000 
      6 C6          0.6916   52.4127   26.1802 C.ar      1 UNK         0.0000 
      7 N7          1.5512   51.3779   22.7021 N.pl3     1 UNK         0.0000 
      8 C8          2.2115   52.3813   22.0288 C.ar      1 UNK         0.0000 
      9 C9          2.5743   51.9028   20.7741 C.ar      1 UNK         0.0000 
     10 C10         1.9112   50.6529   20.7352 C.ar      1 UNK         0.0000 
     11 N11         1.3808   50.3291   21.8910 N.2       1 UNK         0.0000 
     12 C12         1.7473   49.7270   19.6282 C.2       1 UNK         0.0000 
     13 C13         1.9748   48.3532   19.6180 C.2       1 UNK         0.0000 
     14 C14         1.6226   47.7397   18.4119 C.2       1 UNK         0.0000 
     15 C15         1.1049   48.6360   17.4914 C.2       1 UNK         0.0000 
     16 S16         1.0772   50.2538   18.1093 S.3       1 UNK         0.0000 
     17 C17         3.3443   52.5416   19.6996 C.2       1 UNK         0.0000 
     18 C18         4.3557   53.4675   19.6406 C.2       1 UNK         0.0000 
     19 C19         4.9823   54.0972   20.8105 C.2       1 UNK         0.0000 
     20 O20         5.4716   55.2291   20.7614 O.2       1 UNK         0.0000 
     21 N21         5.0567   53.3552   21.9292 N.am      1 UNK         0.0000 
     22 C22         5.4851   53.7973   23.2636 C.3       1 UNK         0.0000 
     23 C23         6.7043   54.7410   23.3966 C.3       1 UNK         0.0000 
     24 C24         7.0900   55.0300   24.8552 C.3       1 UNK         0.0000 
     25 C25         5.8968   55.5034   25.6813 C.3       1 UNK         0.0000 
     26 C26         4.7706   54.4658   25.6714 C.3       1 UNK         0.0000 
     27 C27         4.3265   54.0980   24.2446 C.3       1 UNK         0.0000 
     28 C28         4.7894   53.8384   18.2896 C.2       1 UNK         0.0000 
     29 O29         4.0076   53.8992   17.3361 O.2       1 UNK         0.0000 
     30 N30         6.1013   54.1100   18.1358 N.am      1 UNK         0.0000 
     31 C31         6.7608   54.4594   16.8756 C.3       1 UNK         0.0000 
     32 C32         8.0397   55.2895   17.1398 C.3       1 UNK         0.0000 
     33 C33         9.1340   54.4797   17.8704 C.3       1 UNK         0.0000 
     34 C34         9.4806   53.1864   17.1033 C.3       1 UNK         0.0000 
     35 C35         8.2289   52.3482   16.7659 C.3       1 UNK         0.0000 
     36 C36         7.1551   53.2032   16.0581 C.3       1 UNK         0.0000 
     37 H37        -0.0013   51.1354   27.7646 H         1 UNK         0.0000 
     38 H38         0.0010   49.0967   26.3967 H         1 UNK         0.0000 
     39 H39         0.7186   49.1817   24.0577 H         1 UNK         0.0000 
     40 H40         1.3499   53.4469   24.4401 H         1 UNK         0.0000 
     41 H41         0.6960   53.2979   26.7963 H         1 UNK         0.0000 
     42 H42         2.4074   53.3333   22.4916 H         1 UNK         0.0000 
     43 H43         2.3886   47.8188   20.4613 H         1 UNK         0.0000 
     44 H44         1.7476   46.6857   18.2157 H         1 UNK         0.0000 
     45 H45         0.7738   48.4334   16.4847 H         1 UNK         0.0000 
     46 H46         3.0081   52.1341   18.7552 H         1 UNK         0.0000 
     47 H47         4.5906   52.4605   21.8856 H         1 UNK         0.0000 
     48 H48         5.9045   52.8947   23.6813 H         1 UNK         0.0000 
     49 H49         6.4850   55.7016   22.9355 H         1 UNK         0.0000 
     50 H50         7.5597   54.3214   22.8669 H         1 UNK         0.0000 
     51 H51         7.8718   55.7894   24.8814 H         1 UNK         0.0000 
     52 H52         7.5037   54.1288   25.3056 H         1 UNK         0.0000 
     53 H53         5.5296   56.4492   25.2819 H         1 UNK         0.0000 
     54 H54         6.2160   55.6948   26.7063 H         1 UNK         0.0000 
     55 H55         3.9177   54.8331   26.2438 H         1 UNK         0.0000 
     56 H56         5.1109   53.5648   26.1846 H         1 UNK         0.0000 
     57 H57         3.6731   53.2341   24.3208 H         1 UNK         0.0000 
     58 H58         3.7351   54.9207   23.8468 H         1 UNK         0.0000 
     59 H59         6.7064   53.9736   18.9301 H         1 UNK         0.0000 
     60 H60         6.0766   55.0759   16.2860 H         1 UNK         0.0000 
     61 H61         8.4330   55.6593   16.1917 H         1 UNK         0.0000 
     62 H62         7.7913   56.1803   17.7180 H         1 UNK         0.0000 
     63 H63        10.0305   55.0896   17.9955 H         1 UNK         0.0000 
     64 H64         8.8015   54.2297   18.8792 H         1 UNK         0.0000 
     65 H65         9.9970   53.4473   16.1781 H         1 UNK         0.0000 
     66 H66        10.1864   52.5892   17.6808 H         1 UNK         0.0000 
     67 H67         8.5047   51.4999   16.1371 H         1 UNK         0.0000 
     68 H68         7.8114   51.9200   17.6800 H         1 UNK         0.0000 
     69 H69         6.2694   52.5958   15.8656 H         1 UNK         0.0000 
     70 H70         7.5204   53.5080   15.0770 H         1 UNK         0.0000 
@<TRIPOS>BOND
     1    1    6 ar   
     2    1    2 ar   
     3    1   37 1    
     4    2    3 ar   
     5    2   38 1    
     6    3    4 ar   
     7    3   39 1    
     8    4    5 ar   
     9    4    7 1    
    10    5    6 ar   
    11    5   40 1    
    12    6   41 1    
    13    7   11 ar   
    14    7    8 ar   
    15    8    9 ar   
    16    8   42 1    
    17    9   10 ar   
    18    9   17 1    
    19   10   11 ar   
    20   10   12 1    
    21   12   16 1    
    22   12   13 2    
    23   13   14 1    
    24   13   43 1    
    25   14   15 2    
    26   14   44 1    
    27   15   16 1    
    28   15   45 1    
    29   17   18 2    
    30   17   46 1    
    31   18   19 1    
    32   18   28 1    
    33   19   20 2    
    34   19   21 am   BACKBONE|DICT|INTERRES
    35   21   22 1    
    36   21   47 1    
    37   22   27 1    
    38   22   23 1    
    39   22   48 1    
    40   23   24 1    
    41   23   49 1    
    42   23   50 1    
    43   24   25 1    
    44   24   51 1    
    45   24   52 1    
    46   25   26 1    
    47   25   53 1    
    48   25   54 1    
    49   26   27 1    
    50   26   55 1    
    51   26   56 1    
    52   27   57 1    
    53   27   58 1    
    54   28   29 2    
    55   28   30 am   BACKBONE|DICT|INTERRES
    56   30   31 1    
    57   30   59 1    
    58   31   36 1    
    59   31   32 1    
    60   31   60 1    
    61   32   33 1    
    62   32   61 1    
    63   32   62 1    
    64   33   34 1    
    65   33   63 1    
    66   33   64 1    
    67   34   35 1    
    68   34   65 1    
    69   34   66 1    
    70   35   36 1    
    71   35   67 1    
    72   35   68 1    
    73   36   69 1    
    74   36   70 1    
@<TRIPOS>SUBSTRUCTURE
     1 UNK         1 GROUP             0       ****    0 ROOT    
