ZINC66678629_4608
                    3D
 Schrodinger Suite 2024-2.
 49 51  0  0  1  0            999 V2000
    3.1894   51.1877   20.8806 C   0  0  0  0  0  0
    2.7015   52.5121   21.4899 C   0  0  0  0  0  0
    1.5528   52.2946   22.4834 C   0  0  0  0  0  0
    3.7538   53.1309   22.2277 O   0  0  0  0  0  0
    4.7325   53.8883   21.5996 C   0  0  0  0  0  0
    4.7966   54.0918   20.2100 C   0  0  0  0  0  0
    5.7914   54.8934   19.6526 C   0  0  0  0  0  0
    6.7409   55.4972   20.4702 C   0  0  0  0  0  0
    6.7044   55.2964   21.8465 C   0  0  0  0  0  0
    5.6997   54.4967   22.4211 C   0  0  0  0  0  0
    5.5629   54.2899   23.8077 N   0  0  0  0  0  0
    6.1942   54.8772   24.8443 C   0  0  0  0  0  0
    7.1044   55.6968   24.7647 O   0  0  0  0  0  0
    5.7137   54.4507   26.1984 C   0  0  0  0  0  0
    6.6441   54.2273   27.2173 C   0  0  0  0  0  0
    6.2213   53.8418   28.4817 C   0  0  0  0  0  0
    4.8643   53.6810   28.7509 C   0  0  0  0  0  0
    3.9197   53.9086   27.7436 C   0  0  0  0  0  0
    4.3461   54.2998   26.4727 C   0  0  0  0  0  0
    2.5417   53.7888   27.9547 N   0  0  0  0  0  0
    1.9280   52.8283   28.6673 C   0  0  0  0  0  0
    2.4938   51.9348   29.3026 O   0  0  0  0  0  0
    0.6013   52.9035   28.5064 N   0  0  0  0  0  0
   -0.2403   51.7220   28.3985 C   0  0  0  0  0  0
   -1.3478   51.6965   27.3701 C   0  0  0  0  0  0
   -0.0908   50.8965   27.1385 C   0  0  0  0  0  0
    7.7000   56.2801   19.9293 F   0  0  0  0  0  0
    2.3990   50.7038   20.3063 H   0  0  0  0  0  0
    4.0332   51.3344   20.2060 H   0  0  0  0  0  0
    3.5045   50.4945   21.6592 H   0  0  0  0  0  0
    2.3256   53.1732   20.7087 H   0  0  0  0  0  0
    0.6955   51.8269   21.9988 H   0  0  0  0  0  0
    1.8590   51.6555   23.3124 H   0  0  0  0  0  0
    1.2170   53.2435   22.9025 H   0  0  0  0  0  0
    4.0820   53.6407   19.5393 H   0  0  0  0  0  0
    5.8275   55.0464   18.5840 H   0  0  0  0  0  0
    7.4713   55.7700   22.4383 H   0  0  0  0  0  0
    4.8398   53.6260   24.0432 H   0  0  0  0  0  0
    7.7019   54.3506   27.0416 H   0  0  0  0  0  0
    6.9565   53.6942   29.2594 H   0  0  0  0  0  0
    4.5529   53.3921   29.7426 H   0  0  0  0  0  0
    3.6113   54.4859   25.7014 H   0  0  0  0  0  0
    1.9565   54.3606   27.3665 H   0  0  0  0  0  0
    0.1487   53.8038   28.4840 H   0  0  0  0  0  0
   -0.3917   51.1904   29.3411 H   0  0  0  0  0  0
   -2.2671   51.1639   27.6181 H   0  0  0  0  0  0
   -1.5309   52.5869   26.7680 H   0  0  0  0  0  0
    0.6122   51.2217   26.3708 H   0  0  0  0  0  0
   -0.0972   49.8117   27.2512 H   0  0  0  0  0  0
  1  2  1  0  0  0
  1 28  1  0  0  0
  1 29  1  0  0  0
  1 30  1  0  0  0
  2  3  1  0  0  0
  2  4  1  0  0  0
  2 31  1  0  0  0
  3 32  1  0  0  0
  3 33  1  0  0  0
  3 34  1  0  0  0
  4  5  1  0  0  0
  5 10  2  0  0  0
  5  6  1  0  0  0
  6  7  2  0  0  0
  6 35  1  0  0  0
  7  8  1  0  0  0
  7 36  1  0  0  0
  8  9  2  0  0  0
  8 27  1  0  0  0
  9 10  1  0  0  0
  9 37  1  0  0  0
 10 11  1  0  0  0
 11 12  1  0  0  0
 11 38  1  0  0  0
 12 13  2  0  0  0
 12 14  1  0  0  0
 14 19  2  0  0  0
 14 15  1  0  0  0
 15 16  2  0  0  0
 15 39  1  0  0  0
 16 17  1  0  0  0
 16 40  1  0  0  0
 17 18  2  0  0  0
 17 41  1  0  0  0
 18 19  1  0  0  0
 18 20  1  0  0  0
 19 42  1  0  0  0
 20 21  1  0  0  0
 20 43  1  0  0  0
 21 22  2  0  0  0
 21 23  1  0  0  0
 23 24  1  0  0  0
 23 44  1  0  0  0
 24 26  1  0  0  0
 24 25  1  0  0  0
 24 45  1  0  0  0
 25 26  1  0  0  0
 25 46  1  0  0  0
 25 47  1  0  0  0
 26 48  1  0  0  0
 26 49  1  0  0  0
M  END
> <i_i_glide_confnum>
134

> <i_i_glide_lignum>
4609

> <i_i_glide_posenum>
238

> <i_i_glide_rotatable_bonds>
9

> <i_m_Source_File_Index>
2863

> <b_m_subgroup_collapsed>
0

> <r_i_docking_score>
-6.03662

> <r_i_glide_ecoul>
-3.85725

> <r_i_glide_eff_state_penalty>
0

> <r_i_glide_einternal>
9.7859

> <r_i_glide_emodel>
-64.5563

> <r_i_glide_energy>
-51.4224

> <r_i_glide_erotb>
0.979538

> <r_i_glide_esite>
0

> <r_i_glide_evdw>
-47.5652

> <r_i_glide_gscore>
-6.03662

> <r_i_glide_hbond>
-0.357184

> <r_i_glide_ligand_efficiency>
-0.223578

> <r_i_glide_ligand_efficiency_ln>
-1.40522

> <r_i_glide_ligand_efficiency_sa>
-0.670735

> <r_i_glide_lipo>
-2.55884

> <r_i_glide_metal>
0

> <r_i_glide_rewards>
-1.14328

> <s_i_glide_gridfile>
wee1_glide-grid

> <s_m_Source_File>
wee1_decoys_glide_SP.sdf

> <s_m_Source_Path>
/Users/zhangxujun/Desktop

> <s_m_entry_id>
3138

> <s_m_entry_name>
wee1_decoys_glide_SP.2863

> <s_m_subgroup_title>
wee1_decoys_glide_SP

> <s_m_subgroupid>
wee1_decoys_glide_SP


$$$$
