@<TRIPOS>MOLECULE
ZINC11278175_4925
52   55    1
SMALL
USER_CHARGES


@<TRIPOS>ATOM
      1 C1          6.9439   57.5115   16.0593 C.3       1 UNK         0.0000 
      2 C2          6.5935   56.2802   16.8748 C.ar      1 UNK         0.0000 
      3 C3          5.9764   55.1837   16.2748 C.ar      1 UNK         0.0000 
      4 C4          5.6260   54.0585   17.0276 C.ar      1 UNK         0.0000 
      5 C5          5.8743   54.0344   18.4154 C.ar      1 UNK         0.0000 
      6 C6          6.5336   55.1350   19.0098 C.ar      1 UNK         0.0000 
      7 C7          6.8745   56.2460   18.2383 C.ar      1 UNK         0.0000 
      8 Cl8         6.9646   55.1888   20.6882 Cl        1 UNK         0.0000 
      9 N9          5.4855   52.8967   19.1538 N.pl3     1 UNK         0.0000 
     10 C10         4.5838   52.9187   20.1871 C.2       1 UNK         0.0000 
     11 N11         4.0219   53.9797   20.6999 N.2       1 UNK         0.0000 
     12 N12         3.1042   53.6610   21.6818 N.2       1 UNK         0.0000 
     13 C13         2.9720   52.3771   21.9007 C.2       1 UNK         0.0000 
     14 S14         4.0117   51.4284   20.8817 S.3       1 UNK         0.0000 
     15 S15         1.8954   51.6242   23.0924 S.3       1 UNK         0.0000 
     16 C16         1.2261   53.0675   23.9993 C.3       1 UNK         0.0000 
     17 C17         2.3114   53.8832   24.7230 C.2       1 UNK         0.0000 
     18 O18         2.7045   54.8966   24.1496 O.2       1 UNK         0.0000 
     19 N19         2.8152   53.4919   25.9295 N.am      1 UNK         0.0000 
     20 C20         1.8774   52.8605   26.8869 C.3       1 UNK         0.0000 
     21 C21         2.5251   52.6769   28.2959 C.3       1 UNK         0.0000 
     22 H22         3.0710   51.7334   28.3433 H         1 UNK         0.0000 
     23 O23         3.4142   53.7428   28.6590 O.3       1 UNK         0.0000 
     24 C24         4.3899   53.9681   27.7194 C.ar      1 UNK         0.0000 
     25 C25         4.1141   53.8978   26.3478 C.ar      1 UNK         0.0000 
     26 C26         5.1849   54.0974   25.4512 C.ar      1 UNK         0.0000 
     27 C27         6.4628   54.4065   25.9133 C.ar      1 UNK         0.0000 
     28 C28         6.7002   54.4994   27.2823 C.ar      1 UNK         0.0000 
     29 C29         5.6623   54.2884   28.1878 C.ar      1 UNK         0.0000 
     30 C30         1.4363   52.6141   29.3949 C.2       1 UNK         0.0000 
     31 O31         1.4459   53.3715   30.3636 O.2       1 UNK         0.0000 
     32 N32         0.4751   51.6968   29.2777 N.am      1 UNK         0.0000 
     33 C33         4.9447   52.8976   16.3087 C.3       1 UNK         0.0000 
     34 H34         6.4011   57.5403   15.1139 H         1 UNK         0.0000 
     35 H35         6.6737   58.4167   16.6055 H         1 UNK         0.0000 
     36 H36         8.0150   57.5471   15.8596 H         1 UNK         0.0000 
     37 H37         5.7646   55.2081   15.2153 H         1 UNK         0.0000 
     38 H38         7.3644   57.0892   18.7033 H         1 UNK         0.0000 
     39 H39         5.5057   52.0261   18.6085 H         1 UNK         0.0000 
     40 H40         0.4523   52.7362   24.6884 H         1 UNK         0.0000 
     41 H41         0.7067   53.7153   23.2920 H         1 UNK         0.0000 
     42 H42         1.4557   51.9339   26.4957 H         1 UNK         0.0000 
     43 H43         1.0155   53.5273   26.9574 H         1 UNK         0.0000 
     44 H44         5.0419   53.9980   24.3844 H         1 UNK         0.0000 
     45 H45         7.2653   54.5553   25.2052 H         1 UNK         0.0000 
     46 H46         7.6843   54.7378   27.6567 H         1 UNK         0.0000 
     47 H47         5.8480   54.3672   29.2489 H         1 UNK         0.0000 
     48 H48         0.4500   51.0357   28.5159 H         1 UNK         0.0000 
     49 H49        -0.2319   51.6452   29.9980 H         1 UNK         0.0000 
     50 H50         4.5204   53.2012   15.3512 H         1 UNK         0.0000 
     51 H51         5.6592   52.0934   16.1390 H         1 UNK         0.0000 
     52 H52         4.1185   52.4968   16.8974 H         1 UNK         0.0000 
@<TRIPOS>BOND
     1    1    2 1    
     2    1   34 1    
     3    1   35 1    
     4    1   36 1    
     5    2    7 ar   
     6    2    3 ar   
     7    3    4 ar   
     8    3   37 1    
     9    4    5 ar   
    10    4   33 1    
    11    5    6 ar   
    12    5    9 1    
    13    6    7 ar   
    14    6    8 1    
    15    7   38 1    
    16    9   10 1    
    17    9   39 1    
    18   10   14 1    
    19   10   11 2    
    20   11   12 1    
    21   12   13 2    
    22   13   14 1    
    23   13   15 1    
    24   15   16 1    
    25   16   17 1    
    26   16   40 1    
    27   16   41 1    
    28   17   18 2    
    29   17   19 am   BACKBONE|DICT|INTERRES
    30   19   25 1    
    31   19   20 1    
    32   20   21 1    
    33   20   42 1    
    34   20   43 1    
    35   21   22 1    
    36   21   23 1    
    37   21   30 1    
    38   23   24 1    
    39   24   29 ar   
    40   24   25 ar   
    41   25   26 ar   
    42   26   27 ar   
    43   26   44 1    
    44   27   28 ar   
    45   27   45 1    
    46   28   29 ar   
    47   28   46 1    
    48   29   47 1    
    49   30   31 2    
    50   30   32 am   BACKBONE|DICT|INTERRES
    51   32   48 1    
    52   32   49 1    
    53   33   50 1    
    54   33   51 1    
    55   33   52 1    
@<TRIPOS>SUBSTRUCTURE
     1 UNK         1 GROUP             0       ****    0 ROOT    
