@<TRIPOS>MOLECULE
ZINC67317125_1463
42   44    1
SMALL
USER_CHARGES


@<TRIPOS>ATOM
      1 C1          6.3898   54.4157   28.3057 C.3       1 UNK         0.0000 
      2 C2          5.4381   53.4252   27.6163 C.3       1 UNK         0.0000 
      3 H3          5.9891   52.4981   27.4288 H         1 UNK         0.0000 
      4 C4          4.2997   53.1307   28.5911 C.ar      1 UNK         0.0000 
      5 N5          4.2293   52.0511   29.3355 N.2       1 UNK         0.0000 
      6 N6          3.1070   52.0952   30.1439 N.2       1 UNK         0.0000 
      7 C7          2.5221   53.2848   29.9067 C.ar      1 UNK         0.0000 
      8 N8          3.2676   53.9806   28.9364 N.pl3     1 UNK         0.0000 
      9 C9          2.9302   55.2446   28.5444 C.ar      1 UNK         0.0000 
     10 C10         1.8556   55.8867   29.1511 C.ar      1 UNK         0.0000 
     11 C11         1.1027   55.2145   30.1088 C.ar      1 UNK         0.0000 
     12 C12         1.3962   53.8998   30.4798 C.ar      1 UNK         0.0000 
     13 N13         4.9336   53.8903   26.3050 N.am      1 UNK         0.0000 
     14 C14         5.6438   54.4957   25.3277 C.2       1 UNK         0.0000 
     15 O15         6.5457   55.3057   25.5560 O.2       1 UNK         0.0000 
     16 N16         5.2568   54.0987   24.0920 N.am      1 UNK         0.0000 
     17 C17         5.7639   54.4955   22.8290 C.ar      1 UNK         0.0000 
     18 C18         6.9014   55.3010   22.6481 C.ar      1 UNK         0.0000 
     19 C19         7.3105   55.6919   21.3750 C.ar      1 UNK         0.0000 
     20 C20         6.6049   55.2640   20.2556 C.ar      1 UNK         0.0000 
     21 C21         5.4944   54.4316   20.4129 C.ar      1 UNK         0.0000 
     22 C22         5.0679   54.0592   21.6949 C.ar      1 UNK         0.0000 
     23 S23         4.6711   53.7968   18.9532 S.o2      1 UNK         0.0000 
     24 O24         5.7354   53.3417   18.0498 O.2       1 UNK         0.0000 
     25 O25         3.6279   52.8732   19.4145 O.2       1 UNK         0.0000 
     26 C26         3.8382   55.3138   18.1851 C.3       1 UNK         0.0000 
     27 F27         4.7672   56.2326   17.9250 F         1 UNK         0.0000 
     28 F28         3.2323   54.9365   17.0602 F         1 UNK         0.0000 
     29 H29         6.7040   54.0633   29.2817 H         1 UNK         0.0000 
     30 H30         7.3130   54.5679   27.7490 H         1 UNK         0.0000 
     31 H31         5.9101   55.3834   28.4468 H         1 UNK         0.0000 
     32 H32         3.5614   55.6912   27.7990 H         1 UNK         0.0000 
     33 H33         1.5985   56.9003   28.8815 H         1 UNK         0.0000 
     34 H34         0.2729   55.7224   30.5754 H         1 UNK         0.0000 
     35 H35         0.8105   53.3840   31.2279 H         1 UNK         0.0000 
     36 H36         4.0397   53.5009   26.0486 H         1 UNK         0.0000 
     37 H37         4.4853   53.4483   24.0491 H         1 UNK         0.0000 
     38 H38         7.5038   55.6464   23.4727 H         1 UNK         0.0000 
     39 H39         8.2025   56.2901   21.2601 H         1 UNK         0.0000 
     40 H40         6.9496   55.5427   19.2692 H         1 UNK         0.0000 
     41 H41         4.2026   53.4222   21.8047 H         1 UNK         0.0000 
     42 H42         3.1049   55.7123   18.8790 H         1 UNK         0.0000 
@<TRIPOS>BOND
     1    1    2 1    
     2    1   29 1    
     3    1   30 1    
     4    1   31 1    
     5    2    3 1    
     6    2    4 1    
     7    2   13 1    
     8    4    8 ar   
     9    4    5 ar   
    10    5    6 ar   
    11    6    7 ar   
    12    7   12 ar   
    13    7    8 ar   
    14    8    9 ar   
    15    9   10 ar   
    16    9   32 1    
    17   10   11 ar   
    18   10   33 1    
    19   11   12 ar   
    20   11   34 1    
    21   12   35 1    
    22   13   14 am   BACKBONE|DICT|INTERRES
    23   13   36 1    
    24   14   15 2    
    25   14   16 am   BACKBONE|DICT|INTERRES
    26   16   17 1    
    27   16   37 1    
    28   17   22 ar   
    29   17   18 ar   
    30   18   19 ar   
    31   18   38 1    
    32   19   20 ar   
    33   19   39 1    
    34   20   21 ar   
    35   20   40 1    
    36   21   22 ar   
    37   21   23 1    
    38   22   41 1    
    39   23   24 2    
    40   23   25 2    
    41   23   26 1    
    42   26   27 1    
    43   26   28 1    
    44   26   42 1    
@<TRIPOS>SUBSTRUCTURE
     1 UNK         1 GROUP             0       ****    0 ROOT    
