@<TRIPOS>MOLECULE
ZINC07127402_4677
33   36    1
SMALL
USER_CHARGES


@<TRIPOS>ATOM
      1 C1          5.5358   54.4967   27.3465 C.ar      1 UNK         0.0000 
      2 C2          5.1437   54.8073   26.0442 C.ar      1 UNK         0.0000 
      3 C3          3.9208   54.3826   25.5161 C.ar      1 UNK         0.0000 
      4 C4          3.1033   53.6102   26.3518 C.ar      1 UNK         0.0000 
      5 C5          3.4859   53.2969   27.6851 C.ar      1 UNK         0.0000 
      6 C6          4.7145   53.7475   28.1885 C.ar      1 UNK         0.0000 
      7 N7          2.5346   52.5476   28.3189 N.2       1 UNK         0.0000 
      8 C8          1.6052   52.3652   27.4171 C.ar      1 UNK         0.0000 
      9 N9          1.8744   52.9867   26.1986 N.pl3     1 UNK         0.0000 
     10 C10         0.9495   52.9424   25.0313 C.3       1 UNK         0.0000 
     11 H11         0.7043   53.9761   24.7860 H         1 UNK         0.0000 
     12 N12        -0.3147   52.3243   25.4929 N.pl3     1 UNK         0.0000 
     13 C13        -0.4517   51.6363   26.7353 C.2       1 UNK         0.0000 
     14 N14         0.4542   51.6643   27.6260 N.2       1 UNK         0.0000 
     15 N15        -1.6194   50.8967   26.9860 N.pl3     1 UNK         0.0000 
     16 C16         1.5362   52.3140   23.7610 C.ar      1 UNK         0.0000 
     17 C17         1.5792   50.9231   23.5627 C.ar      1 UNK         0.0000 
     18 C18         2.1336   50.3903   22.3986 C.ar      1 UNK         0.0000 
     19 C19         2.6364   51.2328   21.4096 C.ar      1 UNK         0.0000 
     20 C20         2.5743   52.6134   21.5848 C.ar      1 UNK         0.0000 
     21 C21         2.0236   53.1508   22.7475 C.ar      1 UNK         0.0000 
     22 F22         1.9577   54.4958   22.8817 F         1 UNK         0.0000 
     23 F23         1.0957   50.0689   24.4898 F         1 UNK         0.0000 
     24 H24         6.4884   54.8513   27.7155 H         1 UNK         0.0000 
     25 H25         5.8057   55.3955   25.4249 H         1 UNK         0.0000 
     26 H26         3.6438   54.6334   24.5057 H         1 UNK         0.0000 
     27 H27         5.0226   53.5137   29.1964 H         1 UNK         0.0000 
     28 H28        -1.0816   52.2814   24.8403 H         1 UNK         0.0000 
     29 H29        -1.5816   50.2884   27.7981 H         1 UNK         0.0000 
     30 H30        -1.9909   50.3625   26.2171 H         1 UNK         0.0000 
     31 H31         2.1748   49.3185   22.2697 H         1 UNK         0.0000 
     32 H32         3.0634   50.8185   20.5068 H         1 UNK         0.0000 
     33 H33         2.9430   53.2749   20.8140 H         1 UNK         0.0000 
@<TRIPOS>BOND
     1    1    6 ar   
     2    1    2 ar   
     3    1   24 1    
     4    2    3 ar   
     5    2   25 1    
     6    3    4 ar   
     7    3   26 1    
     8    4    9 ar   
     9    4    5 ar   
    10    5    6 ar   
    11    5    7 ar   
    12    6   27 1    
    13    7    8 ar   
    14    8   14 1    
    15    8    9 ar   
    16    9   10 1    
    17   10   11 1    
    18   10   12 1    
    19   10   16 1    
    20   12   13 1    
    21   12   28 1    
    22   13   14 2    
    23   13   15 1    
    24   15   29 1    
    25   15   30 1    
    26   16   21 ar   
    27   16   17 ar   
    28   17   18 ar   
    29   17   23 1    
    30   18   19 ar   
    31   18   31 1    
    32   19   20 ar   
    33   19   32 1    
    34   20   21 ar   
    35   20   33 1    
    36   21   22 1    
@<TRIPOS>SUBSTRUCTURE
     1 UNK         1 GROUP             0       ****    0 ROOT    
