ZINC02332062_4520
                    3D
 Schrodinger Suite 2024-2.
 47 50  0  0  1  0            999 V2000
    4.5831   53.9679   19.3548 C   0  0  0  0  0  0
    5.4871   54.9729   19.6881 C   0  0  0  0  0  0
    5.9354   55.0856   21.0007 C   0  0  0  0  0  0
    5.5054   54.1916   21.9770 C   0  0  0  0  0  0
    4.6119   53.1797   21.6396 C   0  0  0  0  0  0
    4.1322   53.0706   20.3273 C   0  0  0  0  0  0
    3.1084   52.0094   19.9025 C   0  0  0  0  0  0
    2.8583   50.9919   20.8790 O   0  0  0  0  0  0
    2.0541   51.2395   21.9753 C   0  0  0  0  0  0
    1.4525   52.4720   22.2640 C   0  0  0  0  0  0
    0.8017   52.6681   23.4799 C   0  0  0  0  0  0
    0.7450   51.6495   24.4360 C   0  0  0  0  0  0
    1.2203   50.3736   24.0802 C   0  0  0  0  0  0
    1.8872   50.1879   22.8723 C   0  0  0  0  0  0
    1.1034   49.2973   24.9213 O   0  0  0  0  0  0
    0.2266   51.9339   25.8028 C   0  0  0  0  0  0
    0.9490   52.6125   26.8237 C   0  0  0  0  0  0
    0.3100   52.6598   28.0730 C   0  0  0  0  0  0
   -0.8950   52.0947   28.3243 N   0  0  0  0  0  0
   -1.4999   51.4926   27.2786 C   0  0  0  0  0  0
   -1.0059   51.3982   26.0238 N   0  0  0  0  0  0
   -2.7283   50.8977   27.5212 N   0  0  0  0  0  0
    2.3235   53.2025   26.7015 C   0  0  0  0  0  0
    2.6957   54.0740   25.6671 C   0  0  0  0  0  0
    3.9925   54.5684   25.5798 C   0  0  0  0  0  0
    4.9285   54.2310   26.5513 C   0  0  0  0  0  0
    4.5731   53.4084   27.6148 C   0  0  0  0  0  0
    3.2778   52.8996   27.6839 C   0  0  0  0  0  0
    6.7040   54.8944   26.4172 Br  0  0  0  0  0  0
    6.7994   56.0724   21.3276 F   0  0  0  0  0  0
    4.2247   53.8914   18.3365 H   0  0  0  0  0  0
    5.8281   55.6717   18.9382 H   0  0  0  0  0  0
    5.8690   54.2829   22.9901 H   0  0  0  0  0  0
    4.2940   52.4973   22.4118 H   0  0  0  0  0  0
    2.1810   52.4841   19.5784 H   0  0  0  0  0  0
    3.5000   51.4991   19.0206 H   0  0  0  0  0  0
    1.5294   53.3019   21.5806 H   0  0  0  0  0  0
    0.3769   53.6367   23.6964 H   0  0  0  0  0  0
    2.3219   49.2271   22.6387 H   0  0  0  0  0  0
    1.6928   48.5695   24.6839 H   0  0  0  0  0  0
    0.7764   53.1432   28.9208 H   0  0  0  0  0  0
   -2.8542   50.6443   28.4911 H   0  0  0  0  0  0
   -2.9764   50.2106   26.8270 H   0  0  0  0  0  0
    1.9846   54.3895   24.9237 H   0  0  0  0  0  0
    4.2660   55.2198   24.7644 H   0  0  0  0  0  0
    5.3038   53.1481   28.3665 H   0  0  0  0  0  0
    3.0249   52.2346   28.4957 H   0  0  0  0  0  0
  1  6  2  0  0  0
  1  2  1  0  0  0
  1 31  1  0  0  0
  2  3  2  0  0  0
  2 32  1  0  0  0
  3  4  1  0  0  0
  3 30  1  0  0  0
  4  5  2  0  0  0
  4 33  1  0  0  0
  5  6  1  0  0  0
  5 34  1  0  0  0
  6  7  1  0  0  0
  7  8  1  0  0  0
  7 35  1  0  0  0
  7 36  1  0  0  0
  8  9  1  0  0  0
  9 14  2  0  0  0
  9 10  1  0  0  0
 10 11  2  0  0  0
 10 37  1  0  0  0
 11 12  1  0  0  0
 11 38  1  0  0  0
 12 13  2  0  0  0
 12 16  1  0  0  0
 13 14  1  0  0  0
 13 15  1  0  0  0
 14 39  1  0  0  0
 15 40  1  0  0  0
 16 21  2  0  0  0
 16 17  1  0  0  0
 17 18  2  0  0  0
 17 23  1  0  0  0
 18 19  1  0  0  0
 18 41  1  0  0  0
 19 20  2  0  0  0
 20 21  1  0  0  0
 20 22  1  0  0  0
 22 42  1  0  0  0
 22 43  1  0  0  0
 23 28  2  0  0  0
 23 24  1  0  0  0
 24 25  2  0  0  0
 24 44  1  0  0  0
 25 26  1  0  0  0
 25 45  1  0  0  0
 26 27  2  0  0  0
 26 29  1  0  0  0
 27 28  1  0  0  0
 27 46  1  0  0  0
 28 47  1  0  0  0
M  END
> <i_i_glide_confnum>
109

> <i_i_glide_lignum>
4521

> <i_i_glide_posenum>
136

> <i_i_glide_rotatable_bonds>
6

> <i_m_Source_File_Index>
868

> <b_m_subgroup_collapsed>
0

> <r_i_docking_score>
-6.28389

> <r_i_glide_ecoul>
-7.13192

> <r_i_glide_eff_state_penalty>
0

> <r_i_glide_einternal>
2.00028

> <r_i_glide_emodel>
-62.7509

> <r_i_glide_energy>
-46.3756

> <r_i_glide_erotb>
0.463895

> <r_i_glide_esite>
-0.168987

> <r_i_glide_evdw>
-39.2437

> <r_i_glide_gscore>
-6.28389

> <r_i_glide_hbond>
-0.32

> <r_i_glide_ligand_efficiency>
-0.209463

> <r_i_glide_ligand_efficiency_ln>
-1.42777

> <r_i_glide_ligand_efficiency_sa>
-0.650851

> <r_i_glide_lipo>
-2.73984

> <r_i_glide_metal>
0

> <r_i_glide_rewards>
-0.486988

> <s_i_glide_gridfile>
wee1_glide-grid

> <s_m_Source_File>
wee1_decoys_glide_SP.sdf

> <s_m_Source_Path>
/Users/zhangxujun/Desktop

> <s_m_entry_id>
1143

> <s_m_entry_name>
wee1_decoys_glide_SP.868

> <s_m_subgroup_title>
wee1_decoys_glide_SP

> <s_m_subgroupid>
wee1_decoys_glide_SP


$$$$
