ZINC34899896_940
                    3D
 Schrodinger Suite 2024-2.
 59 61  0  0  1  0            999 V2000
    3.2879   54.4971   28.9440 C   0  0  0  0  0  0
    4.6714   54.4964   29.0841 C   0  0  0  0  0  0
    5.4862   54.4966   27.9534 C   0  0  0  0  0  0
    4.9189   54.4972   26.6701 C   0  0  0  0  0  0
    3.5189   54.4946   26.5487 C   0  0  0  0  0  0
    2.7099   54.4965   27.6814 C   0  0  0  0  0  0
    5.8134   54.5395   25.4498 C   0  0  0  0  0  0
    6.9753   54.9447   25.5280 O   0  0  0  0  0  0
    5.2623   54.0970   24.3052 N   0  0  0  0  0  0
    5.9342   53.9705   23.0127 C   0  0  0  0  0  0
    5.0466   54.3782   21.8098 C   0  0  0  0  0  0
    3.9139   53.4951   21.5212 N   0  0  0  0  0  0
    4.0169   52.2347   21.0667 C   0  0  0  0  0  0
    5.1041   51.6967   20.8834 O   0  0  0  0  0  0
    2.7248   51.4190   20.8502 C   0  0  0  0  0  0
    2.2415   50.8428   22.2066 C   0  0  0  0  0  0
    0.8991   50.0918   22.0381 C   0  0  0  0  0  0
   -0.0607   51.0152   21.3932 N   0  0  0  0  0  0
    0.3180   51.4407   20.0326 C   0  0  0  0  0  0
    1.6089   52.2757   20.1920 C   0  0  0  0  0  0
   -1.2281   51.4364   21.9543 C   0  0  0  0  0  0
   -2.0728   52.0966   21.3442 O   0  0  0  0  0  0
   -1.4840   51.1115   23.4016 C   0  0  0  0  0  0
   -2.5794   50.3242   23.7693 C   0  0  0  0  0  0
   -2.8078   50.0037   25.1137 C   0  0  0  0  0  0
   -1.9344   50.4960   26.0925 C   0  0  0  0  0  0
   -0.8526   51.3123   25.7432 C   0  0  0  0  0  0
   -0.6399   51.6182   24.3951 C   0  0  0  0  0  0
    0.0890   51.8485   26.8193 C   0  0  0  0  0  0
    1.2186   52.3103   26.2836 F   0  0  0  0  0  0
   -0.4996   52.8458   27.4785 F   0  0  0  0  0  0
    0.4112   50.8968   27.6902 F   0  0  0  0  0  0
   -3.9946   49.1228   25.5049 C   0  0  0  0  0  0
   -5.0215   49.3062   24.6721 F   0  0  0  0  0  0
   -3.6266   47.8431   25.4432 F   0  0  0  0  0  0
   -4.4181   49.3872   26.7421 F   0  0  0  0  0  0
    2.6531   54.5089   29.8169 H   0  0  0  0  0  0
    5.1044   54.5200   30.0712 H   0  0  0  0  0  0
    6.5596   54.5119   28.0856 H   0  0  0  0  0  0
    3.0371   54.5063   25.5817 H   0  0  0  0  0  0
    1.6347   54.5075   27.5816 H   0  0  0  0  0  0
    4.3535   53.6653   24.3690 H   0  0  0  0  0  0
    6.9331   54.4080   22.9472 H   0  0  0  0  0  0
    6.1183   52.8972   22.9466 H   0  0  0  0  0  0
    4.5320   55.2963   22.0815 H   0  0  0  0  0  0
    5.6343   54.6567   20.9334 H   0  0  0  0  0  0
    2.9912   53.9008   21.5834 H   0  0  0  0  0  0
    2.9977   50.6360   20.1385 H   0  0  0  0  0  0
    2.9498   50.1086   22.5950 H   0  0  0  0  0  0
    2.0645   51.6298   22.9411 H   0  0  0  0  0  0
    1.0403   49.2556   21.3515 H   0  0  0  0  0  0
    0.5337   49.6387   22.9605 H   0  0  0  0  0  0
    0.5153   50.5459   19.4402 H   0  0  0  0  0  0
   -0.4737   51.9742   19.5035 H   0  0  0  0  0  0
    1.3235   53.1235   20.8171 H   0  0  0  0  0  0
    1.8986   52.6027   19.1921 H   0  0  0  0  0  0
   -3.2467   49.9427   23.0075 H   0  0  0  0  0  0
   -2.0922   50.2336   27.1319 H   0  0  0  0  0  0
    0.1879   52.2542   24.1150 H   0  0  0  0  0  0
  1  6  2  0  0  0
  1  2  1  0  0  0
  1 37  1  0  0  0
  2  3  2  0  0  0
  2 38  1  0  0  0
  3  4  1  0  0  0
  3 39  1  0  0  0
  4  5  2  0  0  0
  4  7  1  0  0  0
  5  6  1  0  0  0
  5 40  1  0  0  0
  6 41  1  0  0  0
  7  8  2  0  0  0
  7  9  1  0  0  0
  9 10  1  0  0  0
  9 42  1  0  0  0
 10 11  1  0  0  0
 10 43  1  0  0  0
 10 44  1  0  0  0
 11 12  1  0  0  0
 11 45  1  0  0  0
 11 46  1  0  0  0
 12 13  1  0  0  0
 12 47  1  0  0  0
 13 14  2  0  0  0
 13 15  1  0  0  0
 15 20  1  0  0  0
 15 16  1  0  0  0
 15 48  1  0  0  0
 16 17  1  0  0  0
 16 49  1  0  0  0
 16 50  1  0  0  0
 17 18  1  0  0  0
 17 51  1  0  0  0
 17 52  1  0  0  0
 18 19  1  0  0  0
 18 21  1  0  0  0
 19 20  1  0  0  0
 19 53  1  0  0  0
 19 54  1  0  0  0
 20 55  1  0  0  0
 20 56  1  0  0  0
 21 22  2  0  0  0
 21 23  1  0  0  0
 23 28  2  0  0  0
 23 24  1  0  0  0
 24 25  2  0  0  0
 24 57  1  0  0  0
 25 26  1  0  0  0
 25 33  1  0  0  0
 26 27  2  0  0  0
 26 58  1  0  0  0
 27 28  1  0  0  0
 27 29  1  0  0  0
 28 59  1  0  0  0
 29 30  1  0  0  0
 29 31  1  0  0  0
 29 32  1  0  0  0
 33 34  1  0  0  0
 33 35  1  0  0  0
 33 36  1  0  0  0
M  END
> <i_i_glide_confnum>
86

> <i_i_glide_lignum>
941

> <i_i_glide_posenum>
150

> <i_i_glide_rotatable_bonds>
11

> <i_m_Source_File_Index>
1213

> <b_m_subgroup_collapsed>
0

> <r_i_docking_score>
-6.15233

> <r_i_glide_ecoul>
-8.30102

> <r_i_glide_eff_state_penalty>
0

> <r_i_glide_einternal>
5.88752

> <r_i_glide_emodel>
-65.282

> <r_i_glide_energy>
-49.4248

> <r_i_glide_erotb>
0.617845

> <r_i_glide_esite>
-0.151884

> <r_i_glide_evdw>
-41.1238

> <r_i_glide_gscore>
-6.15233

> <r_i_glide_hbond>
-0.411693

> <r_i_glide_ligand_efficiency>
-0.170898

> <r_i_glide_ligand_efficiency_ln>
-1.34227

> <r_i_glide_ligand_efficiency_sa>
-0.564293

> <r_i_glide_lipo>
-2.21556

> <r_i_glide_metal>
0

> <r_i_glide_rewards>
-0.689688

> <s_i_glide_gridfile>
wee1_glide-grid

> <s_m_Source_File>
wee1_decoys_glide_SP.sdf

> <s_m_Source_Path>
/Users/zhangxujun/Desktop

> <s_m_entry_id>
1488

> <s_m_entry_name>
wee1_decoys_glide_SP.1213

> <s_m_subgroup_title>
wee1_decoys_glide_SP

> <s_m_subgroupid>
wee1_decoys_glide_SP


$$$$
