@<TRIPOS>MOLECULE
ZINC13250948_5789
55   56    1
SMALL
USER_CHARGES


@<TRIPOS>ATOM
      1 C1          1.6813   47.6306   19.2605 C.3       1 UNK         0.0000 
      2 C2          1.0112   48.8828   19.8461 C.3       1 UNK         0.0000 
      3 C3          1.9177   49.6777   20.8128 C.3       1 UNK         0.0000 
      4 H4          2.8404   49.8802   20.2636 H         1 UNK         0.0000 
      5 C5          2.3096   48.9125   22.0846 C.3       1 UNK         0.0000 
      6 N6          1.3120   50.9966   21.1623 N.pl3     1 UNK         0.0000 
      7 C7          1.9014   52.2131   20.5775 C.3       1 UNK         0.0000 
      8 C8          3.3616   52.5080   20.9986 C.2       1 UNK         0.0000 
      9 O9          4.0132   51.7170   21.6815 O.2       1 UNK         0.0000 
     10 N10         3.8442   53.6976   20.5868 N.am      1 UNK         0.0000 
     11 C11         5.0620   54.3049   20.9451 C.ar      1 UNK         0.0000 
     12 C12         5.5281   54.2443   22.2684 C.ar      1 UNK         0.0000 
     13 C13         6.7044   54.8966   22.6331 C.ar      1 UNK         0.0000 
     14 C14         7.4242   55.6127   21.6817 C.ar      1 UNK         0.0000 
     15 C15         6.9658   55.6898   20.3687 C.ar      1 UNK         0.0000 
     16 C16         5.7815   55.0439   19.9814 C.ar      1 UNK         0.0000 
     17 C17         5.3046   55.1435   18.5249 C.3       1 UNK         0.0000 
     18 F18         4.0898   55.6940   18.4812 F         1 UNK         0.0000 
     19 F19         6.1172   55.8866   17.7694 F         1 UNK         0.0000 
     20 F20         5.2419   53.9267   17.9849 F         1 UNK         0.0000 
     21 S21        -0.1375   51.1037   22.2039 S.o2      1 UNK         0.0000 
     22 O22        -0.6961   49.7612   22.3977 O.2       1 UNK         0.0000 
     23 O23        -0.9915   52.1694   21.6701 O.2       1 UNK         0.0000 
     24 C24         0.4488   51.6733   23.8086 C.ar      1 UNK         0.0000 
     25 C25         0.2258   50.9003   24.9524 C.ar      1 UNK         0.0000 
     26 C26         0.7030   51.3293   26.1896 C.ar      1 UNK         0.0000 
     27 C27         1.4312   52.5218   26.2922 C.ar      1 UNK         0.0000 
     28 C28         1.6331   53.2967   25.1468 C.ar      1 UNK         0.0000 
     29 C29         1.1325   52.8864   23.9138 C.ar      1 UNK         0.0000 
     30 C30         2.0505   52.9582   27.5620 C.2       1 UNK         0.0000 
     31 C31         2.4262   52.1485   28.5775 C.2       1 UNK         0.0000 
     32 C32         3.0799   52.6307   29.8866 C.2       1 UNK         0.0000 
     33 O33         3.1035   53.8695   30.0816 O.co2     1 UNK         0.0000 
     34 H34         1.0322   47.1478   18.5309 H         1 UNK         0.0000 
     35 H35         2.6147   47.8801   18.7527 H         1 UNK         0.0000 
     36 H36         1.9037   46.8976   20.0340 H         1 UNK         0.0000 
     37 H37         0.0805   48.5930   20.3328 H         1 UNK         0.0000 
     38 H38         0.7295   49.5292   19.0132 H         1 UNK         0.0000 
     39 H39         2.9862   48.0968   21.8472 H         1 UNK         0.0000 
     40 H40         2.8367   49.5563   22.7894 H         1 UNK         0.0000 
     41 H41         1.4516   48.4970   22.6080 H         1 UNK         0.0000 
     42 H42         1.8368   52.1746   19.4894 H         1 UNK         0.0000 
     43 H43         1.3033   53.0788   20.8521 H         1 UNK         0.0000 
     44 H44         3.2436   54.2511   19.9890 H         1 UNK         0.0000 
     45 H45         4.9772   53.7023   23.0239 H         1 UNK         0.0000 
     46 H46         7.0641   54.8400   23.6500 H         1 UNK         0.0000 
     47 H47         8.3458   56.0973   21.9663 H         1 UNK         0.0000 
     48 H48         7.5501   56.2469   19.6503 H         1 UNK         0.0000 
     49 H49        -0.3094   49.9630   24.8929 H         1 UNK         0.0000 
     50 H50         0.5224   50.7132   27.0605 H         1 UNK         0.0000 
     51 H51         2.1974   54.2163   25.2043 H         1 UNK         0.0000 
     52 H52         1.3004   53.5041   23.0452 H         1 UNK         0.0000 
     53 H53         2.2006   54.0237   27.6719 H         1 UNK         0.0000 
     54 H54         2.2762   51.0848   28.4782 H         1 UNK         0.0000 
     55 O55         3.5044   51.6985   30.6057 O.co2     1 UNK         0.0000 
@<TRIPOS>BOND
     1    1    2 1    
     2    1   34 1    
     3    1   35 1    
     4    1   36 1    
     5    2    3 1    
     6    2   37 1    
     7    2   38 1    
     8    3    4 1    
     9    3    5 1    
    10    3    6 1    
    11    5   39 1    
    12    5   40 1    
    13    5   41 1    
    14    6    7 1    
    15    6   21 1    
    16    7    8 1    
    17    7   42 1    
    18    7   43 1    
    19    8    9 2    
    20    8   10 am   BACKBONE|DICT|INTERRES
    21   10   11 1    
    22   10   44 1    
    23   11   16 ar   
    24   11   12 ar   
    25   12   13 ar   
    26   12   45 1    
    27   13   14 ar   
    28   13   46 1    
    29   14   15 ar   
    30   14   47 1    
    31   15   16 ar   
    32   15   48 1    
    33   16   17 1    
    34   17   18 1    
    35   17   19 1    
    36   17   20 1    
    37   21   22 2    
    38   21   23 2    
    39   21   24 1    
    40   24   29 ar   
    41   24   25 ar   
    42   25   26 ar   
    43   25   49 1    
    44   26   27 ar   
    45   26   50 1    
    46   27   28 ar   
    47   27   30 1    
    48   28   29 ar   
    49   28   51 1    
    50   29   52 1    
    51   30   31 2    
    52   30   53 1    
    53   31   32 1    
    54   31   54 1    
    55   32   33 2    
    56   32   55 1    
@<TRIPOS>SUBSTRUCTURE
     1 UNK         1 GROUP             0       ****    0 ROOT    
