@<TRIPOS>MOLECULE
ZINC39678322_344
80   84    1
SMALL
USER_CHARGES


@<TRIPOS>ATOM
      1 C1         -3.2487   53.0476   25.2104 C.3       1 UNK         0.0000 
      2 C2         -2.9743   52.4087   23.8390 C.3       1 UNK         0.0000 
      3 C3         -2.3824   50.9748   23.9204 C.3       1 UNK         0.0000 
      4 H4         -1.5507   51.0287   24.6181 H         1 UNK         0.0000 
      5 C5         -3.3487   49.9496   24.5416 C.ar      1 UNK         0.0000 
      6 C6         -4.6495   49.7933   24.0460 C.ar      1 UNK         0.0000 
      7 C7         -5.5089   48.8540   24.6125 C.ar      1 UNK         0.0000 
      8 C8         -5.0679   48.0708   25.6770 C.ar      1 UNK         0.0000 
      9 C9         -3.7744   48.2123   26.1732 C.ar      1 UNK         0.0000 
     10 C10        -2.9162   49.1481   25.6052 C.ar      1 UNK         0.0000 
     11 C11        -1.7913   50.4894   22.5629 C.2       1 UNK         0.0000 
     12 O12        -2.4614   49.7413   21.8452 O.2       1 UNK         0.0000 
     13 N13        -0.5531   50.8969   22.1771 N.am      1 UNK         0.0000 
     14 C14         0.3185   51.7890   22.9329 C.3       1 UNK         0.0000 
     15 C15         1.7327   51.4313   22.4221 C.3       1 UNK         0.0000 
     16 H16         2.1025   50.6058   23.0327 H         1 UNK         0.0000 
     17 C17         1.5297   50.9775   20.9451 C.3       1 UNK         0.0000 
     18 C18         0.1225   50.3247   21.0079 C.3       1 UNK         0.0000 
     19 C19         2.6427   50.0043   20.4869 C.3       1 UNK         0.0000 
     20 C20         2.3297   49.4064   19.1035 C.3       1 UNK         0.0000 
     21 N21         2.3043   50.5721   18.0970 N.4       1 UNK         0.0000 
     22 C22         1.2902   51.6843   18.4575 C.3       1 UNK         0.0000 
     23 C23         1.5482   52.1511   19.9101 C.3       1 UNK         0.0000 
     24 C24         2.7044   52.6197   22.6792 C.2       1 UNK         0.0000 
     25 O25         3.7754   52.6825   22.0786 O.2       1 UNK         0.0000 
     26 N26         2.3658   53.5135   23.6208 N.am      1 UNK         0.0000 
     27 C27         3.1435   54.6705   24.0262 C.3       1 UNK         0.0000 
     28 C28         4.2928   54.4138   25.0086 C.ar      1 UNK         0.0000 
     29 C29         5.5958   54.4967   24.4967 C.ar      1 UNK         0.0000 
     30 C30         6.7030   54.4161   25.3342 C.ar      1 UNK         0.0000 
     31 C31         6.5192   54.2360   26.7029 C.ar      1 UNK         0.0000 
     32 C32         5.2289   54.1429   27.2267 C.ar      1 UNK         0.0000 
     33 C33         4.0976   54.2436   26.4034 C.ar      1 UNK         0.0000 
     34 N34         2.8285   54.1581   26.9754 N.pl3     1 UNK         0.0000 
     35 C35         2.4562   54.8730   28.2104 C.3       1 UNK         0.0000 
     36 C36         2.3823   53.9678   29.4580 C.3       1 UNK         0.0000 
     37 C37         1.4172   52.7959   29.2378 C.3       1 UNK         0.0000 
     38 C38         1.7962   52.0611   27.9470 C.3       1 UNK         0.0000 
     39 C39         1.9262   53.0173   26.7390 C.3       1 UNK         0.0000 
     40 H40        -3.6993   54.0337   25.0951 H         1 UNK         0.0000 
     41 H41        -3.9352   52.4413   25.8022 H         1 UNK         0.0000 
     42 H42        -2.3309   53.1734   25.7852 H         1 UNK         0.0000 
     43 H43        -2.3088   53.0669   23.2800 H         1 UNK         0.0000 
     44 H44        -3.9078   52.3956   23.2806 H         1 UNK         0.0000 
     45 H45        -4.9966   50.3877   23.2147 H         1 UNK         0.0000 
     46 H46        -6.5127   48.7366   24.2310 H         1 UNK         0.0000 
     47 H47        -5.7342   47.3464   26.1226 H         1 UNK         0.0000 
     48 H48        -3.4314   47.6078   27.0002 H         1 UNK         0.0000 
     49 H49        -1.9191   49.2459   26.0117 H         1 UNK         0.0000 
     50 H50         0.0587   52.8012   22.6152 H         1 UNK         0.0000 
     51 H51         0.2894   51.6658   24.0144 H         1 UNK         0.0000 
     52 H52         0.2703   49.2724   21.2581 H         1 UNK         0.0000 
     53 H53        -0.4428   50.3402   20.0765 H         1 UNK         0.0000 
     54 H54         3.6247   50.4838   20.5081 H         1 UNK         0.0000 
     55 H55         2.7064   49.1692   21.1874 H         1 UNK         0.0000 
     56 H56         3.1122   48.7294   18.7578 H         1 UNK         0.0000 
     57 H57         1.3655   48.8996   19.0386 H         1 UNK         0.0000 
     58 H58         3.2504   50.9434   18.0658 H         1 UNK         0.0000 
     59 H59         1.4485   52.4877   17.7364 H         1 UNK         0.0000 
     60 H60         0.2970   51.2641   18.2956 H         1 UNK         0.0000 
     61 H61         0.7879   52.8877   20.1759 H         1 UNK         0.0000 
     62 H62         2.4878   52.7009   19.9319 H         1 UNK         0.0000 
     63 H63         1.5369   53.3377   24.1693 H         1 UNK         0.0000 
     64 H64         3.5051   55.1874   23.1344 H         1 UNK         0.0000 
     65 H65         2.4424   55.3624   24.4812 H         1 UNK         0.0000 
     66 H66         5.7559   54.6444   23.4375 H         1 UNK         0.0000 
     67 H67         7.6927   54.4970   24.9098 H         1 UNK         0.0000 
     68 H68         7.3713   54.1617   27.3634 H         1 UNK         0.0000 
     69 H69         5.1141   54.0013   28.2900 H         1 UNK         0.0000 
     70 H70         3.1460   55.6966   28.3877 H         1 UNK         0.0000 
     71 H71         1.4797   55.3335   28.0505 H         1 UNK         0.0000 
     72 H72         3.3761   53.6115   29.7291 H         1 UNK         0.0000 
     73 H73         2.0395   54.5617   30.3060 H         1 UNK         0.0000 
     74 H74         0.3935   53.1703   29.1609 H         1 UNK         0.0000 
     75 H75         1.4362   52.1143   30.0896 H         1 UNK         0.0000 
     76 H76         1.0378   51.3078   27.7273 H         1 UNK         0.0000 
     77 H77         2.7150   51.4958   28.0834 H         1 UNK         0.0000 
     78 H78         0.9459   53.4060   26.4734 H         1 UNK         0.0000 
     79 H79         2.2770   52.4535   25.8802 H         1 UNK         0.0000 
     80 H80         2.1503   50.2072   17.1655 H         1 UNK         0.0000 
@<TRIPOS>BOND
     1    1    2 1    
     2    1   40 1    
     3    1   41 1    
     4    1   42 1    
     5    2    3 1    
     6    2   43 1    
     7    2   44 1    
     8    3    4 1    
     9    3    5 1    
    10    3   11 1    
    11    5   10 ar   
    12    5    6 ar   
    13    6    7 ar   
    14    6   45 1    
    15    7    8 ar   
    16    7   46 1    
    17    8    9 ar   
    18    8   47 1    
    19    9   10 ar   
    20    9   48 1    
    21   10   49 1    
    22   11   12 2    
    23   11   13 am   BACKBONE|DICT|INTERRES
    24   13   18 1    
    25   13   14 1    
    26   14   15 1    
    27   14   50 1    
    28   14   51 1    
    29   15   16 1    
    30   15   17 1    
    31   15   24 1    
    32   17   23 1    
    33   17   18 1    
    34   17   19 1    
    35   18   52 1    
    36   18   53 1    
    37   19   20 1    
    38   19   54 1    
    39   19   55 1    
    40   20   21 1    
    41   20   56 1    
    42   20   57 1    
    43   21   22 1    
    44   21   58 1    
    45   21   80 1    
    46   22   23 1    
    47   22   59 1    
    48   22   60 1    
    49   23   61 1    
    50   23   62 1    
    51   24   25 2    
    52   24   26 am   BACKBONE|DICT|INTERRES
    53   26   27 1    
    54   26   63 1    
    55   27   28 1    
    56   27   64 1    
    57   27   65 1    
    58   28   33 ar   
    59   28   29 ar   
    60   29   30 ar   
    61   29   66 1    
    62   30   31 ar   
    63   30   67 1    
    64   31   32 ar   
    65   31   68 1    
    66   32   33 ar   
    67   32   69 1    
    68   33   34 1    
    69   34   39 1    
    70   34   35 1    
    71   35   36 1    
    72   35   70 1    
    73   35   71 1    
    74   36   37 1    
    75   36   72 1    
    76   36   73 1    
    77   37   38 1    
    78   37   74 1    
    79   37   75 1    
    80   38   39 1    
    81   38   76 1    
    82   38   77 1    
    83   39   78 1    
    84   39   79 1    
@<TRIPOS>SUBSTRUCTURE
     1 UNK         1 GROUP             0       ****    0 ROOT    
