@<TRIPOS>MOLECULE
ZINC03007126_1065
67   69    1
SMALL
USER_CHARGES


@<TRIPOS>ATOM
      1 C1         10.2834   52.4177   16.3970 C.3       1 UNK         0.0000 
      2 C2         10.1041   53.8953   16.7849 C.3       1 UNK         0.0000 
      3 C3         10.1261   54.8563   15.5762 C.3       1 UNK         0.0000 
      4 C4          7.4998   53.9667   16.8322 C.3       1 UNK         0.0000 
      5 C5          6.2627   53.8618   17.7682 C.3       1 UNK         0.0000 
      6 C6          6.4806   54.4997   19.1491 C.2       1 UNK         0.0000 
      7 C7          7.6827   55.1614   19.4427 C.2       1 UNK         0.0000 
      8 S8          7.7707   55.6968   21.0740 S.3       1 UNK         0.0000 
      9 C9          6.2737   54.8970   21.4171 C.2       1 UNK         0.0000 
     10 C10         5.6178   54.3676   20.2796 C.2       1 UNK         0.0000 
     11 C11         4.3054   53.6838   20.2499 C.2       1 UNK         0.0000 
     12 O12         3.7596   53.3002   19.2139 O.2       1 UNK         0.0000 
     13 O13         3.7818   53.5125   21.4900 O.3       1 UNK         0.0000 
     14 C14         2.5598   52.8084   21.6678 C.3       1 UNK         0.0000 
     15 N15         5.8191   54.8913   22.7186 N.am      1 UNK         0.0000 
     16 C16         6.4267   54.2828   23.7604 C.2       1 UNK         0.0000 
     17 O17         7.5035   53.6962   23.6791 O.2       1 UNK         0.0000 
     18 C18         5.6570   54.3161   25.0669 C.ar      1 UNK         0.0000 
     19 C19         6.2985   54.0856   26.2968 C.ar      1 UNK         0.0000 
     20 C20         5.5718   54.0806   27.4926 C.ar      1 UNK         0.0000 
     21 C21         4.1971   54.3377   27.4715 C.ar      1 UNK         0.0000 
     22 C22         3.5738   54.5954   26.2619 C.ar      1 UNK         0.0000 
     23 C23         4.2754   54.5493   25.0716 C.ar      1 UNK         0.0000 
     24 S24         3.2031   54.4182   28.9694 S.o2      1 UNK         0.0000 
     25 O25         2.4859   55.6985   28.9373 O.2       1 UNK         0.0000 
     26 O26         4.0999   54.0960   30.0818 O.2       1 UNK         0.0000 
     27 N27         1.9865   53.1203   28.8651 N.pl3     1 UNK         0.0000 
     28 C28         0.8164   53.2782   27.9645 C.3       1 UNK         0.0000 
     29 C29         0.6818   52.0791   27.0522 C.2       1 UNK         0.0000 
     30 C30        -0.4057   51.2953   26.9908 C.2       1 UNK         0.0000 
     31 C31         1.7980   52.2254   30.0372 C.3       1 UNK         0.0000 
     32 C32         0.8977   52.7726   31.1437 C.2       1 UNK         0.0000 
     33 C33         0.3052   53.9782   31.2122 C.2       1 UNK         0.0000 
     34 C34         8.8270   55.3462   18.4696 C.3       1 UNK         0.0000 
     35 H35        11.2510   52.2562   15.9219 H         1 UNK         0.0000 
     36 H36        10.2491   51.7698   17.2746 H         1 UNK         0.0000 
     37 H37         9.5236   52.0735   15.6966 H         1 UNK         0.0000 
     38 H38        10.9128   54.1534   17.4754 H         1 UNK         0.0000 
     39 H39        11.0936   54.8078   15.0719 H         1 UNK         0.0000 
     40 H40         9.3701   54.6019   14.8330 H         1 UNK         0.0000 
     41 H41         9.9767   55.8934   15.8734 H         1 UNK         0.0000 
     42 H42         7.4593   54.8577   16.2059 H         1 UNK         0.0000 
     43 H43         7.5486   53.0877   16.1911 H         1 UNK         0.0000 
     44 H44         6.0124   52.8063   17.9037 H         1 UNK         0.0000 
     45 H45         5.3951   54.2955   17.2694 H         1 UNK         0.0000 
     46 H46         2.3021   52.7696   22.7253 H         1 UNK         0.0000 
     47 H47         1.7400   53.2933   21.1390 H         1 UNK         0.0000 
     48 H48         2.6429   51.7853   21.3004 H         1 UNK         0.0000 
     49 H49         4.8145   54.8813   22.7935 H         1 UNK         0.0000 
     50 H50         7.3611   53.8935   26.3363 H         1 UNK         0.0000 
     51 H51         6.0805   53.9004   28.4295 H         1 UNK         0.0000 
     52 H52         2.5470   54.8858   26.2454 H         1 UNK         0.0000 
     53 H53         3.7203   54.7404   24.1650 H         1 UNK         0.0000 
     54 H54         0.9989   54.1305   27.3202 H         1 UNK         0.0000 
     55 H55        -0.0874   53.5021   28.5329 H         1 UNK         0.0000 
     56 H56         1.5280   51.8579   26.4203 H         1 UNK         0.0000 
     57 H57        -1.2726   51.4788   27.6102 H         1 UNK         0.0000 
     58 H58        -0.4455   50.4455   26.3227 H         1 UNK         0.0000 
     59 H59         1.3797   51.2841   29.6859 H         1 UNK         0.0000 
     60 H60         2.7685   51.9825   30.4688 H         1 UNK         0.0000 
     61 H61         0.7226   52.0921   31.9662 H         1 UNK         0.0000 
     62 H62        -0.3136   54.2298   32.0612 H         1 UNK         0.0000 
     63 H63         0.4249   54.7275   30.4441 H         1 UNK         0.0000 
     64 H64         8.7280   56.2121   17.8128 H         1 UNK         0.0000 
     65 H65         9.7956   55.3946   18.9730 H         1 UNK         0.0000 
     66 N66         8.8177   54.0386   17.6468 N.4       1 UNK         0.0000 
     67 H67         8.8407   53.2587   18.2892 H         1 UNK         0.0000 
@<TRIPOS>BOND
     1    1    2 1    
     2    1   35 1    
     3    1   36 1    
     4    1   37 1    
     5    2    3 1    
     6    2   38 1    
     7    2   66 1    
     8    3   39 1    
     9    3   40 1    
    10    3   41 1    
    11    4    5 1    
    12    4   42 1    
    13    4   43 1    
    14    4   66 1    
    15    5    6 1    
    16    5   44 1    
    17    5   45 1    
    18    6   10 1    
    19    6    7 2    
    20    7    8 1    
    21    7   34 1    
    22    8    9 1    
    23    9   10 2    
    24    9   15 am   BACKBONE|DICT|INTERRES
    25   10   11 1    
    26   11   12 2    
    27   11   13 1    
    28   13   14 1    
    29   14   46 1    
    30   14   47 1    
    31   14   48 1    
    32   15   16 am   BACKBONE|DICT|INTERRES
    33   15   49 1    
    34   16   17 2    
    35   16   18 1    
    36   18   23 ar   
    37   18   19 ar   
    38   19   20 ar   
    39   19   50 1    
    40   20   21 ar   
    41   20   51 1    
    42   21   22 ar   
    43   21   24 1    
    44   22   23 ar   
    45   22   52 1    
    46   23   53 1    
    47   24   25 2    
    48   24   26 2    
    49   24   27 1    
    50   27   28 1    
    51   27   31 1    
    52   28   29 1    
    53   28   54 1    
    54   28   55 1    
    55   29   30 2    
    56   29   56 1    
    57   30   57 1    
    58   30   58 1    
    59   31   32 1    
    60   31   59 1    
    61   31   60 1    
    62   32   33 2    
    63   32   61 1    
    64   33   62 1    
    65   33   63 1    
    66   34   64 1    
    67   34   65 1    
    68   34   66 1    
    69   66   67 1    
@<TRIPOS>SUBSTRUCTURE
     1 UNK         1 GROUP             0       ****    0 ROOT    
