ZINC36637435_1087
                    3D
 Schrodinger Suite 2024-2.
 68 71  0  0  1  0            999 V2000
   -3.3493   48.5348   17.8197 C   0  0  0  0  0  0
   -2.9530   47.7505   19.0808 C   0  0  1  0  0  0
   -3.7576   47.0308   19.2504 H   0  0  0  0  0  0
   -1.6200   46.9861   18.9060 C   0  0  0  0  0  0
   -1.2787   46.1699   20.1725 C   0  0  0  0  0  0
   -1.3667   47.0069   21.4719 C   0  0  0  0  0  0
   -2.6787   47.8140   21.5545 C   0  0  0  0  0  0
   -2.8651   48.6026   20.3158 N   0  0  0  0  0  0
   -3.5951   50.2196   20.5123 S   0  0  0  0  0  0
   -4.8325   50.0652   21.2820 O   0  0  0  0  0  0
   -3.5986   50.9536   19.2448 O   0  0  0  0  0  0
   -2.4274   51.0979   21.5405 C   0  0  0  0  0  0
   -2.8506   51.7554   22.6947 C   0  0  0  0  0  0
   -1.9420   52.4986   23.4409 C   0  0  0  0  0  0
   -0.5825   52.4967   23.0966 C   0  0  0  0  0  0
   -0.1768   51.8454   21.9233 C   0  0  0  0  0  0
   -1.0940   51.1529   21.1439 C   0  0  0  0  0  0
    0.4698   53.2352   23.8938 C   0  0  0  0  0  0
    1.1050   54.0953   23.2821 O   0  0  0  0  0  0
    0.7217   52.8956   25.2010 N   0  0  0  0  0  0
   -0.2575   52.1784   26.0547 C   0  0  0  0  0  0
    0.0801   50.7016   26.3042 C   0  0  0  0  0  0
   -0.1643   49.8648   25.0237 N   0  3  0  0  0  0
    1.1065   49.7011   24.1550 C   0  0  0  0  0  0
   -0.7655   48.4987   25.3908 C   0  0  0  0  0  0
    1.8654   53.3896   25.8681 C   0  0  0  0  0  0
    1.9041   53.5782   27.1616 N   0  0  0  0  0  0
    3.1313   53.9580   27.5975 C   0  0  0  0  0  0
    3.4812   54.2494   28.9333 C   0  0  0  0  0  0
    4.8206   54.4919   29.2138 C   0  0  0  0  0  0
    5.7935   54.4872   28.2161 C   0  0  0  0  0  0
    5.4644   54.2788   26.8815 C   0  0  0  0  0  0
    4.1244   54.0163   26.5829 C   0  0  0  0  0  0
    3.3892   53.7005   25.0310 S   0  0  0  0  0  0
    2.5576   54.2344   29.9548 O   0  0  0  0  0  0
    1.5026   55.1901   29.8565 C   0  0  0  0  0  0
   -3.3701   47.8781   16.9508 H   0  0  0  0  0  0
   -4.3491   48.9641   17.8975 H   0  0  0  0  0  0
   -2.6350   49.3283   17.6012 H   0  0  0  0  0  0
   -0.8080   47.6935   18.7279 H   0  0  0  0  0  0
   -1.6771   46.3088   18.0526 H   0  0  0  0  0  0
   -0.2813   45.7346   20.0696 H   0  0  0  0  0  0
   -1.9707   45.3277   20.2462 H   0  0  0  0  0  0
   -0.5166   47.6889   21.5313 H   0  0  0  0  0  0
   -1.2943   46.3560   22.3428 H   0  0  0  0  0  0
   -2.6952   48.4724   22.4215 H   0  0  0  0  0  0
   -3.5154   47.1205   21.6429 H   0  0  0  0  0  0
   -3.8912   51.7287   22.9833 H   0  0  0  0  0  0
   -2.3204   53.0768   24.2718 H   0  0  0  0  0  0
    0.8566   51.8777   21.6027 H   0  0  0  0  0  0
   -0.7727   50.6678   20.2319 H   0  0  0  0  0  0
   -0.3090   52.6674   27.0281 H   0  0  0  0  0  0
   -1.2825   52.2525   25.7226 H   0  0  0  0  0  0
    1.1034   50.5246   26.6390 H   0  0  0  0  0  0
   -0.5862   50.3112   27.0781 H   0  0  0  0  0  0
    1.9028   49.2963   24.7711 H   0  0  0  0  0  0
    0.8708   49.0399   23.3202 H   0  0  0  0  0  0
    1.4231   50.6743   23.7896 H   0  0  0  0  0  0
   -0.0945   48.0967   26.1426 H   0  0  0  0  0  0
   -1.7568   48.6745   25.8132 H   0  0  0  0  0  0
   -0.8189   47.8745   24.4974 H   0  0  0  0  0  0
    5.1074   54.7101   30.2271 H   0  0  0  0  0  0
    6.8231   54.6584   28.4829 H   0  0  0  0  0  0
    6.2197   54.2924   26.1078 H   0  0  0  0  0  0
    1.0032   55.2742   30.8223 H   0  0  0  0  0  0
    0.7470   54.8945   29.1279 H   0  0  0  0  0  0
    1.8747   56.1818   29.5916 H   0  0  0  0  0  0
   -0.8547   50.3499   24.4675 H   0  0  0  0  0  0
  1  2  1  0  0  0
  1 37  1  0  0  0
  1 38  1  0  0  0
  1 39  1  0  0  0
  2  3  1  0  0  0
  2  8  1  0  0  0
  2  4  1  0  0  0
  4  5  1  0  0  0
  4 40  1  0  0  0
  4 41  1  0  0  0
  5  6  1  0  0  0
  5 42  1  0  0  0
  5 43  1  0  0  0
  6  7  1  0  0  0
  6 44  1  0  0  0
  6 45  1  0  0  0
  7  8  1  0  0  0
  7 46  1  0  0  0
  7 47  1  0  0  0
  8  9  1  0  0  0
  9 10  2  0  0  0
  9 11  2  0  0  0
  9 12  1  0  0  0
 12 17  2  0  0  0
 12 13  1  0  0  0
 13 14  2  0  0  0
 13 48  1  0  0  0
 14 15  1  0  0  0
 14 49  1  0  0  0
 15 16  2  0  0  0
 15 18  1  0  0  0
 16 17  1  0  0  0
 16 50  1  0  0  0
 17 51  1  0  0  0
 18 19  2  0  0  0
 18 20  1  0  0  0
 20 21  1  0  0  0
 20 26  1  0  0  0
 21 22  1  0  0  0
 21 52  1  0  0  0
 21 53  1  0  0  0
 22 23  1  0  0  0
 22 54  1  0  0  0
 22 55  1  0  0  0
 23 24  1  0  0  0
 23 25  1  0  0  0
 23 68  1  0  0  0
 24 56  1  0  0  0
 24 57  1  0  0  0
 24 58  1  0  0  0
 25 59  1  0  0  0
 25 60  1  0  0  0
 25 61  1  0  0  0
 26 34  1  0  0  0
 26 27  2  0  0  0
 27 28  1  0  0  0
 28 33  2  0  0  0
 28 29  1  0  0  0
 29 30  2  0  0  0
 29 35  1  0  0  0
 30 31  1  0  0  0
 30 62  1  0  0  0
 31 32  2  0  0  0
 31 63  1  0  0  0
 32 33  1  0  0  0
 32 64  1  0  0  0
 33 34  1  0  0  0
 35 36  1  0  0  0
 36 65  1  0  0  0
 36 66  1  0  0  0
 36 67  1  0  0  0
M  CHG  1  23   1
M  END
> <i_i_glide_confnum>
47

> <i_i_glide_lignum>
1088

> <i_i_glide_posenum>
154

> <i_i_glide_rotatable_bonds>
9

> <i_m_Source_File_Index>
394

> <b_m_subgroup_collapsed>
0

> <r_i_docking_score>
-3.56996

> <r_i_glide_ecoul>
-6.34292

> <r_i_glide_eff_state_penalty>
0

> <r_i_glide_einternal>
16.1647

> <r_i_glide_emodel>
-39.5675

> <r_i_glide_energy>
-40.795

> <r_i_glide_erotb>
0.536328

> <r_i_glide_esite>
-0.0313835

> <r_i_glide_evdw>
-34.4521

> <r_i_glide_gscore>
-3.56996

> <r_i_glide_hbond>
-0.32

> <r_i_glide_ligand_efficiency>
-0.101999

> <r_i_glide_ligand_efficiency_ln>
-0.783684

> <r_i_glide_ligand_efficiency_sa>
-0.333645

> <r_i_glide_lipo>
-2.14881

> <r_i_glide_metal>
0

> <r_i_glide_rewards>
1.06795

> <s_i_glide_gridfile>
wee1_glide-grid

> <s_m_Source_File>
wee1_decoys_glide_SP.sdf

> <s_m_Source_Path>
/Users/zhangxujun/Desktop

> <s_m_entry_id>
669

> <s_m_entry_name>
wee1_decoys_glide_SP.394

> <s_m_subgroup_title>
wee1_decoys_glide_SP

> <s_m_subgroupid>
wee1_decoys_glide_SP


$$$$
