@<TRIPOS>MOLECULE
ZINC62007073_3794
43   45    1
SMALL
USER_CHARGES


@<TRIPOS>ATOM
      1 C1          5.6645   54.4076   19.7746 C.3       1 UNK         0.0000 
      2 C2          5.5047   54.3652   21.2860 C.ar      1 UNK         0.0000 
      3 C3          4.3998   53.7410   21.8539 C.ar      1 UNK         0.0000 
      4 C4          4.2682   53.6968   23.2383 C.ar      1 UNK         0.0000 
      5 C5          5.2218   54.2913   24.0807 C.ar      1 UNK         0.0000 
      6 C6          6.3422   54.8901   23.4893 C.ar      1 UNK         0.0000 
      7 C7          6.4888   54.9141   22.1057 C.ar      1 UNK         0.0000 
      8 C8          5.0517   54.3098   25.5856 C.2       1 UNK         0.0000 
      9 C9          3.8330   54.2408   26.3028 C.2       1 UNK         0.0000 
     10 C10         4.0272   54.3828   27.6712 C.2       1 UNK         0.0000 
     11 S11         5.7177   54.4891   27.9911 S.3       1 UNK         0.0000 
     12 N12         6.1379   54.4308   26.3356 N.2       1 UNK         0.0000 
     13 C13         3.0653   54.4186   28.7458 C.2       1 UNK         0.0000 
     14 O14         2.8225   55.5000   29.2819 O.2       1 UNK         0.0000 
     15 N15         2.4355   53.2536   29.0801 N.am      1 UNK         0.0000 
     16 C16         1.3030   53.2809   30.0218 C.3       1 UNK         0.0000 
     17 C17        -0.0587   53.4919   29.3250 C.3       1 UNK         0.0000 
     18 C18        -0.6069   52.2365   28.6103 C.3       1 UNK         0.0000 
     19 C19         0.3438   51.5538   27.6143 C.3       1 UNK         0.0000 
     20 C20         1.6023   50.9674   28.2711 C.3       1 UNK         0.0000 
     21 C21         2.7731   51.9505   28.4735 C.3       1 UNK         0.0000 
     22 N22         2.5915   54.0916   25.7507 N.pl3     1 UNK         0.0000 
     23 H23         5.2216   53.5244   19.3106 H         1 UNK         0.0000 
     24 H24         5.1814   55.2953   19.3626 H         1 UNK         0.0000 
     25 H25         6.7177   54.4162   19.4903 H         1 UNK         0.0000 
     26 H26         3.6447   53.2871   21.2275 H         1 UNK         0.0000 
     27 H27         3.4193   53.1668   23.6315 H         1 UNK         0.0000 
     28 H28         7.1073   55.3491   24.0961 H         1 UNK         0.0000 
     29 H29         7.3665   55.3798   21.6767 H         1 UNK         0.0000 
     30 H30         1.3341   52.4125   30.6779 H         1 UNK         0.0000 
     31 H31         1.4377   54.1036   30.7256 H         1 UNK         0.0000 
     32 H32         0.0067   54.3280   28.6257 H         1 UNK         0.0000 
     33 H33        -0.7868   53.7857   30.0779 H         1 UNK         0.0000 
     34 H34        -1.5121   52.4950   28.0633 H         1 UNK         0.0000 
     35 H35        -0.9171   51.5065   29.3618 H         1 UNK         0.0000 
     36 H36        -0.2059   50.7400   27.1333 H         1 UNK         0.0000 
     37 H37         0.6193   52.2425   26.8110 H         1 UNK         0.0000 
     38 H38         1.3386   50.5598   29.2445 H         1 UNK         0.0000 
     39 H39         1.9193   50.1046   27.6822 H         1 UNK         0.0000 
     40 H40         3.4788   51.4583   29.1444 H         1 UNK         0.0000 
     41 H41         3.2492   52.0968   27.5083 H         1 UNK         0.0000 
     42 H42         2.4497   54.0848   24.7514 H         1 UNK         0.0000 
     43 H43         1.7660   54.0351   26.3275 H         1 UNK         0.0000 
@<TRIPOS>BOND
     1    1    2 1    
     2    1   23 1    
     3    1   24 1    
     4    1   25 1    
     5    2    7 ar   
     6    2    3 ar   
     7    3    4 ar   
     8    3   26 1    
     9    4    5 ar   
    10    4   27 1    
    11    5    6 ar   
    12    5    8 1    
    13    6    7 ar   
    14    6   28 1    
    15    7   29 1    
    16    8   12 2    
    17    8    9 1    
    18    9   10 2    
    19    9   22 1    
    20   10   11 1    
    21   10   13 1    
    22   11   12 1    
    23   13   14 2    
    24   13   15 am   BACKBONE|DICT|INTERRES
    25   15   21 1    
    26   15   16 1    
    27   16   17 1    
    28   16   30 1    
    29   16   31 1    
    30   17   18 1    
    31   17   32 1    
    32   17   33 1    
    33   18   19 1    
    34   18   34 1    
    35   18   35 1    
    36   19   20 1    
    37   19   36 1    
    38   19   37 1    
    39   20   21 1    
    40   20   38 1    
    41   20   39 1    
    42   21   40 1    
    43   21   41 1    
    44   22   42 1    
    45   22   43 1    
@<TRIPOS>SUBSTRUCTURE
     1 UNK         1 GROUP             0       ****    0 ROOT    
