@<TRIPOS>MOLECULE
ZINC67101733_1462
58   60    1
SMALL
USER_CHARGES


@<TRIPOS>ATOM
      1 C1          6.0920   54.3182   28.0741 C.3       1 UNK         0.0000 
      2 C2          5.0027   54.1927   27.0344 C.2       1 UNK         0.0000 
      3 C3          4.9351   54.3739   25.6443 C.2       1 UNK         0.0000 
      4 C4          3.5774   54.1741   25.3309 C.2       1 UNK         0.0000 
      5 C5          2.9408   53.7492   26.4777 C.2       1 UNK         0.0000 
      6 O6          3.8049   53.7719   27.5162 O.3       1 UNK         0.0000 
      7 C7          5.9981   54.8970   24.8019 C.2       1 UNK         0.0000 
      8 O8          6.8222   55.6618   25.3093 O.2       1 UNK         0.0000 
      9 N9          6.0531   54.5427   23.4818 N.am      1 UNK         0.0000 
     10 C10         7.1040   55.0975   22.6068 C.3       1 UNK         0.0000 
     11 C11         6.4603   55.7017   21.3332 C.3       1 UNK         0.0000 
     12 N12         5.5032   54.7553   20.7144 N.am      1 UNK         0.0000 
     13 C13         4.4880   54.1916   21.6317 C.3       1 UNK         0.0000 
     14 C14         5.2319   53.5200   22.8100 C.3       1 UNK         0.0000 
     15 C15         5.6725   54.3538   19.4211 C.2       1 UNK         0.0000 
     16 O16         6.7081   54.5941   18.7945 O.2       1 UNK         0.0000 
     17 N17         4.6127   53.7253   18.8631 N.am      1 UNK         0.0000 
     18 N18         4.8325   52.8968   17.7609 N.am      1 UNK         0.0000 
     19 C19         4.4008   53.3003   16.5470 C.2       1 UNK         0.0000 
     20 O20         3.8764   54.3940   16.3178 O.2       1 UNK         0.0000 
     21 C21         4.6141   52.3138   15.3938 C.3       1 UNK         0.0000 
     22 C22         6.1069   52.1765   15.0066 C.3       1 UNK         0.0000 
     23 C23         6.3926   51.1770   13.8590 C.3       1 UNK         0.0000 
     24 C24         5.8614   51.6558   12.4870 C.3       1 UNK         0.0000 
     25 C25         6.1212   50.6071   11.3837 C.3       1 UNK         0.0000 
     26 C26         7.6169   50.2341   11.2934 C.3       1 UNK         0.0000 
     27 C27         8.2094   49.8394   12.6628 C.3       1 UNK         0.0000 
     28 C28         7.9093   50.9062   13.7311 C.3       1 UNK         0.0000 
     29 H29         6.9733   54.8465   27.7028 H         1 UNK         0.0000 
     30 H30         5.7477   54.8703   28.9494 H         1 UNK         0.0000 
     31 H31         6.4302   53.3399   28.4217 H         1 UNK         0.0000 
     32 H32         3.1063   54.3077   24.3692 H         1 UNK         0.0000 
     33 H33         1.9228   53.4636   26.7085 H         1 UNK         0.0000 
     34 H34         7.7849   54.2882   22.3418 H         1 UNK         0.0000 
     35 H35         7.6859   55.8745   23.1051 H         1 UNK         0.0000 
     36 H36         7.2538   55.9975   20.6461 H         1 UNK         0.0000 
     37 H37         5.9061   56.6011   21.6009 H         1 UNK         0.0000 
     38 H38         3.8459   54.9921   22.0027 H         1 UNK         0.0000 
     39 H39         3.8396   53.4578   21.1581 H         1 UNK         0.0000 
     40 H40         4.5625   52.9777   23.4611 H         1 UNK         0.0000 
     41 H41         5.8997   52.7467   22.4293 H         1 UNK         0.0000 
     42 H42         3.7745   53.4813   19.3667 H         1 UNK         0.0000 
     43 H43         5.0901   51.9365   17.9959 H         1 UNK         0.0000 
     44 H44         4.0284   52.6558   14.5386 H         1 UNK         0.0000 
     45 H45         4.2001   51.3462   15.6787 H         1 UNK         0.0000 
     46 H46         6.6626   51.8483   15.8879 H         1 UNK         0.0000 
     47 H47         6.5168   53.1528   14.7415 H         1 UNK         0.0000 
     48 H48         5.9038   50.2255   14.0823 H         1 UNK         0.0000 
     49 H49         6.3137   52.6118   12.2201 H         1 UNK         0.0000 
     50 H50         4.7920   51.8641   12.5455 H         1 UNK         0.0000 
     51 H51         5.7711   50.9863   10.4227 H         1 UNK         0.0000 
     52 H52         5.5333   49.7098   11.5922 H         1 UNK         0.0000 
     53 H53         8.1724   51.0856   10.8990 H         1 UNK         0.0000 
     54 H54         7.7545   49.4242   10.5800 H         1 UNK         0.0000 
     55 H55         9.2886   49.6969   12.5724 H         1 UNK         0.0000 
     56 H56         7.7982   48.8801   12.9793 H         1 UNK         0.0000 
     57 H57         8.3075   50.5804   14.6908 H         1 UNK         0.0000 
     58 H58         8.4410   51.8336   13.5113 H         1 UNK         0.0000 
@<TRIPOS>BOND
     1    1    2 1    
     2    1   29 1    
     3    1   30 1    
     4    1   31 1    
     5    2    6 1    
     6    2    3 2    
     7    3    4 1    
     8    3    7 1    
     9    4    5 2    
    10    4   32 1    
    11    5    6 1    
    12    5   33 1    
    13    7    8 2    
    14    7    9 am   BACKBONE|DICT|INTERRES
    15    9   14 1    
    16    9   10 1    
    17   10   11 1    
    18   10   34 1    
    19   10   35 1    
    20   11   12 1    
    21   11   36 1    
    22   11   37 1    
    23   12   13 1    
    24   12   15 am   BACKBONE|DICT|INTERRES
    25   13   14 1    
    26   13   38 1    
    27   13   39 1    
    28   14   40 1    
    29   14   41 1    
    30   15   16 2    
    31   15   17 am   BACKBONE|DICT|INTERRES
    32   17   18 1    
    33   17   42 1    
    34   18   19 am   BACKBONE|DICT|INTERRES
    35   18   43 1    
    36   19   20 2    
    37   19   21 1    
    38   21   22 1    
    39   21   44 1    
    40   21   45 1    
    41   22   23 1    
    42   22   46 1    
    43   22   47 1    
    44   23   28 1    
    45   23   24 1    
    46   23   48 1    
    47   24   25 1    
    48   24   49 1    
    49   24   50 1    
    50   25   26 1    
    51   25   51 1    
    52   25   52 1    
    53   26   27 1    
    54   26   53 1    
    55   26   54 1    
    56   27   28 1    
    57   27   55 1    
    58   27   56 1    
    59   28   57 1    
    60   28   58 1    
@<TRIPOS>SUBSTRUCTURE
     1 UNK         1 GROUP             0       ****    0 ROOT    
