ZINC41068354_1682
                    3D
 Schrodinger Suite 2024-2.
 36 38  0  0  1  0            999 V2000
   -1.1774   50.5441   25.4779 C   0  0  0  0  0  0
   -1.4691   50.6760   24.1165 C   0  0  0  0  0  0
   -1.1483   51.8598   23.6523 N   0  0  0  0  0  0
   -0.6436   52.4967   24.7142 N   0  0  0  0  0  0
   -0.3042   53.4445   24.6485 H   0  0  0  0  0  0
   -0.6371   51.7579   25.8707 C   0  0  0  0  0  0
   -0.1030   52.2930   27.1858 C   0  0  1  0  0  0
   -0.3822   53.3350   27.2822 H   0  0  0  0  0  0
   -0.7149   51.6139   28.4325 C   0  0  0  0  0  0
   -0.1127   52.1780   29.7376 C   0  0  0  0  0  0
    1.4196   52.0610   29.7207 C   0  0  0  0  0  0
    1.9975   52.7200   28.5317 N   0  0  0  0  0  0
    1.4435   52.2925   27.2279 C   0  0  0  0  0  0
    2.6244   54.3554   28.7048 S   0  0  0  0  0  0
    3.0844   54.5324   30.0817 O   0  0  0  0  0  0
    1.6927   55.2967   28.0817 O   0  0  0  0  0  0
    4.1175   54.2738   27.6917 C   0  0  0  0  0  0
    4.2381   54.5913   26.3418 C   0  0  0  0  0  0
    5.5623   54.4972   25.8957 C   0  0  0  0  0  0
    6.4421   54.0972   26.8854 C   0  0  0  0  0  0
    5.6408   53.8350   28.3941 S   0  0  0  0  0  0
    5.9605   54.7693   24.6201 N   0  0  0  0  0  0
   -1.3369   49.6730   26.0985 H   0  0  0  0  0  0
   -1.9042   49.9163   23.4838 H   0  0  0  0  0  0
   -0.4957   50.5440   28.4101 H   0  0  0  0  0  0
   -1.7966   51.7492   28.4628 H   0  0  0  0  0  0
   -0.5197   51.6449   30.5987 H   0  0  0  0  0  0
   -0.4027   53.2216   29.8699 H   0  0  0  0  0  0
    1.6968   51.0094   29.6679 H   0  0  0  0  0  0
    1.8618   52.4707   30.6289 H   0  0  0  0  0  0
    1.8493   52.9332   26.4449 H   0  0  0  0  0  0
    1.8219   51.2966   27.0399 H   0  0  0  0  0  0
    3.4160   54.8966   25.7144 H   0  0  0  0  0  0
    7.5044   53.9437   26.8183 H   0  0  0  0  0  0
    6.9296   54.7045   24.3404 H   0  0  0  0  0  0
    5.2930   54.8958   23.8727 H   0  0  0  0  0  0
  1  6  2  0  0  0
  1  2  1  0  0  0
  1 23  1  0  0  0
  2  3  2  0  0  0
  2 24  1  0  0  0
  3  4  1  0  0  0
  4  5  1  0  0  0
  4  6  1  0  0  0
  6  7  1  0  0  0
  7  8  1  0  0  0
  7 13  1  0  0  0
  7  9  1  0  0  0
  9 10  1  0  0  0
  9 25  1  0  0  0
  9 26  1  0  0  0
 10 11  1  0  0  0
 10 27  1  0  0  0
 10 28  1  0  0  0
 11 12  1  0  0  0
 11 29  1  0  0  0
 11 30  1  0  0  0
 12 13  1  0  0  0
 12 14  1  0  0  0
 13 31  1  0  0  0
 13 32  1  0  0  0
 14 15  2  0  0  0
 14 16  2  0  0  0
 14 17  1  0  0  0
 17 21  1  0  0  0
 17 18  2  0  0  0
 18 19  1  0  0  0
 18 33  1  0  0  0
 19 20  2  0  0  0
 19 22  1  0  0  0
 20 21  1  0  0  0
 20 34  1  0  0  0
 22 35  1  0  0  0
 22 36  1  0  0  0
M  END
> <i_i_glide_confnum>
12

> <i_i_glide_lignum>
1683

> <i_i_glide_posenum>
281

> <i_i_glide_rotatable_bonds>
3

> <i_m_Source_File_Index>
517

> <b_m_subgroup_collapsed>
0

> <r_i_docking_score>
-4.6007

> <r_i_glide_ecoul>
-3.42841

> <r_i_glide_eff_state_penalty>
0

> <r_i_glide_einternal>
1.81623

> <r_i_glide_emodel>
-45.7085

> <r_i_glide_energy>
-37.2963

> <r_i_glide_erotb>
0.570461

> <r_i_glide_esite>
-0.0611135

> <r_i_glide_evdw>
-33.8679

> <r_i_glide_gscore>
-4.6007

> <r_i_glide_hbond>
0

> <r_i_glide_ligand_efficiency>
-0.230035

> <r_i_glide_ligand_efficiency_ln>
-1.1514

> <r_i_glide_ligand_efficiency_sa>
-0.624412

> <r_i_glide_lipo>
-1.57891

> <r_i_glide_metal>
0

> <r_i_glide_rewards>
-1.32348

> <s_i_glide_gridfile>
wee1_glide-grid

> <s_m_Source_File>
wee1_decoys_glide_SP.sdf

> <s_m_Source_Path>
/Users/zhangxujun/Desktop

> <s_m_entry_id>
792

> <s_m_entry_name>
wee1_decoys_glide_SP.517

> <s_m_subgroup_title>
wee1_decoys_glide_SP

> <s_m_subgroupid>
wee1_decoys_glide_SP


$$$$
