ZINC36218529_5403
                    3D
 Schrodinger Suite 2024-2.
 68 72  0  0  1  0            999 V2000
    1.4289   50.8969   27.9475 C   0  0  0  0  0  0
    1.1105   52.1914   27.1716 C   0  0  2  0  0  0
    1.9340   52.3712   26.4750 H   0  0  0  0  0  0
    1.0603   53.3614   28.1629 C   0  0  0  0  0  0
    0.2548   53.2875   29.3077 C   0  0  0  0  0  0
    0.3071   54.2900   30.2720 C   0  0  0  0  0  0
    1.1453   55.3852   30.0818 C   0  0  0  0  0  0
    1.9441   55.4767   28.9456 C   0  0  0  0  0  0
    1.9089   54.4608   27.9920 C   0  0  0  0  0  0
   -0.1161   52.0973   26.3639 N   0  0  0  0  0  0
   -0.4419   51.1182   25.4916 C   0  0  0  0  0  0
    0.3027   50.1689   25.2550 O   0  0  0  0  0  0
   -1.8233   51.1437   24.7788 C   0  0  2  0  0  0
   -2.2598   50.1716   25.0141 H   0  0  0  0  0  0
   -1.7903   51.3276   23.2520 C   0  0  1  0  0  0
   -2.5423   50.6525   22.8373 H   0  0  0  0  0  0
   -2.3169   52.6241   23.0603 O   0  0  0  0  0  0
   -3.0101   53.0757   24.1219 C   0  0  0  0  0  0
   -3.6973   54.0959   24.0816 O   0  0  0  0  0  0
   -2.7287   52.2173   25.1828 N   0  0  0  0  0  0
   -3.2869   52.4124   26.5224 C   0  0  0  0  0  0
   -4.1470   51.2656   27.0159 C   0  0  0  0  0  0
   -5.3765   50.9977   26.4105 C   0  0  0  0  0  0
   -6.1658   49.9541   26.8857 C   0  0  0  0  0  0
   -5.7232   49.1864   27.9642 C   0  0  0  0  0  0
   -4.5000   49.4564   28.5746 C   0  0  0  0  0  0
   -3.7127   50.5008   28.1019 C   0  0  0  0  0  0
   -0.5120   51.0732   22.4477 C   0  0  0  0  0  0
   -0.3903   49.9044   21.6900 C   0  0  0  0  0  0
    0.7661   49.6606   20.9519 C   0  0  0  0  0  0
    1.8165   50.5765   20.9755 C   0  0  0  0  0  0
    1.7239   51.7369   21.7489 C   0  0  0  0  0  0
    0.5427   51.9940   22.4631 C   0  0  0  0  0  0
    2.8439   52.5829   21.7540 N   0  0  0  0  0  0
    3.2406   53.4400   22.7186 C   0  0  0  0  0  0
    2.6324   53.6529   23.7708 O   0  0  0  0  0  0
    4.5851   54.0783   22.4785 C   0  0  0  0  0  0
    5.4640   54.2598   23.5539 C   0  0  0  0  0  0
    6.7037   54.8583   23.3529 C   0  0  0  0  0  0
    7.0638   55.2966   22.0809 C   0  0  0  0  0  0
    6.2041   55.1157   21.0015 C   0  0  0  0  0  0
    4.9713   54.4973   21.1956 C   0  0  0  0  0  0
    2.3035   51.0132   28.5881 H   0  0  0  0  0  0
    0.5814   50.6183   28.5745 H   0  0  0  0  0  0
    1.6260   50.0568   27.2849 H   0  0  0  0  0  0
   -0.3958   52.4396   29.4710 H   0  0  0  0  0  0
   -0.2940   54.2138   31.1660 H   0  0  0  0  0  0
    1.1843   56.1678   30.8270 H   0  0  0  0  0  0
    2.5989   56.3254   28.8184 H   0  0  0  0  0  0
    2.5492   54.5234   27.1235 H   0  0  0  0  0  0
   -0.7034   52.9162   26.3764 H   0  0  0  0  0  0
   -2.4671   52.5515   27.2252 H   0  0  0  0  0  0
   -3.8814   53.3268   26.5670 H   0  0  0  0  0  0
   -5.7180   51.5926   25.5751 H   0  0  0  0  0  0
   -7.1158   49.7385   26.4200 H   0  0  0  0  0  0
   -6.3322   48.3714   28.3276 H   0  0  0  0  0  0
   -4.1457   48.8572   29.4037 H   0  0  0  0  0  0
   -2.7573   50.6875   28.5720 H   0  0  0  0  0  0
   -1.1912   49.1802   21.6682 H   0  0  0  0  0  0
    0.8505   48.7592   20.3635 H   0  0  0  0  0  0
    2.7103   50.3635   20.4039 H   0  0  0  0  0  0
    0.4356   52.8942   23.0459 H   0  0  0  0  0  0
    3.4815   52.4555   20.9829 H   0  0  0  0  0  0
    5.1909   53.9354   24.5492 H   0  0  0  0  0  0
    7.3827   54.9954   24.1804 H   0  0  0  0  0  0
    8.0238   55.7677   21.9329 H   0  0  0  0  0  0
    6.4939   55.4502   20.0151 H   0  0  0  0  0  0
    4.3128   54.3788   20.3463 H   0  0  0  0  0  0
  1  2  1  0  0  0
  1 43  1  0  0  0
  1 44  1  0  0  0
  1 45  1  0  0  0
  2  3  1  0  0  0
  2  4  1  0  0  0
  2 10  1  0  0  0
  4  9  2  0  0  0
  4  5  1  0  0  0
  5  6  2  0  0  0
  5 46  1  0  0  0
  6  7  1  0  0  0
  6 47  1  0  0  0
  7  8  2  0  0  0
  7 48  1  0  0  0
  8  9  1  0  0  0
  8 49  1  0  0  0
  9 50  1  0  0  0
 10 11  1  0  0  0
 10 51  1  0  0  0
 11 12  2  0  0  0
 11 13  1  0  0  0
 13 14  1  0  0  0
 13 20  1  0  0  0
 13 15  1  0  0  0
 15 16  1  0  0  0
 15 17  1  0  0  0
 15 28  1  0  0  0
 17 18  1  0  0  0
 18 19  2  0  0  0
 18 20  1  0  0  0
 20 21  1  0  0  0
 21 22  1  0  0  0
 21 52  1  0  0  0
 21 53  1  0  0  0
 22 27  2  0  0  0
 22 23  1  0  0  0
 23 24  2  0  0  0
 23 54  1  0  0  0
 24 25  1  0  0  0
 24 55  1  0  0  0
 25 26  2  0  0  0
 25 56  1  0  0  0
 26 27  1  0  0  0
 26 57  1  0  0  0
 27 58  1  0  0  0
 28 33  2  0  0  0
 28 29  1  0  0  0
 29 30  2  0  0  0
 29 59  1  0  0  0
 30 31  1  0  0  0
 30 60  1  0  0  0
 31 32  2  0  0  0
 31 61  1  0  0  0
 32 33  1  0  0  0
 32 34  1  0  0  0
 33 62  1  0  0  0
 34 35  1  0  0  0
 34 63  1  0  0  0
 35 36  2  0  0  0
 35 37  1  0  0  0
 37 42  2  0  0  0
 37 38  1  0  0  0
 38 39  2  0  0  0
 38 64  1  0  0  0
 39 40  1  0  0  0
 39 65  1  0  0  0
 40 41  2  0  0  0
 40 66  1  0  0  0
 41 42  1  0  0  0
 41 67  1  0  0  0
 42 68  1  0  0  0
M  END
> <i_i_glide_confnum>
92

> <i_i_glide_lignum>
5404

> <i_i_glide_posenum>
149

> <i_i_glide_rotatable_bonds>
10

> <i_m_Source_File_Index>
3417

> <b_m_subgroup_collapsed>
0

> <r_i_docking_score>
-5.30457

> <r_i_glide_ecoul>
-1.98999

> <r_i_glide_eff_state_penalty>
0

> <r_i_glide_einternal>
11.7639

> <r_i_glide_emodel>
-62.5777

> <r_i_glide_energy>
-50.6517

> <r_i_glide_erotb>
0.684925

> <r_i_glide_esite>
-0.0202689

> <r_i_glide_evdw>
-48.6617

> <r_i_glide_gscore>
-5.30457

> <r_i_glide_hbond>
0

> <r_i_glide_ligand_efficiency>
-0.136015

> <r_i_glide_ligand_efficiency_ln>
-1.13745

> <r_i_glide_ligand_efficiency_sa>
-0.461255

> <r_i_glide_lipo>
-2.81689

> <r_i_glide_metal>
0

> <r_i_glide_rewards>
-0.420751

> <s_i_glide_gridfile>
wee1_glide-grid

> <s_m_Source_File>
wee1_decoys_glide_SP.sdf

> <s_m_Source_Path>
/Users/zhangxujun/Desktop

> <s_m_entry_id>
3692

> <s_m_entry_name>
wee1_decoys_glide_SP.3417

> <s_m_subgroup_title>
wee1_decoys_glide_SP

> <s_m_subgroupid>
wee1_decoys_glide_SP


$$$$
