@<TRIPOS>MOLECULE
ZINC65669324_1502
38   40    1
SMALL
USER_CHARGES


@<TRIPOS>ATOM
      1 C1          5.5603   54.0978   22.4830 C.ar      1 UNK         0.0000 
      2 C2          5.8083   54.1027   23.8473 C.ar      1 UNK         0.0000 
      3 C3          4.7521   54.1186   24.7742 C.ar      1 UNK         0.0000 
      4 C4          3.4366   54.0974   24.2886 C.ar      1 UNK         0.0000 
      5 C5          3.1883   54.0958   22.9152 C.ar      1 UNK         0.0000 
      6 C6          4.2466   54.0957   22.0031 C.ar      1 UNK         0.0000 
      7 N7          3.9046   54.0965   20.6369 N.am      1 UNK         0.0000 
      8 C8          4.6993   54.0997   19.5452 C.2       1 UNK         0.0000 
      9 O9          5.9260   54.0849   19.5419 O.2       1 UNK         0.0000 
     10 C10         3.9483   54.0983   18.2411 C.ar      1 UNK         0.0000 
     11 C11         3.3299   52.8962   17.8611 C.ar      1 UNK         0.0000 
     12 C12         2.5968   52.8061   16.6833 C.ar      1 UNK         0.0000 
     13 C13         2.4756   53.9179   15.8583 C.ar      1 UNK         0.0000 
     14 C14         3.0938   55.1139   16.2125 C.ar      1 UNK         0.0000 
     15 C15         3.8408   55.2377   17.3955 C.ar      1 UNK         0.0000 
     16 N16         4.4504   56.5665   17.6940 N.pl3     1 UNK         0.0000 
     17 O17         5.4756   56.6392   18.3630 O.co2     1 UNK         0.0000 
     18 O18         3.9043   57.5617   17.2264 O.co2     1 UNK         0.0000 
     19 F19         1.7587   53.8439   14.7129 F         1 UNK         0.0000 
     20 F20         1.9998   51.6401   16.3458 F         1 UNK         0.0000 
     21 N21         4.9898   54.1177   26.1779 N.am      1 UNK         0.0000 
     22 C22         4.0046   53.6972   27.1708 C.3       1 UNK         0.0000 
     23 C23         4.7851   53.6624   28.4587 C.3       1 UNK         0.0000 
     24 N24         5.8953   54.5007   28.1012 N.am      1 UNK         0.0000 
     25 C25         6.0938   54.6454   26.7841 C.2       1 UNK         0.0000 
     26 O26         7.1042   55.1146   26.2727 O.2       1 UNK         0.0000 
     27 H27         6.4122   54.1033   21.8279 H         1 UNK         0.0000 
     28 H28         6.8429   54.0762   24.1560 H         1 UNK         0.0000 
     29 H29         2.5937   54.0978   24.9635 H         1 UNK         0.0000 
     30 H30         2.1669   54.0965   22.5639 H         1 UNK         0.0000 
     31 H31         2.9108   54.1624   20.4487 H         1 UNK         0.0000 
     32 H32         3.4244   52.0056   18.4710 H         1 UNK         0.0000 
     33 H33         2.9845   55.9584   15.5451 H         1 UNK         0.0000 
     34 H34         3.1787   54.4108   27.2183 H         1 UNK         0.0000 
     35 H35         3.6031   52.7153   26.9177 H         1 UNK         0.0000 
     36 H36         5.1109   52.6632   28.7588 H         1 UNK         0.0000 
     37 H37         4.2110   54.1238   29.2646 H         1 UNK         0.0000 
     38 H38         6.3581   55.0941   28.7797 H         1 UNK         0.0000 
@<TRIPOS>BOND
     1    1    6 ar   
     2    1    2 ar   
     3    1   27 1    
     4    2    3 ar   
     5    2   28 1    
     6    3    4 ar   
     7    3   21 1    
     8    4    5 ar   
     9    4   29 1    
    10    5    6 ar   
    11    5   30 1    
    12    6    7 1    
    13    7    8 am   BACKBONE|DICT|INTERRES
    14    7   31 1    
    15    8    9 2    
    16    8   10 1    
    17   10   15 ar   
    18   10   11 ar   
    19   11   12 ar   
    20   11   32 1    
    21   12   13 ar   
    22   12   20 1    
    23   13   14 ar   
    24   13   19 1    
    25   14   15 ar   
    26   14   33 1    
    27   15   16 1    
    28   16   17 2    
    29   16   18 1    
    30   21   25 am   BACKBONE|DICT|INTERRES
    31   21   22 1    
    32   22   23 1    
    33   22   34 1    
    34   22   35 1    
    35   23   24 1    
    36   23   36 1    
    37   23   37 1    
    38   24   25 am   BACKBONE|DICT|INTERRES
    39   24   38 1    
    40   25   26 2    
@<TRIPOS>SUBSTRUCTURE
     1 UNK         1 GROUP             0       ****    0 ROOT    
