ZINC39668086_5912
                    3D
 Schrodinger Suite 2024-2.
 52 55  0  0  1  0            999 V2000
    2.6036   53.7351   25.0639 C   0  0  0  0  0  0
    4.0741   54.0950   25.1940 C   0  0  0  0  0  0
    4.6223   54.4203   23.9797 N   0  0  0  0  0  0
    5.9017   54.6204   23.9602 C   0  0  0  0  0  0
    6.7047   54.6519   24.9635 N   0  5  0  0  0  0
    6.2527   54.4169   26.1987 C   0  0  0  0  0  0
    6.9394   54.4819   27.2171 O   0  0  0  0  0  0
    4.8211   54.0610   26.3434 C   0  0  0  0  0  0
    4.2998   53.5534   27.6861 C   0  0  0  0  0  0
    3.6670   54.6725   28.5294 C   0  0  0  0  0  0
    2.8123   54.1447   29.6817 C   0  0  0  0  0  0
    1.8831   54.8861   30.0668 O   0  0  0  0  0  0
    3.1200   53.0541   30.2134 O   0  5  0  0  0  0
    6.7043   54.8966   22.3706 S   0  0  0  0  0  0
    5.3507   54.6877   21.1363 C   0  0  0  0  0  0
    4.8605   53.2389   20.9353 C   0  0  0  0  0  0
    5.2229   52.3489   21.7047 O   0  0  0  0  0  0
    3.9335   52.9296   19.8341 C   0  0  0  0  0  0
    3.5592   53.6257   18.7331 C   0  0  0  0  0  0
    3.9124   54.9595   18.2043 C   0  0  0  0  0  0
    3.3908   55.4139   17.0481 C   0  0  0  0  0  0
    2.4717   54.5504   16.3264 C   0  0  0  0  0  0
    2.1277   53.3221   16.7897 C   0  0  0  0  0  0
    2.6571   52.8439   17.9945 C   0  0  0  0  0  0
    2.4302   51.6944   18.5838 N   0  3  0  0  0  0
    3.1940   51.5947   19.8358 C   0  0  2  0  0  0
    3.8912   50.7648   19.7017 H   0  0  0  0  0  0
    2.2677   51.3268   21.0287 C   0  0  0  0  0  0
    1.3894   52.3174   21.4847 C   0  0  0  0  0  0
    0.5606   52.0725   22.5751 C   0  0  0  0  0  0
    0.6101   50.8375   23.2141 C   0  0  0  0  0  0
    1.4783   49.8447   22.7681 C   0  0  0  0  0  0
    2.3046   50.0867   21.6729 C   0  0  0  0  0  0
   -0.1896   50.6019   24.2773 F   0  0  0  0  0  0
    2.5071   52.7991   24.5151 H   0  0  0  0  0  0
    2.1124   53.6130   26.0273 H   0  0  0  0  0  0
    2.0617   54.5064   24.5158 H   0  0  0  0  0  0
    3.5686   52.7676   27.4901 H   0  0  0  0  0  0
    5.0901   53.0499   28.2475 H   0  0  0  0  0  0
    4.4528   55.2966   28.9491 H   0  0  0  0  0  0
    3.0382   55.3039   27.9014 H   0  0  0  0  0  0
    5.7626   55.0466   20.1989 H   0  0  0  0  0  0
    4.4944   55.2967   21.4108 H   0  0  0  0  0  0
    4.5736   55.6382   18.7134 H   0  0  0  0  0  0
    3.6397   56.3950   16.6700 H   0  0  0  0  0  0
    2.0541   54.8977   15.3923 H   0  0  0  0  0  0
    1.4434   52.7202   16.2091 H   0  0  0  0  0  0
    1.3553   53.2795   20.9961 H   0  0  0  0  0  0
   -0.1101   52.8385   22.9334 H   0  0  0  0  0  0
    1.5102   48.8951   23.2801 H   0  0  0  0  0  0
    2.9811   49.3146   21.3363 H   0  0  0  0  0  0
    1.8354   50.9528   18.2263 H   0  0  0  0  0  0
  1  2  1  0  0  0
  1 35  1  0  0  0
  1 36  1  0  0  0
  1 37  1  0  0  0
  2  8  2  0  0  0
  2  3  1  0  0  0
  3  4  2  0  0  0
  4  5  1  0  0  0
  4 14  1  0  0  0
  5  6  1  0  0  0
  6  7  2  0  0  0
  6  8  1  0  0  0
  8  9  1  0  0  0
  9 10  1  0  0  0
  9 38  1  0  0  0
  9 39  1  0  0  0
 10 11  1  0  0  0
 10 40  1  0  0  0
 10 41  1  0  0  0
 11 12  2  0  0  0
 11 13  1  0  0  0
 14 15  1  0  0  0
 15 16  1  0  0  0
 15 42  1  0  0  0
 15 43  1  0  0  0
 16 17  2  0  0  0
 16 18  1  0  0  0
 18 26  1  0  0  0
 18 19  2  0  0  0
 19 24  1  0  0  0
 19 20  1  0  0  0
 20 21  2  0  0  0
 20 44  1  0  0  0
 21 22  1  0  0  0
 21 45  1  0  0  0
 22 23  2  0  0  0
 22 46  1  0  0  0
 23 24  1  0  0  0
 23 47  1  0  0  0
 24 25  2  0  0  0
 25 26  1  0  0  0
 25 52  1  0  0  0
 26 27  1  0  0  0
 26 28  1  0  0  0
 28 33  2  0  0  0
 28 29  1  0  0  0
 29 30  2  0  0  0
 29 48  1  0  0  0
 30 31  1  0  0  0
 30 49  1  0  0  0
 31 32  2  0  0  0
 31 34  1  0  0  0
 32 33  1  0  0  0
 32 50  1  0  0  0
 33 51  1  0  0  0
M  CHG  3   5  -1  13  -1  25   1
M  END
> <i_i_glide_confnum>
75

> <i_i_glide_lignum>
5913

> <i_i_glide_posenum>
325

> <i_i_glide_rotatable_bonds>
8

> <i_m_Source_File_Index>
2770

> <b_m_subgroup_collapsed>
0

> <r_i_docking_score>
-5.15755

> <r_i_glide_ecoul>
-1.46457

> <r_i_glide_eff_state_penalty>
0

> <r_i_glide_einternal>
4.09381

> <r_i_glide_emodel>
-62.3579

> <r_i_glide_energy>
-44.2503

> <r_i_glide_erotb>
0.654082

> <r_i_glide_esite>
-0.0717855

> <r_i_glide_evdw>
-42.7857

> <r_i_glide_gscore>
-5.15755

> <r_i_glide_hbond>
-0.253526

> <r_i_glide_ligand_efficiency>
-0.156289

> <r_i_glide_ligand_efficiency_ln>
-1.14701

> <r_i_glide_ligand_efficiency_sa>
-0.501304

> <r_i_glide_lipo>
-2.39682

> <r_i_glide_metal>
0

> <r_i_glide_rewards>
-0.730524

> <s_i_glide_gridfile>
wee1_glide-grid

> <s_m_Source_File>
wee1_decoys_glide_SP.sdf

> <s_m_Source_Path>
/Users/zhangxujun/Desktop

> <s_m_entry_id>
3045

> <s_m_entry_name>
wee1_decoys_glide_SP.2770

> <s_m_subgroup_title>
wee1_decoys_glide_SP

> <s_m_subgroupid>
wee1_decoys_glide_SP


$$$$
