@<TRIPOS>MOLECULE
ZINC01617452_1618
29   30    1
SMALL
USER_CHARGES


@<TRIPOS>ATOM
      1 C1          1.6360   52.3251   21.9855 C.ar      1 UNK         0.0000 
      2 C2          0.2798   52.1350   22.2253 C.ar      1 UNK         0.0000 
      3 C3         -0.2703   52.4848   23.4623 C.ar      1 UNK         0.0000 
      4 C4          0.5690   52.9982   24.4594 C.ar      1 UNK         0.0000 
      5 C5          1.9574   53.1528   24.2652 C.ar      1 UNK         0.0000 
      6 C6          2.4602   52.8306   22.9870 C.ar      1 UNK         0.0000 
      7 N7          2.8501   53.5881   25.3130 N.pl3     1 UNK         0.0000 
      8 C8          2.6115   53.3006   26.6524 C.ar      1 UNK         0.0000 
      9 O9          1.6180   52.7392   27.1205 O.2       1 UNK         0.0000 
     10 C10         3.7124   53.6975   27.5269 C.ar      1 UNK         0.0000 
     11 C11         4.8678   54.2365   27.0453 C.ar      1 UNK         0.0000 
     12 C12         5.0194   54.4955   25.6083 C.ar      1 UNK         0.0000 
     13 N13         4.0164   54.2091   24.8403 N.2       1 UNK         0.0000 
     14 C14         6.2641   55.0674   24.9471 C.2       1 UNK         0.0000 
     15 O15         6.3966   54.8935   23.7117 O.co2     1 UNK         0.0000 
     16 N16         5.9043   54.5412   27.8984 N.pl3     1 UNK         0.0000 
     17 C17         3.5741   53.4681   28.9355 C.1       1 UNK         0.0000 
     18 N18         3.5045   53.3113   30.0821 N.1       1 UNK         0.0000 
     19 C19        -1.7633   52.3003   23.7399 C.3       1 UNK         0.0000 
     20 F20        -1.9570   51.7906   24.9579 F         1 UNK         0.0000 
     21 F21        -2.3732   53.4851   23.6760 F         1 UNK         0.0000 
     22 F22        -2.3434   51.4879   22.8518 F         1 UNK         0.0000 
     23 H23         2.0573   52.0727   21.0234 H         1 UNK         0.0000 
     24 H24        -0.3400   51.7307   21.4390 H         1 UNK         0.0000 
     25 H25         0.1108   53.2802   25.3934 H         1 UNK         0.0000 
     26 H26         3.5120   52.9337   22.7587 H         1 UNK         0.0000 
     27 H27         6.7221   55.0243   27.5407 H         1 UNK         0.0000 
     28 H28         5.8409   54.4058   28.8975 H         1 UNK         0.0000 
     29 O29         7.0845   55.6705   25.6820 O.co2     1 UNK         0.0000 
@<TRIPOS>BOND
     1    1    6 ar   
     2    1    2 ar   
     3    1   23 1    
     4    2    3 ar   
     5    2   24 1    
     6    3    4 ar   
     7    3   19 1    
     8    4    5 ar   
     9    4   25 1    
    10    5    6 ar   
    11    5    7 1    
    12    6   26 1    
    13    7   13 ar   
    14    7    8 ar   
    15    8    9 2    
    16    8   10 ar   
    17   10   11 ar   
    18   10   17 1    
    19   11   12 ar   
    20   11   16 1    
    21   12   13 ar   
    22   12   14 1    
    23   14   15 2    
    24   14   29 1    
    25   16   27 1    
    26   16   28 1    
    27   17   18 3    
    28   19   20 1    
    29   19   21 1    
    30   19   22 1    
@<TRIPOS>SUBSTRUCTURE
     1 UNK         1 GROUP             0       ****    0 ROOT    
