@<TRIPOS>MOLECULE
ZINC04190243_4465
66   69    1
SMALL
USER_CHARGES


@<TRIPOS>ATOM
      1 C1          1.2098   50.8184   22.3510 C.3       1 UNK         0.0000 
      2 C2          0.3999   52.0568   22.7859 C.3       1 UNK         0.0000 
      3 C3          0.6689   52.5465   24.2272 C.3       1 UNK         0.0000 
      4 H4          0.0598   53.4443   24.3608 H         1 UNK         0.0000 
      5 C5          0.2147   51.5250   25.2938 C.3       1 UNK         0.0000 
      6 N6          2.0659   52.9509   24.3902 N.am      1 UNK         0.0000 
      7 C7          2.5697   53.6923   25.3939 C.2       1 UNK         0.0000 
      8 O8          1.8848   54.0955   26.3223 O.2       1 UNK         0.0000 
      9 C9          4.0443   54.0100   25.3124 C.ar      1 UNK         0.0000 
     10 C10         4.5631   54.3132   24.0442 C.ar      1 UNK         0.0000 
     11 C11         5.9023   54.6676   23.8495 C.ar      1 UNK         0.0000 
     12 C12         6.7107   54.7856   24.9751 C.ar      1 UNK         0.0000 
     13 C13         6.2171   54.5153   26.2486 C.ar      1 UNK         0.0000 
     14 C14         4.8954   54.0975   26.4499 C.ar      1 UNK         0.0000 
     15 N15         4.5461   53.7956   27.7685 N.pl3     1 UNK         0.0000 
     16 C16         4.5480   54.7981   28.8346 C.3       1 UNK         0.0000 
     17 C17         3.1077   55.3320   29.0067 C.3       1 UNK         0.0000 
     18 C18         2.1564   54.1975   29.3800 C.ar      1 UNK         0.0000 
     19 C19         0.9598   54.4131   30.0748 C.ar      1 UNK         0.0000 
     20 C20         0.0570   53.3690   30.2744 C.ar      1 UNK         0.0000 
     21 C21         0.3445   52.0972   29.7985 C.ar      1 UNK         0.0000 
     22 C22         1.5487   51.8646   29.1449 C.ar      1 UNK         0.0000 
     23 C23         2.4665   52.8955   28.9336 C.ar      1 UNK         0.0000 
     24 C24         3.7767   52.6196   28.1930 C.3       1 UNK         0.0000 
     25 N25         6.4718   54.9739   22.5935 N.am      1 UNK         0.0000 
     26 C26         5.9051   54.8897   21.3660 C.2       1 UNK         0.0000 
     27 O27         4.8259   54.3517   21.1293 O.2       1 UNK         0.0000 
     28 N28         6.6734   55.4710   20.4242 N.am      1 UNK         0.0000 
     29 C29         6.3624   55.7239   19.0653 C.ar      1 UNK         0.0000 
     30 C30         5.0372   55.8301   18.6055 C.ar      1 UNK         0.0000 
     31 C31         4.7600   56.1398   17.2773 C.ar      1 UNK         0.0000 
     32 C32         5.8018   56.3440   16.3809 C.ar      1 UNK         0.0000 
     33 C33         7.1212   56.2326   16.8120 C.ar      1 UNK         0.0000 
     34 C34         7.4194   55.9166   18.1475 C.ar      1 UNK         0.0000 
     35 C35         8.8854   55.7864   18.5731 C.3       1 UNK         0.0000 
     36 F36         9.7405   56.2026   17.6376 F         1 UNK         0.0000 
     37 F37         9.1046   56.4966   19.6795 F         1 UNK         0.0000 
     38 F38         9.1343   54.5034   18.8295 F         1 UNK         0.0000 
     39 H39         0.9729   50.5441   21.3205 H         1 UNK         0.0000 
     40 H40         2.2849   51.0002   22.3977 H         1 UNK         0.0000 
     41 H41         0.9882   49.9541   22.9772 H         1 UNK         0.0000 
     42 H42        -0.6644   51.8492   22.6646 H         1 UNK         0.0000 
     43 H43         0.6210   52.8685   22.0897 H         1 UNK         0.0000 
     44 H44        -0.8058   51.1921   25.0995 H         1 UNK         0.0000 
     45 H45         0.8388   50.6329   25.2976 H         1 UNK         0.0000 
     46 H46         0.2134   51.9573   26.2947 H         1 UNK         0.0000 
     47 H47         2.6925   52.6628   23.6546 H         1 UNK         0.0000 
     48 H48         3.8875   54.2934   23.2053 H         1 UNK         0.0000 
     49 H49         7.7440   55.0788   24.8729 H         1 UNK         0.0000 
     50 H50         6.8834   54.6001   27.0952 H         1 UNK         0.0000 
     51 H51         4.8934   54.3524   29.7668 H         1 UNK         0.0000 
     52 H52         5.2809   55.5736   28.6188 H         1 UNK         0.0000 
     53 H53         2.7495   55.7523   28.0676 H         1 UNK         0.0000 
     54 H54         3.0777   56.1631   29.7042 H         1 UNK         0.0000 
     55 H55         0.7086   55.4053   30.4219 H         1 UNK         0.0000 
     56 H56        -0.8881   53.5262   30.7710 H         1 UNK         0.0000 
     57 H57        -0.3700   51.2962   29.9371 H         1 UNK         0.0000 
     58 H58         1.7676   50.8727   28.7799 H         1 UNK         0.0000 
     59 H59         4.4157   51.9651   28.7862 H         1 UNK         0.0000 
     60 H60         3.5037   52.0967   27.2854 H         1 UNK         0.0000 
     61 H61         7.4234   55.3040   22.6386 H         1 UNK         0.0000 
     62 H62         7.6228   55.6944   20.6822 H         1 UNK         0.0000 
     63 H63         4.2004   55.6965   19.2739 H         1 UNK         0.0000 
     64 H64         3.7345   56.2252   16.9482 H         1 UNK         0.0000 
     65 H65         5.5841   56.5876   15.3517 H         1 UNK         0.0000 
     66 H66         7.9101   56.3892   16.0890 H         1 UNK         0.0000 
@<TRIPOS>BOND
     1    1    2 1    
     2    1   39 1    
     3    1   40 1    
     4    1   41 1    
     5    2    3 1    
     6    2   42 1    
     7    2   43 1    
     8    3    4 1    
     9    3    5 1    
    10    3    6 1    
    11    5   44 1    
    12    5   45 1    
    13    5   46 1    
    14    6    7 am   BACKBONE|DICT|INTERRES
    15    6   47 1    
    16    7    8 2    
    17    7    9 1    
    18    9   14 ar   
    19    9   10 ar   
    20   10   11 ar   
    21   10   48 1    
    22   11   12 ar   
    23   11   25 1    
    24   12   13 ar   
    25   12   49 1    
    26   13   14 ar   
    27   13   50 1    
    28   14   15 1    
    29   15   24 1    
    30   15   16 1    
    31   16   17 1    
    32   16   51 1    
    33   16   52 1    
    34   17   18 1    
    35   17   53 1    
    36   17   54 1    
    37   18   23 ar   
    38   18   19 ar   
    39   19   20 ar   
    40   19   55 1    
    41   20   21 ar   
    42   20   56 1    
    43   21   22 ar   
    44   21   57 1    
    45   22   23 ar   
    46   22   58 1    
    47   23   24 1    
    48   24   59 1    
    49   24   60 1    
    50   25   26 am   BACKBONE|DICT|INTERRES
    51   25   61 1    
    52   26   27 2    
    53   26   28 am   BACKBONE|DICT|INTERRES
    54   28   29 1    
    55   28   62 1    
    56   29   34 ar   
    57   29   30 ar   
    58   30   31 ar   
    59   30   63 1    
    60   31   32 ar   
    61   31   64 1    
    62   32   33 ar   
    63   32   65 1    
    64   33   34 ar   
    65   33   66 1    
    66   34   35 1    
    67   35   36 1    
    68   35   37 1    
    69   35   38 1    
@<TRIPOS>SUBSTRUCTURE
     1 UNK         1 GROUP             0       ****    0 ROOT    
