ZINC13342192_5968
                    3D
 Schrodinger Suite 2024-2.
 51 53  0  0  1  0            999 V2000
    2.7213   52.9154   18.0525 C   0  0  0  0  0  0
    3.5989   53.2355   19.0164 C   0  0  0  0  0  0
    5.0890   52.9514   18.9515 C   0  0  0  0  0  0
    5.9267   54.1365   19.1453 N   0  0  0  0  0  0
    6.8091   54.7172   18.2553 C   0  0  0  0  0  0
    7.3951   55.7568   18.8025 N   0  0  0  0  0  0
    6.9199   55.8670   20.1031 N   0  0  0  0  0  0
    6.0721   54.8852   20.2953 C   0  0  0  0  0  0
    5.2985   54.4966   21.8309 S   0  0  0  0  0  0
    6.6034   55.0592   22.9858 C   0  0  0  0  0  0
    6.2716   54.9616   24.4817 C   0  0  0  0  0  0
    7.1044   55.3759   25.2837 O   0  0  0  0  0  0
    5.0689   54.4585   24.8273 N   0  0  0  0  0  0
    4.5355   54.0966   26.0834 C   0  0  0  0  0  0
    5.3464   54.0388   27.2303 C   0  0  0  0  0  0
    4.8419   53.5836   28.4382 C   0  0  0  0  0  0
    3.5168   53.1870   28.5380 C   0  0  0  0  0  0
    2.6882   53.2625   27.4222 C   0  0  0  0  0  0
    3.1697   53.6996   26.1726 C   0  0  0  0  0  0
    2.2190   53.6967   24.9938 C   0  0  0  0  0  0
    1.1042   53.1468   25.1415 O   0  0  0  0  0  0
    2.5761   54.2436   23.9248 O   0  5  0  0  0  0
    2.8575   52.4966   30.1845 Br  0  0  0  0  0  0
    7.1078   54.1773   16.8588 C   0  0  0  0  0  0
    7.7231   55.2249   15.8937 C   0  0  0  0  0  0
    7.9605   54.6420   14.4849 C   0  0  0  0  0  0
    8.8170   53.3623   14.5279 C   0  0  0  0  0  0
    8.2320   52.3167   15.4951 C   0  0  0  0  0  0
    7.9915   52.9019   16.9017 C   0  0  0  0  0  0
    1.6713   53.1454   18.1619 H   0  0  0  0  0  0
    3.0374   52.4186   17.1456 H   0  0  0  0  0  0
    3.2348   53.7204   19.9115 H   0  0  0  0  0  0
    5.3259   52.4967   17.9918 H   0  0  0  0  0  0
    5.3538   52.2189   19.7143 H   0  0  0  0  0  0
    7.5043   54.4747   22.8028 H   0  0  0  0  0  0
    6.8533   56.0967   22.7730 H   0  0  0  0  0  0
    4.3881   54.3437   24.0779 H   0  0  0  0  0  0
    6.3927   54.2944   27.2168 H   0  0  0  0  0  0
    5.5039   53.5144   29.2817 H   0  0  0  0  0  0
    1.6620   52.9394   27.5317 H   0  0  0  0  0  0
    6.1675   53.8842   16.3883 H   0  0  0  0  0  0
    8.6847   55.5699   16.2777 H   0  0  0  0  0  0
    7.0552   56.0817   15.7926 H   0  0  0  0  0  0
    8.4408   55.3880   13.8504 H   0  0  0  0  0  0
    7.0002   54.4199   14.0165 H   0  0  0  0  0  0
    9.8319   53.6154   14.8386 H   0  0  0  0  0  0
    8.9031   52.9370   13.5273 H   0  0  0  0  0  0
    8.8996   51.4564   15.5602 H   0  0  0  0  0  0
    7.2906   51.9370   15.0948 H   0  0  0  0  0  0
    7.5178   52.1181   17.4941 H   0  0  0  0  0  0
    8.9621   53.1333   17.3443 H   0  0  0  0  0  0
  1  2  2  0  0  0
  1 30  1  0  0  0
  1 31  1  0  0  0
  2  3  1  0  0  0
  2 32  1  0  0  0
  3  4  1  0  0  0
  3 33  1  0  0  0
  3 34  1  0  0  0
  4  8  1  0  0  0
  4  5  1  0  0  0
  5  6  2  0  0  0
  5 24  1  0  0  0
  6  7  1  0  0  0
  7  8  2  0  0  0
  8  9  1  0  0  0
  9 10  1  0  0  0
 10 11  1  0  0  0
 10 35  1  0  0  0
 10 36  1  0  0  0
 11 12  2  0  0  0
 11 13  1  0  0  0
 13 14  1  0  0  0
 13 37  1  0  0  0
 14 19  2  0  0  0
 14 15  1  0  0  0
 15 16  2  0  0  0
 15 38  1  0  0  0
 16 17  1  0  0  0
 16 39  1  0  0  0
 17 18  2  0  0  0
 17 23  1  0  0  0
 18 19  1  0  0  0
 18 40  1  0  0  0
 19 20  1  0  0  0
 20 21  2  0  0  0
 20 22  1  0  0  0
 24 29  1  0  0  0
 24 25  1  0  0  0
 24 41  1  0  0  0
 25 26  1  0  0  0
 25 42  1  0  0  0
 25 43  1  0  0  0
 26 27  1  0  0  0
 26 44  1  0  0  0
 26 45  1  0  0  0
 27 28  1  0  0  0
 27 46  1  0  0  0
 27 47  1  0  0  0
 28 29  1  0  0  0
 28 48  1  0  0  0
 28 49  1  0  0  0
 29 50  1  0  0  0
 29 51  1  0  0  0
M  CHG  1  22  -1
M  END
> <i_i_glide_confnum>
8

> <i_i_glide_lignum>
5969

> <i_i_glide_posenum>
378

> <i_i_glide_rotatable_bonds>
9

> <i_m_Source_File_Index>
2373

> <b_m_subgroup_collapsed>
0

> <r_i_docking_score>
-5.63974

> <r_i_glide_ecoul>
-6.24873

> <r_i_glide_eff_state_penalty>
0

> <r_i_glide_einternal>
6.67448

> <r_i_glide_emodel>
-64.246

> <r_i_glide_energy>
-47.4932

> <r_i_glide_erotb>
0.708376

> <r_i_glide_esite>
-0.0121758

> <r_i_glide_evdw>
-41.2444

> <r_i_glide_gscore>
-5.63974

> <r_i_glide_hbond>
-0.32

> <r_i_glide_ligand_efficiency>
-0.194474

> <r_i_glide_ligand_efficiency_ln>
-1.29136

> <r_i_glide_ligand_efficiency_sa>
-0.597485

> <r_i_glide_lipo>
-1.90103

> <r_i_glide_metal>
0

> <r_i_glide_rewards>
-1.11538

> <s_i_glide_gridfile>
wee1_glide-grid

> <s_m_Source_File>
wee1_decoys_glide_SP.sdf

> <s_m_Source_Path>
/Users/zhangxujun/Desktop

> <s_m_entry_id>
2648

> <s_m_entry_name>
wee1_decoys_glide_SP.2373

> <s_m_subgroup_title>
wee1_decoys_glide_SP

> <s_m_subgroupid>
wee1_decoys_glide_SP


$$$$
