@<TRIPOS>MOLECULE
ZINC39686999_3693
65   68    1
SMALL
USER_CHARGES


@<TRIPOS>ATOM
      1 C1          5.9190   53.8208   28.0277 C.3       1 UNK         0.0000 
      2 C2          4.4466   53.7047   27.6648 C.ar      1 UNK         0.0000 
      3 C3          4.0588   53.7636   26.3211 C.ar      1 UNK         0.0000 
      4 C4          2.7135   53.6283   25.9367 C.ar      1 UNK         0.0000 
      5 C5          1.7559   53.5417   26.9574 C.ar      1 UNK         0.0000 
      6 C6          2.1260   53.4772   28.2946 C.ar      1 UNK         0.0000 
      7 C7          3.4673   53.5241   28.6491 C.ar      1 UNK         0.0000 
      8 Br8         3.9041   53.2981   30.4817 Br        1 UNK         0.0000 
      9 C9          2.3684   53.5712   24.4552 C.2       1 UNK         0.0000 
     10 O10         3.1293   54.1349   23.6658 O.2       1 UNK         0.0000 
     11 N11         1.3070   52.8419   23.9994 N.am      1 UNK         0.0000 
     12 C12         1.1353   52.6028   22.5613 C.3       1 UNK         0.0000 
     13 C13        -0.1723   51.7879   22.4668 C.3       1 UNK         0.0000 
     14 H14        -0.9720   52.5164   22.3344 H         1 UNK         0.0000 
     15 C15        -0.2770   51.0286   23.8198 C.3       1 UNK         0.0000 
     16 C16         0.3358   52.0696   24.7846 C.3       1 UNK         0.0000 
     17 C17        -1.7397   50.6379   24.1559 C.3       1 UNK         0.0000 
     18 C18        -1.8679   50.0742   25.5829 C.3       1 UNK         0.0000 
     19 N19        -0.9900   48.8089   25.6817 N.4       1 UNK         0.0000 
     20 C20         0.4841   49.0205   25.2716 C.3       1 UNK         0.0000 
     21 C21         0.5286   49.6862   23.8723 C.3       1 UNK         0.0000 
     22 C22        -0.2050   50.8849   21.2055 C.2       1 UNK         0.0000 
     23 O23        -1.2429   50.2696   20.9720 O.2       1 UNK         0.0000 
     24 N24         0.8584   50.8209   20.3807 N.am      1 UNK         0.0000 
     25 C25         0.9591   49.9352   19.2197 C.3       1 UNK         0.0000 
     26 H26        -0.0303   49.8476   18.7612 H         1 UNK         0.0000 
     27 C27         1.8692   50.5688   18.1555 C.3       1 UNK         0.0000 
     28 C28         1.4335   48.5208   19.6417 C.3       1 UNK         0.0000 
     29 C29         1.0538   47.4261   18.6504 C.ar      1 UNK         0.0000 
     30 C30         1.9034   47.1341   17.5797 C.ar      1 UNK         0.0000 
     31 C31         1.5657   46.1473   16.6548 C.ar      1 UNK         0.0000 
     32 C32         0.3756   45.4346   16.8002 C.ar      1 UNK         0.0000 
     33 C33        -0.4757   45.7160   17.8689 C.ar      1 UNK         0.0000 
     34 C34        -0.1401   46.7060   18.7931 C.ar      1 UNK         0.0000 
     35 F35        -0.9769   46.9581   19.8267 F         1 UNK         0.0000 
     36 H36         6.2709   52.8962   28.4807 H         1 UNK         0.0000 
     37 H37         6.5452   54.0388   27.1644 H         1 UNK         0.0000 
     38 H38         6.0653   54.6164   28.7580 H         1 UNK         0.0000 
     39 H39         4.8275   53.8644   25.5651 H         1 UNK         0.0000 
     40 H40         0.7042   53.5100   26.7495 H         1 UNK         0.0000 
     41 H41         1.3708   53.3664   29.0586 H         1 UNK         0.0000 
     42 H42         1.9995   51.9966   22.2837 H         1 UNK         0.0000 
     43 H43         1.1072   53.5235   21.9736 H         1 UNK         0.0000 
     44 H44        -0.4727   52.7565   25.0373 H         1 UNK         0.0000 
     45 H45         0.7044   51.6097   25.6990 H         1 UNK         0.0000 
     46 H46        -2.3692   51.5260   24.1038 H         1 UNK         0.0000 
     47 H47        -2.1554   49.9511   23.4163 H         1 UNK         0.0000 
     48 H48        -1.5210   50.7550   26.3610 H         1 UNK         0.0000 
     49 H49        -2.8824   49.7526   25.8238 H         1 UNK         0.0000 
     50 H50        -1.0333   48.4848   26.6534 H         1 UNK         0.0000 
     51 H51         0.9473   49.5993   26.0684 H         1 UNK         0.0000 
     52 H52         0.9383   48.0305   25.2813 H         1 UNK         0.0000 
     53 H53         0.1806   48.9790   23.1178 H         1 UNK         0.0000 
     54 H54         1.5761   49.8708   23.6242 H         1 UNK         0.0000 
     55 H55         1.6436   51.4333   20.5385 H         1 UNK         0.0000 
     56 H56         1.9057   49.9527   17.2582 H         1 UNK         0.0000 
     57 H57         1.5148   51.5558   17.8535 H         1 UNK         0.0000 
     58 H58         2.8990   50.6593   18.5030 H         1 UNK         0.0000 
     59 H59         1.0126   48.2484   20.6105 H         1 UNK         0.0000 
     60 H60         2.5135   48.5157   19.8021 H         1 UNK         0.0000 
     61 H61         2.8246   47.6851   17.4622 H         1 UNK         0.0000 
     62 H62         2.2314   45.9389   15.8280 H         1 UNK         0.0000 
     63 H63         0.1113   44.6717   16.0815 H         1 UNK         0.0000 
     64 H64        -1.4021   45.1721   17.9823 H         1 UNK         0.0000 
     65 H65        -1.3946   48.0730   25.1215 H         1 UNK         0.0000 
@<TRIPOS>BOND
     1    1    2 1    
     2    1   36 1    
     3    1   37 1    
     4    1   38 1    
     5    2    7 ar   
     6    2    3 ar   
     7    3    4 ar   
     8    3   39 1    
     9    4    5 ar   
    10    4    9 1    
    11    5    6 ar   
    12    5   40 1    
    13    6    7 ar   
    14    6   41 1    
    15    7    8 1    
    16    9   10 2    
    17    9   11 am   BACKBONE|DICT|INTERRES
    18   11   16 1    
    19   11   12 1    
    20   12   13 1    
    21   12   42 1    
    22   12   43 1    
    23   13   14 1    
    24   13   15 1    
    25   13   22 1    
    26   15   21 1    
    27   15   16 1    
    28   15   17 1    
    29   16   44 1    
    30   16   45 1    
    31   17   18 1    
    32   17   46 1    
    33   17   47 1    
    34   18   19 1    
    35   18   48 1    
    36   18   49 1    
    37   19   20 1    
    38   19   50 1    
    39   19   65 1    
    40   20   21 1    
    41   20   51 1    
    42   20   52 1    
    43   21   53 1    
    44   21   54 1    
    45   22   23 2    
    46   22   24 am   BACKBONE|DICT|INTERRES
    47   24   25 1    
    48   24   55 1    
    49   25   26 1    
    50   25   27 1    
    51   25   28 1    
    52   27   56 1    
    53   27   57 1    
    54   27   58 1    
    55   28   29 1    
    56   28   59 1    
    57   28   60 1    
    58   29   34 ar   
    59   29   30 ar   
    60   30   31 ar   
    61   30   61 1    
    62   31   32 ar   
    63   31   62 1    
    64   32   33 ar   
    65   32   63 1    
    66   33   34 ar   
    67   33   64 1    
    68   34   35 1    
@<TRIPOS>SUBSTRUCTURE
     1 UNK         1 GROUP             0       ****    0 ROOT    
