@<TRIPOS>MOLECULE
ZINC02399267_1963
41   43    1
SMALL
USER_CHARGES


@<TRIPOS>ATOM
      1 C1          6.0783   54.3734   26.3758 C.3       1 UNK         0.0000 
      2 O2          6.7155   55.0809   25.3178 O.3       1 UNK         0.0000 
      3 C3          6.3190   54.8428   24.0147 C.ar      1 UNK         0.0000 
      4 C4          6.9867   55.5445   23.0219 C.ar      1 UNK         0.0000 
      5 C5          6.6540   55.4013   21.6815 C.ar      1 UNK         0.0000 
      6 C6          5.6658   54.4883   21.2662 C.ar      1 UNK         0.0000 
      7 C7          5.0108   53.7630   22.2861 C.ar      1 UNK         0.0000 
      8 C8          5.3116   53.9545   23.6333 C.ar      1 UNK         0.0000 
      9 N9          5.3931   54.2660   19.8604 N.am      1 UNK         0.0000 
     10 C10         6.1984   54.6229   18.8355 C.2       1 UNK         0.0000 
     11 O11         7.3191   55.1408   18.8479 O.2       1 UNK         0.0000 
     12 C12         5.4189   54.2245   17.5914 C.3       1 UNK         0.0000 
     13 N13         4.3569   53.3987   18.0099 N.2       1 UNK         0.0000 
     14 C14         4.3353   53.5862   19.3120 C.2       1 UNK         0.0000 
     15 O15         3.4102   53.1358   19.9825 O.2       1 UNK         0.0000 
     16 C16         6.4074   53.4804   16.6140 C.3       1 UNK         0.0000 
     17 F17         7.3032   54.3141   16.0739 F         1 UNK         0.0000 
     18 F18         7.1038   52.4968   17.1913 F         1 UNK         0.0000 
     19 F19         5.7608   52.9357   15.5775 F         1 UNK         0.0000 
     20 N20         4.8021   55.3348   16.8218 N.am      1 UNK         0.0000 
     21 C21         4.6829   56.6641   17.0240 C.2       1 UNK         0.0000 
     22 O22         5.1034   57.2580   18.0173 O.2       1 UNK         0.0000 
     23 C23         3.9272   57.4003   15.9416 C.ar      1 UNK         0.0000 
     24 C24         3.9459   56.9580   14.6074 C.ar      1 UNK         0.0000 
     25 C25         3.2379   57.6481   13.6266 C.ar      1 UNK         0.0000 
     26 C26         2.5109   58.7845   13.9680 C.ar      1 UNK         0.0000 
     27 C27         2.4883   59.2370   15.2827 C.ar      1 UNK         0.0000 
     28 C28         3.1952   58.5499   16.2658 C.ar      1 UNK         0.0000 
     29 F29         1.8229   59.4520   13.0140 F         1 UNK         0.0000 
     30 H30         6.5131   54.6817   27.3272 H         1 UNK         0.0000 
     31 H31         5.0095   54.5894   26.4152 H         1 UNK         0.0000 
     32 H32         6.2228   53.2962   26.2812 H         1 UNK         0.0000 
     33 H33         7.7881   56.2060   23.3010 H         1 UNK         0.0000 
     34 H34         7.2063   56.0113   20.9862 H         1 UNK         0.0000 
     35 H35         4.2654   53.0136   22.0813 H         1 UNK         0.0000 
     36 H36         4.7719   53.3756   24.3666 H         1 UNK         0.0000 
     37 H37         4.2593   54.9841   16.0492 H         1 UNK         0.0000 
     38 H38         4.5142   56.0863   14.3128 H         1 UNK         0.0000 
     39 H39         3.2547   57.3074   12.6019 H         1 UNK         0.0000 
     40 H40         1.9360   60.1270   15.5443 H         1 UNK         0.0000 
     41 H41         3.1671   58.9282   17.2784 H         1 UNK         0.0000 
@<TRIPOS>BOND
     1    1    2 1    
     2    1   30 1    
     3    1   31 1    
     4    1   32 1    
     5    2    3 1    
     6    3    8 ar   
     7    3    4 ar   
     8    4    5 ar   
     9    4   33 1    
    10    5    6 ar   
    11    5   34 1    
    12    6    7 ar   
    13    6    9 1    
    14    7    8 ar   
    15    7   35 1    
    16    8   36 1    
    17    9   14 am   BACKBONE|DICT|INTERRES
    18    9   10 am   BACKBONE|DICT|INTERRES
    19   10   11 2    
    20   10   12 1    
    21   12   13 1    
    22   12   16 1    
    23   12   20 1    
    24   13   14 1    
    25   14   15 2    
    26   16   17 1    
    27   16   18 1    
    28   16   19 1    
    29   20   21 am   BACKBONE|DICT|INTERRES
    30   20   37 1    
    31   21   22 2    
    32   21   23 1    
    33   23   28 ar   
    34   23   24 ar   
    35   24   25 ar   
    36   24   38 1    
    37   25   26 ar   
    38   25   39 1    
    39   26   27 ar   
    40   26   29 1    
    41   27   28 ar   
    42   27   40 1    
    43   28   41 1    
@<TRIPOS>SUBSTRUCTURE
     1 UNK         1 GROUP             0       ****    0 ROOT    
