@<TRIPOS>MOLECULE
ZINC02085596_4470
67   71    1
SMALL
USER_CHARGES


@<TRIPOS>ATOM
      1 C1          0.7695   52.0393   13.1640 C.3       1 UNK         0.0000 
      2 C2          1.6233   52.5267   14.3192 C.ar      1 UNK         0.0000 
      3 C3          2.0553   53.8528   14.3535 C.ar      1 UNK         0.0000 
      4 C4          2.8554   54.2957   15.4019 C.ar      1 UNK         0.0000 
      5 C5          3.2309   53.4257   16.4356 C.ar      1 UNK         0.0000 
      6 C6          2.7899   52.0970   16.3871 C.ar      1 UNK         0.0000 
      7 C7          1.9958   51.6481   15.3363 C.ar      1 UNK         0.0000 
      8 C8          4.0867   53.8946   17.5648 C.ar      1 UNK         0.0000 
      9 C9          3.8886   53.4496   18.8700 C.ar      1 UNK         0.0000 
     10 C10         4.6920   53.9093   19.9229 C.ar      1 UNK         0.0000 
     11 C11         5.7766   54.8100   19.5930 C.ar      1 UNK         0.0000 
     12 C12         6.7644   55.2950   20.5074 C.ar      1 UNK         0.0000 
     13 C13         7.8136   56.0970   20.0810 C.ar      1 UNK         0.0000 
     14 C14         7.9031   56.4978   18.7568 C.ar      1 UNK         0.0000 
     15 C15         6.9540   56.0781   17.8302 C.ar      1 UNK         0.0000 
     16 C16         5.9004   55.2183   18.2236 C.ar      1 UNK         0.0000 
     17 N17         5.0561   54.7859   17.2511 N.ar      1 UNK         0.0000 
     18 C18         4.3390   53.4281   21.3177 C.2       1 UNK         0.0000 
     19 O19         3.8862   52.2931   21.4860 O.2       1 UNK         0.0000 
     20 N20         4.5184   54.3106   22.3193 N.am      1 UNK         0.0000 
     21 C21         4.1718   54.0976   23.6495 C.2       1 UNK         0.0000 
     22 C22         4.9455   54.3637   24.7956 C.2       1 UNK         0.0000 
     23 C23         4.2070   54.1495   25.9881 C.2       1 UNK         0.0000 
     24 C24         2.9035   53.6901   25.7376 C.2       1 UNK         0.0000 
     25 S25         2.5540   53.5926   24.0472 S.3       1 UNK         0.0000 
     26 C26         1.8734   53.3259   26.8035 C.3       1 UNK         0.0000 
     27 C27         2.5843   53.1584   28.1798 C.3       1 UNK         0.0000 
     28 H28         3.2035   52.2593   28.1346 H         1 UNK         0.0000 
     29 C29         3.5287   54.3714   28.3953 C.3       1 UNK         0.0000 
     30 C30         4.7158   54.3608   27.4177 C.3       1 UNK         0.0000 
     31 C31         1.5879   52.9263   29.3771 C.3       1 UNK         0.0000 
     32 C32         2.3768   52.4611   30.6224 C.3       1 UNK         0.0000 
     33 C33         0.5587   51.8175   29.0418 C.3       1 UNK         0.0000 
     34 C34         0.8061   54.2104   29.7476 C.3       1 UNK         0.0000 
     35 C35         6.3157   54.8266   24.7814 C.2       1 UNK         0.0000 
     36 O36         6.7409   55.6919   25.5424 O.2       1 UNK         0.0000 
     37 N37         7.1037   54.2188   23.8930 N.am      1 UNK         0.0000 
     38 H38         1.1792   52.3897   12.2162 H         1 UNK         0.0000 
     39 H39         0.7362   50.9510   13.1101 H         1 UNK         0.0000 
     40 H40        -0.2479   52.4219   13.2503 H         1 UNK         0.0000 
     41 H41         1.7767   54.5395   13.5671 H         1 UNK         0.0000 
     42 H42         3.1794   55.3284   15.4122 H         1 UNK         0.0000 
     43 H43         3.0898   51.3904   17.1524 H         1 UNK         0.0000 
     44 H44         1.6846   50.6128   15.3148 H         1 UNK         0.0000 
     45 H45         3.0793   52.7611   19.0681 H         1 UNK         0.0000 
     46 H46         6.7654   54.9875   21.5349 H         1 UNK         0.0000 
     47 H47         8.5774   56.4036   20.7814 H         1 UNK         0.0000 
     48 H48         8.7203   57.1288   18.4406 H         1 UNK         0.0000 
     49 H49         7.0384   56.3805   16.7954 H         1 UNK         0.0000 
     50 H50         5.1689   55.0578   22.1425 H         1 UNK         0.0000 
     51 H51         1.3745   52.3984   26.5199 H         1 UNK         0.0000 
     52 H52         1.1071   54.0966   26.8619 H         1 UNK         0.0000 
     53 H53         2.9743   55.3102   28.3689 H         1 UNK         0.0000 
     54 H54         3.9667   54.3449   29.3916 H         1 UNK         0.0000 
     55 H55         5.2635   55.2967   27.5267 H         1 UNK         0.0000 
     56 H56         5.4096   53.5615   27.6831 H         1 UNK         0.0000 
     57 H57         1.7192   52.1969   31.4548 H         1 UNK         0.0000 
     58 H58         3.0482   53.2389   30.9766 H         1 UNK         0.0000 
     59 H59         2.9971   51.5963   30.3975 H         1 UNK         0.0000 
     60 H60        -0.1279   52.1212   28.2517 H         1 UNK         0.0000 
     61 H61         1.0456   50.8976   28.7193 H         1 UNK         0.0000 
     62 H62        -0.0608   51.5705   29.9056 H         1 UNK         0.0000 
     63 H63         0.3044   54.6315   28.8805 H         1 UNK         0.0000 
     64 H64         0.0445   54.0133   30.5042 H         1 UNK         0.0000 
     65 H65         1.4559   54.9874   30.1502 H         1 UNK         0.0000 
     66 H66         6.7533   53.4403   23.3569 H         1 UNK         0.0000 
     67 H67         8.0775   54.5035   23.8056 H         1 UNK         0.0000 
@<TRIPOS>BOND
     1    1    2 1    
     2    1   38 1    
     3    1   39 1    
     4    1   40 1    
     5    2    7 ar   
     6    2    3 ar   
     7    3    4 ar   
     8    3   41 1    
     9    4    5 ar   
    10    4   42 1    
    11    5    6 ar   
    12    5    8 1    
    13    6    7 ar   
    14    6   43 1    
    15    7   44 1    
    16    8   17 ar   
    17    8    9 ar   
    18    9   10 ar   
    19    9   45 1    
    20   10   11 ar   
    21   10   18 1    
    22   11   16 ar   
    23   11   12 ar   
    24   12   13 ar   
    25   12   46 1    
    26   13   14 ar   
    27   13   47 1    
    28   14   15 ar   
    29   14   48 1    
    30   15   16 ar   
    31   15   49 1    
    32   16   17 ar   
    33   18   19 2    
    34   18   20 am   BACKBONE|DICT|INTERRES
    35   20   21 am   BACKBONE|DICT|INTERRES
    36   20   50 1    
    37   21   25 1    
    38   21   22 2    
    39   22   23 1    
    40   22   35 1    
    41   23   30 1    
    42   23   24 2    
    43   24   25 1    
    44   24   26 1    
    45   26   27 1    
    46   26   51 1    
    47   26   52 1    
    48   27   28 1    
    49   27   29 1    
    50   27   31 1    
    51   29   30 1    
    52   29   53 1    
    53   29   54 1    
    54   30   55 1    
    55   30   56 1    
    56   31   32 1    
    57   31   33 1    
    58   31   34 1    
    59   32   57 1    
    60   32   58 1    
    61   32   59 1    
    62   33   60 1    
    63   33   61 1    
    64   33   62 1    
    65   34   63 1    
    66   34   64 1    
    67   34   65 1    
    68   35   36 2    
    69   35   37 am   BACKBONE|DICT|INTERRES
    70   37   66 1    
    71   37   67 1    
@<TRIPOS>SUBSTRUCTURE
     1 UNK         1 GROUP             0       ****    0 ROOT    
