@<TRIPOS>MOLECULE
ZINC34681347_166
60   63    1
SMALL
USER_CHARGES


@<TRIPOS>ATOM
      1 C1          3.8372   52.2098   31.0301 C.3       1 UNK         0.0000 
      2 C2          2.6748   52.8688   30.2975 C.ar      1 UNK         0.0000 
      3 C3          1.3770   52.4962   30.6659 C.ar      1 UNK         0.0000 
      4 C4          0.2708   53.0378   30.0176 C.ar      1 UNK         0.0000 
      5 C5          0.4522   53.9753   29.0064 C.ar      1 UNK         0.0000 
      6 C6          1.7367   54.3862   28.6560 C.ar      1 UNK         0.0000 
      7 C7          2.8628   53.8339   29.2821 C.ar      1 UNK         0.0000 
      8 C8          4.2423   54.2944   28.8564 C.2       1 UNK         0.0000 
      9 O9          4.9254   54.8963   29.6807 O.2       1 UNK         0.0000 
     10 N10         4.6826   54.0311   27.5914 N.am      1 UNK         0.0000 
     11 C11         6.0217   54.5281   27.1977 C.3       1 UNK         0.0000 
     12 C12         6.4697   54.3509   25.7259 C.3       1 UNK         0.0000 
     13 C13         5.6129   55.0831   24.6764 C.3       1 UNK         0.0000 
     14 N14         4.3257   54.4214   24.3683 N.pl3     1 UNK         0.0000 
     15 C15         3.3432   54.2531   25.4609 C.3       1 UNK         0.0000 
     16 C16         3.8380   53.3492   26.6017 C.3       1 UNK         0.0000 
     17 C17         4.0710   53.7747   23.0874 C.ar      1 UNK         0.0000 
     18 C18         5.0247   53.6535   22.0583 C.ar      1 UNK         0.0000 
     19 C19         4.7038   52.9914   20.8642 C.ar      1 UNK         0.0000 
     20 C20         3.4258   52.4541   20.6763 C.ar      1 UNK         0.0000 
     21 C21         2.4946   52.5928   21.7156 C.ar      1 UNK         0.0000 
     22 N22         2.8512   53.2334   22.8456 N.pl3     1 UNK         0.0000 
     23 N23         3.1604   51.7921   19.4600 N.am      1 UNK         0.0000 
     24 C24         1.9620   51.4834   18.9248 C.2       1 UNK         0.0000 
     25 O25         0.8701   51.7168   19.4501 O.2       1 UNK         0.0000 
     26 N26         2.1118   50.8983   17.7217 N.am      1 UNK         0.0000 
     27 C27         1.0657   50.5003   16.8750 C.ar      1 UNK         0.0000 
     28 C28         1.1042   49.1941   16.3734 C.ar      1 UNK         0.0000 
     29 C29         0.1188   48.7543   15.4915 C.ar      1 UNK         0.0000 
     30 C30        -0.8996   49.6176   15.0935 C.ar      1 UNK         0.0000 
     31 C31        -0.9290   50.9284   15.5679 C.ar      1 UNK         0.0000 
     32 C32         0.0540   51.3786   16.4474 C.ar      1 UNK         0.0000 
     33 F33         0.0220   52.6712   16.8532 F         1 UNK         0.0000 
     34 F34        -1.8508   49.1882   14.2360 F         1 UNK         0.0000 
     35 H35         4.3046   52.9370   31.6887 H         1 UNK         0.0000 
     36 H36         3.5228   51.3610   31.6418 H         1 UNK         0.0000 
     37 H37         4.5901   51.8491   30.3280 H         1 UNK         0.0000 
     38 H38         1.2113   51.7791   31.4601 H         1 UNK         0.0000 
     39 H39        -0.7223   52.7257   30.3050 H         1 UNK         0.0000 
     40 H40        -0.4039   54.3902   28.4937 H         1 UNK         0.0000 
     41 H41         1.8459   55.1343   27.8839 H         1 UNK         0.0000 
     42 H42         6.0451   55.5969   27.4204 H         1 UNK         0.0000 
     43 H43         6.7663   54.0713   27.8503 H         1 UNK         0.0000 
     44 H44         7.4865   54.7434   25.6474 H         1 UNK         0.0000 
     45 H45         6.5667   53.2974   25.4735 H         1 UNK         0.0000 
     46 H46         5.3770   56.0930   25.0159 H         1 UNK         0.0000 
     47 H47         6.1882   55.2231   23.7645 H         1 UNK         0.0000 
     48 H48         2.3784   53.8961   25.1062 H         1 UNK         0.0000 
     49 H49         3.1199   55.2492   25.8402 H         1 UNK         0.0000 
     50 H50         4.4419   52.5521   26.1804 H         1 UNK         0.0000 
     51 H51         3.0014   52.8092   27.0437 H         1 UNK         0.0000 
     52 H52         6.0242   54.0432   22.1528 H         1 UNK         0.0000 
     53 H53         5.4476   52.9035   20.0860 H         1 UNK         0.0000 
     54 H54         1.4832   52.2135   21.7003 H         1 UNK         0.0000 
     55 H55         3.9712   51.5591   18.8931 H         1 UNK         0.0000 
     56 H56         3.0275   50.5305   17.4803 H         1 UNK         0.0000 
     57 H57         1.9046   48.5259   16.6604 H         1 UNK         0.0000 
     58 H58         0.1456   47.7433   15.1107 H         1 UNK         0.0000 
     59 H59        -1.7078   51.5993   15.2378 H         1 UNK         0.0000 
     60 H60         2.1531   53.3144   23.5700 H         1 UNK         0.0000 
@<TRIPOS>BOND
     1    1    2 1    
     2    1   35 1    
     3    1   36 1    
     4    1   37 1    
     5    2    7 ar   
     6    2    3 ar   
     7    3    4 ar   
     8    3   38 1    
     9    4    5 ar   
    10    4   39 1    
    11    5    6 ar   
    12    5   40 1    
    13    6    7 ar   
    14    6   41 1    
    15    7    8 1    
    16    8    9 2    
    17    8   10 am   BACKBONE|DICT|INTERRES
    18   10   16 1    
    19   10   11 1    
    20   11   12 1    
    21   11   42 1    
    22   11   43 1    
    23   12   13 1    
    24   12   44 1    
    25   12   45 1    
    26   13   14 1    
    27   13   46 1    
    28   13   47 1    
    29   14   15 1    
    30   14   17 1    
    31   15   16 1    
    32   15   48 1    
    33   15   49 1    
    34   16   50 1    
    35   16   51 1    
    36   17   22 ar   
    37   17   18 ar   
    38   18   19 ar   
    39   18   52 1    
    40   19   20 ar   
    41   19   53 1    
    42   20   21 ar   
    43   20   23 1    
    44   21   22 ar   
    45   21   54 1    
    46   22   60 1    
    47   23   24 am   BACKBONE|DICT|INTERRES
    48   23   55 1    
    49   24   25 2    
    50   24   26 am   BACKBONE|DICT|INTERRES
    51   26   27 1    
    52   26   56 1    
    53   27   32 ar   
    54   27   28 ar   
    55   28   29 ar   
    56   28   57 1    
    57   29   30 ar   
    58   29   58 1    
    59   30   31 ar   
    60   30   34 1    
    61   31   32 ar   
    62   31   59 1    
    63   32   33 1    
@<TRIPOS>SUBSTRUCTURE
     1 UNK         1 GROUP             0       ****    0 ROOT    
