@<TRIPOS>MOLECULE
ZINC34923748_5642
60   63    1
SMALL
USER_CHARGES


@<TRIPOS>ATOM
      1 C1          5.6289   53.6492   16.8805 C.3       1 UNK         0.0000 
      2 C2          5.8994   54.1889   18.2713 C.ar      1 UNK         0.0000 
      3 C3          7.1164   54.8059   18.5687 C.ar      1 UNK         0.0000 
      4 C4          7.3629   55.2970   19.8518 C.ar      1 UNK         0.0000 
      5 C5          6.3863   55.1641   20.8433 C.ar      1 UNK         0.0000 
      6 C6          5.1687   54.5351   20.5586 C.ar      1 UNK         0.0000 
      7 C7          4.9244   54.0726   19.2647 C.ar      1 UNK         0.0000 
      8 N8          4.1415   54.4097   21.5074 N.pl3     1 UNK         0.0000 
      9 C9          4.1502   54.0967   22.8523 C.2       1 UNK         0.0000 
     10 O10         5.3173   53.7408   23.2658 O.co2     1 UNK         0.0000 
     11 C11         2.9819   54.1775   23.5157 C.2       1 UNK         0.0000 
     12 C12         2.7176   53.8361   24.9044 C.2       1 UNK         0.0000 
     13 C13         3.6086   54.0126   25.8969 C.2       1 UNK         0.0000 
     14 S14         3.0318   53.4670   27.4681 S.3       1 UNK         0.0000 
     15 C15         1.4983   52.9784   26.7186 C.2       1 UNK         0.0000 
     16 N16         0.5160   52.4896   27.3723 N.2       1 UNK         0.0000 
     17 C17        -0.6624   52.2415   26.7211 C.2       1 UNK         0.0000 
     18 C18        -0.8478   52.4956   25.3823 C.2       1 UNK         0.0000 
     19 C19         0.3741   52.8882   24.4945 C.3       1 UNK         0.0000 
     20 H20         0.1159   53.7990   23.9500 H         1 UNK         0.0000 
     21 N21         1.5382   53.2579   25.3548 N.pl3     1 UNK         0.0000 
     22 C22         0.7539   51.8092   23.4551 C.ar      1 UNK         0.0000 
     23 C23         0.9050   52.1716   22.1099 C.ar      1 UNK         0.0000 
     24 C24         1.2890   51.2301   21.1589 C.ar      1 UNK         0.0000 
     25 C25         1.5079   49.9099   21.5385 C.ar      1 UNK         0.0000 
     26 C26         1.3254   49.5298   22.8664 C.ar      1 UNK         0.0000 
     27 C27         0.9355   50.4655   23.8357 C.ar      1 UNK         0.0000 
     28 O28         0.7042   50.1459   25.1594 O.3       1 UNK         0.0000 
     29 C29         0.6790   48.8031   25.6155 C.3       1 UNK         0.0000 
     30 C30        -2.1072   52.2958   24.6322 C.2       1 UNK         0.0000 
     31 O31        -2.3327   52.8887   23.5722 O.2       1 UNK         0.0000 
     32 O32        -2.9472   51.3815   25.1654 O.3       1 UNK         0.0000 
     33 C33        -4.1792   51.0658   24.5334 C.3       1 UNK         0.0000 
     34 C34        -1.7018   51.7547   27.7278 C.3       1 UNK         0.0000 
     35 C35         8.7048   55.9244   20.1678 C.3       1 UNK         0.0000 
     36 H36         4.6549   53.9905   16.5255 H         1 UNK         0.0000 
     37 H37         5.6101   52.5572   16.8947 H         1 UNK         0.0000 
     38 H38         6.3762   53.9830   16.1584 H         1 UNK         0.0000 
     39 H39         7.8769   54.8926   17.8052 H         1 UNK         0.0000 
     40 H40         6.5762   55.5428   21.8363 H         1 UNK         0.0000 
     41 H41         3.9791   53.6022   19.0298 H         1 UNK         0.0000 
     42 H42         3.2374   54.3199   21.0692 H         1 UNK         0.0000 
     43 H43         2.1275   54.5345   22.9589 H         1 UNK         0.0000 
     44 H44         4.6014   54.4231   25.7898 H         1 UNK         0.0000 
     45 H45         0.7488   53.1908   21.7938 H         1 UNK         0.0000 
     46 H46         1.4252   51.5260   20.1301 H         1 UNK         0.0000 
     47 H47         1.8156   49.1818   20.8014 H         1 UNK         0.0000 
     48 H48         1.5025   48.4973   23.1284 H         1 UNK         0.0000 
     49 H49         0.0184   48.7575   26.4803 H         1 UNK         0.0000 
     50 H50         0.2932   48.0866   24.8908 H         1 UNK         0.0000 
     51 H51         1.6648   48.4988   25.9576 H         1 UNK         0.0000 
     52 H52        -4.7367   50.3576   25.1491 H         1 UNK         0.0000 
     53 H53        -4.7954   51.9570   24.3987 H         1 UNK         0.0000 
     54 H54        -4.0111   50.6094   23.5564 H         1 UNK         0.0000 
     55 H55        -2.7068   52.0962   27.4833 H         1 UNK         0.0000 
     56 H56        -1.7042   50.6647   27.7465 H         1 UNK         0.0000 
     57 H57        -1.4992   52.0963   28.7439 H         1 UNK         0.0000 
     58 H58         8.8705   56.0316   21.2420 H         1 UNK         0.0000 
     59 H59         9.5034   55.2897   19.7797 H         1 UNK         0.0000 
     60 H60         8.8007   56.8967   19.6798 H         1 UNK         0.0000 
@<TRIPOS>BOND
     1    1    2 1    
     2    1   36 1    
     3    1   37 1    
     4    1   38 1    
     5    2    7 ar   
     6    2    3 ar   
     7    3    4 ar   
     8    3   39 1    
     9    4    5 ar   
    10    4   35 1    
    11    5    6 ar   
    12    5   40 1    
    13    6    7 ar   
    14    6    8 1    
    15    7   41 1    
    16    8    9 1    
    17    8   42 1    
    18    9   10 1    
    19    9   11 2    
    20   11   12 1    
    21   11   43 1    
    22   12   21 1    
    23   12   13 2    
    24   13   14 1    
    25   13   44 1    
    26   14   15 1    
    27   15   21 1    
    28   15   16 2    
    29   16   17 1    
    30   17   18 2    
    31   17   34 1    
    32   18   19 1    
    33   18   30 1    
    34   19   20 1    
    35   19   21 1    
    36   19   22 1    
    37   22   27 ar   
    38   22   23 ar   
    39   23   24 ar   
    40   23   45 1    
    41   24   25 ar   
    42   24   46 1    
    43   25   26 ar   
    44   25   47 1    
    45   26   27 ar   
    46   26   48 1    
    47   27   28 1    
    48   28   29 1    
    49   29   49 1    
    50   29   50 1    
    51   29   51 1    
    52   30   31 2    
    53   30   32 1    
    54   32   33 1    
    55   33   52 1    
    56   33   53 1    
    57   33   54 1    
    58   34   55 1    
    59   34   56 1    
    60   34   57 1    
    61   35   58 1    
    62   35   59 1    
    63   35   60 1    
@<TRIPOS>SUBSTRUCTURE
     1 UNK         1 GROUP             0       ****    0 ROOT    
