@<TRIPOS>MOLECULE
ZINC32795224_4438
44   46    1
SMALL
USER_CHARGES


@<TRIPOS>ATOM
      1 C1          3.1841   53.8828   23.4172 C.3       1 UNK         0.0000 
      2 C2          4.4600   54.1605   24.1919 C.2       1 UNK         0.0000 
      3 C3          4.5591   54.1712   25.6248 C.ar      1 UNK         0.0000 
      4 C4          3.6684   53.9749   26.6953 C.ar      1 UNK         0.0000 
      5 C5          4.1564   54.0579   28.0033 C.ar      1 UNK         0.0000 
      6 C6          5.5023   54.3231   28.2604 C.ar      1 UNK         0.0000 
      7 C7          6.4139   54.5161   27.2235 C.ar      1 UNK         0.0000 
      8 C8          5.9120   54.4449   25.9192 C.ar      1 UNK         0.0000 
      9 O9          6.6280   54.6333   24.7790 O.3       1 UNK         0.0000 
     10 C10         5.7519   54.4967   23.7357 C.2       1 UNK         0.0000 
     11 C11         6.3021   54.7077   22.4120 C.2       1 UNK         0.0000 
     12 O12         7.5043   54.8967   22.2402 O.2       1 UNK         0.0000 
     13 N13         5.4064   54.6915   21.4007 N.am      1 UNK         0.0000 
     14 N14         5.8139   54.8850   20.0679 N.am      1 UNK         0.0000 
     15 C15         6.2278   56.0936   19.6269 C.2       1 UNK         0.0000 
     16 O16         6.3044   57.1096   20.3201 O.2       1 UNK         0.0000 
     17 N17         6.4998   56.0676   18.3115 N.am      1 UNK         0.0000 
     18 C18         6.1160   57.1005   17.3331 C.3       1 UNK         0.0000 
     19 H19         6.6376   56.7877   16.4269 H         1 UNK         0.0000 
     20 C20         6.6940   58.4978   17.6668 C.3       1 UNK         0.0000 
     21 C21         4.6235   57.0893   16.9297 C.ar      1 UNK         0.0000 
     22 C22         3.8305   55.9465   17.1328 C.ar      1 UNK         0.0000 
     23 C23         2.4896   55.9227   16.7524 C.ar      1 UNK         0.0000 
     24 C24         1.9184   57.0397   16.1485 C.ar      1 UNK         0.0000 
     25 C25         2.6862   58.1820   15.9362 C.ar      1 UNK         0.0000 
     26 C26         4.0240   58.2112   16.3333 C.ar      1 UNK         0.0000 
     27 Br27        1.9039   59.6959   15.0880 Br        1 UNK         0.0000 
     28 H28         2.5839   54.7854   23.2981 H         1 UNK         0.0000 
     29 H29         3.3579   53.4721   22.4237 H         1 UNK         0.0000 
     30 H30         2.5593   53.1523   23.9316 H         1 UNK         0.0000 
     31 H31         2.6260   53.7607   26.5110 H         1 UNK         0.0000 
     32 H32         3.4794   53.9116   28.8329 H         1 UNK         0.0000 
     33 H33         5.8486   54.3912   29.2814 H         1 UNK         0.0000 
     34 H34         7.4531   54.7250   27.4268 H         1 UNK         0.0000 
     35 H35         4.4039   54.7058   21.5233 H         1 UNK         0.0000 
     36 H36         5.9432   54.0203   19.5633 H         1 UNK         0.0000 
     37 H37         6.7431   55.1742   17.9106 H         1 UNK         0.0000 
     38 H38         6.7048   59.1560   16.7977 H         1 UNK         0.0000 
     39 H39         6.1164   58.9962   18.4464 H         1 UNK         0.0000 
     40 H40         7.7246   58.4279   18.0161 H         1 UNK         0.0000 
     41 H41         4.2441   55.0554   17.5797 H         1 UNK         0.0000 
     42 H42         1.8971   55.0354   16.9218 H         1 UNK         0.0000 
     43 H43         0.8821   57.0226   15.8457 H         1 UNK         0.0000 
     44 H44         4.5836   59.1185   16.1557 H         1 UNK         0.0000 
@<TRIPOS>BOND
     1    1    2 1    
     2    1   28 1    
     3    1   29 1    
     4    1   30 1    
     5    2   10 2    
     6    2    3 1    
     7    3    8 ar   
     8    3    4 ar   
     9    4    5 ar   
    10    4   31 1    
    11    5    6 ar   
    12    5   32 1    
    13    6    7 ar   
    14    6   33 1    
    15    7    8 ar   
    16    7   34 1    
    17    8    9 1    
    18    9   10 1    
    19   10   11 1    
    20   11   12 2    
    21   11   13 am   BACKBONE|DICT|INTERRES
    22   13   14 1    
    23   13   35 1    
    24   14   15 am   BACKBONE|DICT|INTERRES
    25   14   36 1    
    26   15   16 2    
    27   15   17 am   BACKBONE|DICT|INTERRES
    28   17   18 1    
    29   17   37 1    
    30   18   19 1    
    31   18   20 1    
    32   18   21 1    
    33   20   38 1    
    34   20   39 1    
    35   20   40 1    
    36   21   26 ar   
    37   21   22 ar   
    38   22   23 ar   
    39   22   41 1    
    40   23   24 ar   
    41   23   42 1    
    42   24   25 ar   
    43   24   43 1    
    44   25   26 ar   
    45   25   27 1    
    46   26   44 1    
@<TRIPOS>SUBSTRUCTURE
     1 UNK         1 GROUP             0       ****    0 ROOT    
