@<TRIPOS>MOLECULE
ZINC44006032_3948
56   58    1
SMALL
USER_CHARGES


@<TRIPOS>ATOM
      1 C1          3.2131   58.0088   15.9139 C.3       1 UNK         0.0000 
      2 C2          4.4604   57.7284   16.7297 C.ar      1 UNK         0.0000 
      3 C3          5.6112   58.4961   16.5328 C.ar      1 UNK         0.0000 
      4 C4          6.7600   58.2543   17.2904 C.ar      1 UNK         0.0000 
      5 C5          6.7506   57.2495   18.2603 C.ar      1 UNK         0.0000 
      6 C6          5.5917   56.4879   18.4790 C.ar      1 UNK         0.0000 
      7 C7          4.4624   56.7083   17.6847 C.ar      1 UNK         0.0000 
      8 N8          5.5045   55.5003   19.4732 N.am      1 UNK         0.0000 
      9 C9          6.0349   55.5695   20.7096 C.2       1 UNK         0.0000 
     10 O10         6.7313   56.4967   21.1292 O.2       1 UNK         0.0000 
     11 N11         5.7151   54.4973   21.4490 N.am      1 UNK         0.0000 
     12 C12         6.4469   54.0961   22.6504 C.3       1 UNK         0.0000 
     13 C13         5.9770   54.7484   23.9669 C.3       1 UNK         0.0000 
     14 C14         4.5273   54.3847   24.3482 C.3       1 UNK         0.0000 
     15 C15         4.1090   55.0106   25.6977 C.3       1 UNK         0.0000 
     16 N16         5.0944   54.5704   26.7098 N.am      1 UNK         0.0000 
     17 C17         6.4833   55.0105   26.4625 C.3       1 UNK         0.0000 
     18 C18         6.8961   54.3604   25.1335 C.3       1 UNK         0.0000 
     19 C19         4.7455   54.0916   27.9321 C.2       1 UNK         0.0000 
     20 O20         5.5281   54.0935   28.8816 O.2       1 UNK         0.0000 
     21 N21         3.4885   53.6030   28.0169 N.am      1 UNK         0.0000 
     22 C22         2.8265   53.1418   29.1611 C.ar      1 UNK         0.0000 
     23 C23         3.4876   52.4964   30.2146 C.ar      1 UNK         0.0000 
     24 C24         2.7675   52.0967   31.3323 C.ar      1 UNK         0.0000 
     25 C25         1.3961   52.3252   31.3888 C.ar      1 UNK         0.0000 
     26 C26         0.7271   52.9302   30.3302 C.ar      1 UNK         0.0000 
     27 C27         1.4442   53.3369   29.2082 C.ar      1 UNK         0.0000 
     28 F28         0.7088   51.9409   32.4815 F         1 UNK         0.0000 
     29 C29         8.0095   59.0825   17.0561 C.3       1 UNK         0.0000 
     30 H30         2.5825   57.1221   15.8298 H         1 UNK         0.0000 
     31 H31         3.4786   58.3082   14.8987 H         1 UNK         0.0000 
     32 H32         2.6394   58.8169   16.3706 H         1 UNK         0.0000 
     33 H33         5.6054   59.2957   15.8049 H         1 UNK         0.0000 
     34 H34         7.6420   57.0702   18.8436 H         1 UNK         0.0000 
     35 H35         3.5687   56.1211   17.8417 H         1 UNK         0.0000 
     36 H36         4.8570   54.7499   19.2840 H         1 UNK         0.0000 
     37 H37         4.9851   53.8786   21.1296 H         1 UNK         0.0000 
     38 H38         6.3075   53.0184   22.7454 H         1 UNK         0.0000 
     39 H39         7.5261   54.2143   22.5260 H         1 UNK         0.0000 
     40 H40         6.0619   55.8302   23.8853 H         1 UNK         0.0000 
     41 H41         3.8443   54.6939   23.5566 H         1 UNK         0.0000 
     42 H42         4.4119   53.2983   24.3991 H         1 UNK         0.0000 
     43 H43         4.1778   56.0957   25.6820 H         1 UNK         0.0000 
     44 H44         3.0782   54.7432   25.9206 H         1 UNK         0.0000 
     45 H45         6.5065   56.0964   26.3751 H         1 UNK         0.0000 
     46 H46         7.1756   54.7079   27.2503 H         1 UNK         0.0000 
     47 H47         6.9463   53.2827   25.2513 H         1 UNK         0.0000 
     48 H48         7.9044   54.6577   24.8818 H         1 UNK         0.0000 
     49 H49         2.9166   53.6857   27.1913 H         1 UNK         0.0000 
     50 H50         4.5488   52.3029   30.1809 H         1 UNK         0.0000 
     51 H51         3.2681   51.6213   32.1625 H         1 UNK         0.0000 
     52 H52        -0.3410   53.0816   30.3871 H         1 UNK         0.0000 
     53 H53         0.9233   53.8169   28.3923 H         1 UNK         0.0000 
     54 H54         8.8999   58.5938   17.4549 H         1 UNK         0.0000 
     55 H55         8.1739   59.2236   15.9873 H         1 UNK         0.0000 
     56 H56         7.9047   60.0691   17.5095 H         1 UNK         0.0000 
@<TRIPOS>BOND
     1    1    2 1    
     2    1   30 1    
     3    1   31 1    
     4    1   32 1    
     5    2    7 ar   
     6    2    3 ar   
     7    3    4 ar   
     8    3   33 1    
     9    4    5 ar   
    10    4   29 1    
    11    5    6 ar   
    12    5   34 1    
    13    6    7 ar   
    14    6    8 1    
    15    7   35 1    
    16    8    9 am   BACKBONE|DICT|INTERRES
    17    8   36 1    
    18    9   10 2    
    19    9   11 am   BACKBONE|DICT|INTERRES
    20   11   12 1    
    21   11   37 1    
    22   12   13 1    
    23   12   38 1    
    24   12   39 1    
    25   13   18 1    
    26   13   14 1    
    27   13   40 1    
    28   14   15 1    
    29   14   41 1    
    30   14   42 1    
    31   15   16 1    
    32   15   43 1    
    33   15   44 1    
    34   16   17 1    
    35   16   19 am   BACKBONE|DICT|INTERRES
    36   17   18 1    
    37   17   45 1    
    38   17   46 1    
    39   18   47 1    
    40   18   48 1    
    41   19   20 2    
    42   19   21 am   BACKBONE|DICT|INTERRES
    43   21   22 1    
    44   21   49 1    
    45   22   27 ar   
    46   22   23 ar   
    47   23   24 ar   
    48   23   50 1    
    49   24   25 ar   
    50   24   51 1    
    51   25   26 ar   
    52   25   28 1    
    53   26   27 ar   
    54   26   52 1    
    55   27   53 1    
    56   29   54 1    
    57   29   55 1    
    58   29   56 1    
@<TRIPOS>SUBSTRUCTURE
     1 UNK         1 GROUP             0       ****    0 ROOT    
