@<TRIPOS>MOLECULE
ZINC10354491_3367
48   50    1
SMALL
USER_CHARGES


@<TRIPOS>ATOM
      1 C1          0.8590   52.6176   31.9532 C.3       1 UNK         0.0000 
      2 C2          0.9936   52.8735   30.4783 C.2       1 UNK         0.0000 
      3 C3          0.4660   52.2830   29.3585 C.2       1 UNK         0.0000 
      4 C4          1.0454   52.9483   28.2862 C.2       1 UNK         0.0000 
      5 N5          1.8389   53.9228   28.6932 N.2       1 UNK         0.0000 
      6 O6          1.8175   53.8803   30.0882 O.3       1 UNK         0.0000 
      7 N7          0.7973   52.5827   26.9804 N.am      1 UNK         0.0000 
      8 C8          1.5083   52.8967   25.8733 C.2       1 UNK         0.0000 
      9 O9          2.4499   53.6909   25.9006 O.2       1 UNK         0.0000 
     10 C10         1.0923   52.1622   24.6664 C.2       1 UNK         0.0000 
     11 C11         1.2897   52.5753   23.3695 C.2       1 UNK         0.0000 
     12 N12         0.9281   51.7666   22.2756 N.pl3     1 UNK         0.0000 
     13 C13         0.5225   50.4441   22.4457 C.2       1 UNK         0.0000 
     14 S14         0.1311   49.2968   21.2930 S.2       1 UNK         0.0000 
     15 N15         0.4325   50.0085   23.7300 N.pl3     1 UNK         0.0000 
     16 C16         0.2603   50.8653   24.9046 C.3       1 UNK         0.0000 
     17 H17         0.6932   50.3220   25.7461 H         1 UNK         0.0000 
     18 C18        -1.2097   51.0940   25.2839 C.ar      1 UNK         0.0000 
     19 C19        -1.8586   50.1538   26.0817 C.ar      1 UNK         0.0000 
     20 C20        -3.1761   50.3545   26.4832 C.ar      1 UNK         0.0000 
     21 C21        -3.8717   51.4963   26.0850 C.ar      1 UNK         0.0000 
     22 C22        -3.2401   52.4537   25.2695 C.ar      1 UNK         0.0000 
     23 C23        -1.9210   52.2194   24.8522 C.ar      1 UNK         0.0000 
     24 N24        -3.9232   53.6873   24.8226 N.pl3     1 UNK         0.0000 
     25 O25        -3.6947   54.0793   23.6822 O.co2     1 UNK         0.0000 
     26 O26        -4.6305   54.3008   25.6181 O.co2     1 UNK         0.0000 
     27 Br27       -5.6860   51.6741   26.6554 Br        1 UNK         0.0000 
     28 C28         0.9923   52.2519   20.8648 C.3       1 UNK         0.0000 
     29 C29         2.3277   52.0968   20.1381 C.2       1 UNK         0.0000 
     30 C30         3.4127   51.4376   20.5769 C.2       1 UNK         0.0000 
     31 C31         1.9489   53.9136   22.9734 C.3       1 UNK         0.0000 
     32 H32         0.3057   51.6963   32.1320 H         1 UNK         0.0000 
     33 H33         0.3179   53.4152   32.4638 H         1 UNK         0.0000 
     34 H34         1.8257   52.4969   32.4403 H         1 UNK         0.0000 
     35 H35        -0.2204   51.4495   29.3296 H         1 UNK         0.0000 
     36 H36         0.0594   51.9054   26.8603 H         1 UNK         0.0000 
     37 H37         0.1877   49.0313   23.8051 H         1 UNK         0.0000 
     38 H38        -1.3343   49.2757   26.4313 H         1 UNK         0.0000 
     39 H39        -3.6470   49.6205   27.1200 H         1 UNK         0.0000 
     40 H40        -1.4331   52.9472   24.2191 H         1 UNK         0.0000 
     41 H41         0.2138   51.8275   20.2311 H         1 UNK         0.0000 
     42 H42         0.7164   53.2966   20.8313 H         1 UNK         0.0000 
     43 H43         2.3787   52.5719   19.1683 H         1 UNK         0.0000 
     44 H44         4.3047   51.3863   19.9699 H         1 UNK         0.0000 
     45 H45         3.4306   50.9379   21.5335 H         1 UNK         0.0000 
     46 H46         2.3383   54.5255   23.7778 H         1 UNK         0.0000 
     47 H47         2.7881   53.7554   22.2953 H         1 UNK         0.0000 
     48 H48         1.2228   54.5582   22.4802 H         1 UNK         0.0000 
@<TRIPOS>BOND
     1    1    2 1    
     2    1   32 1    
     3    1   33 1    
     4    1   34 1    
     5    2    6 1    
     6    2    3 2    
     7    3    4 1    
     8    3   35 1    
     9    4    5 2    
    10    4    7 1    
    11    5    6 1    
    12    7    8 am   BACKBONE|DICT|INTERRES
    13    7   36 1    
    14    8    9 2    
    15    8   10 1    
    16   10   16 1    
    17   10   11 2    
    18   11   12 1    
    19   11   31 1    
    20   12   13 1    
    21   12   28 1    
    22   13   14 2    
    23   13   15 1    
    24   15   16 1    
    25   15   37 1    
    26   16   17 1    
    27   16   18 1    
    28   18   23 ar   
    29   18   19 ar   
    30   19   20 ar   
    31   19   38 1    
    32   20   21 ar   
    33   20   39 1    
    34   21   22 ar   
    35   21   27 1    
    36   22   23 ar   
    37   22   24 1    
    38   23   40 1    
    39   24   25 2    
    40   24   26 1    
    41   28   29 1    
    42   28   41 1    
    43   28   42 1    
    44   29   30 2    
    45   29   43 1    
    46   30   44 1    
    47   30   45 1    
    48   31   46 1    
    49   31   47 1    
    50   31   48 1    
@<TRIPOS>SUBSTRUCTURE
     1 UNK         1 GROUP             0       ****    0 ROOT    
