ZINC21492520_77
                    3D
 Schrodinger Suite 2024-2.
 62 66  0  0  1  0            999 V2000
   -2.4102   50.8882   25.7652 C   0  0  0  0  0  0
   -1.4172   50.1755   24.8215 C   0  0  2  0  0  0
   -1.4666   50.7009   23.8655 H   0  0  0  0  0  0
   -1.8032   48.7262   24.5205 C   0  0  0  0  0  0
   -1.7570   48.3458   23.3452 O   0  0  0  0  0  0
   -2.1355   47.9497   25.5813 N   0  0  0  0  0  0
   -2.8012   46.7840   25.5158 C   0  0  0  0  0  0
   -2.9316   46.0971   24.5018 O   0  0  0  0  0  0
   -3.4299   46.5130   26.6708 N   0  0  0  0  0  0
   -4.7715   45.9190   26.7961 C   0  0  0  0  0  0
   -5.1935   45.9081   28.2978 C   0  0  0  0  0  0
   -6.6097   45.2924   28.4848 C   0  0  2  0  0  0
   -6.6173   43.8356   27.9493 C   0  0  0  0  0  0
   -6.2484   43.8351   26.4501 C   0  0  2  0  0  0
   -4.8327   44.4400   26.2859 C   0  0  0  0  0  0
   -7.2733   44.6854   25.6582 C   0  0  0  0  0  0
   -7.2722   46.1392   26.1965 C   0  0  1  0  0  0
   -7.6435   46.1359   27.7000 C   0  0  0  0  0  0
   -5.8547   46.7456   26.0214 C   0  0  0  0  0  0
    0.3044   50.2068   25.3832 S   0  0  0  0  0  0
    0.8459   51.7222   24.6520 C   0  0  0  0  0  0
    0.8527   51.9456   23.3551 N   0  0  0  0  0  0
    1.3954   53.1407   23.2038 C   0  0  0  0  0  0
    1.7421   53.6953   24.4243 C   0  0  0  0  0  0
    1.3582   52.7837   25.3757 N   0  0  0  0  0  0
    1.4744   52.8970   26.7749 C   0  0  0  0  0  0
    0.3536   52.6540   27.5712 C   0  0  0  0  0  0
    0.4651   52.6602   28.9524 C   0  0  0  0  0  0
    1.7049   52.9192   29.5521 C   0  0  0  0  0  0
    2.8163   53.1997   28.7526 C   0  0  0  0  0  0
    2.7067   53.1966   27.3635 C   0  0  0  0  0  0
    1.9050   52.8964   30.9138 O   0  0  0  0  0  0
    0.7868   52.6759   31.7772 C   0  0  0  0  0  0
   -3.4447   50.7389   25.4458 H   0  0  0  0  0  0
   -2.3249   50.5302   26.7923 H   0  0  0  0  0  0
   -2.2346   51.9617   25.7673 H   0  0  0  0  0  0
   -2.0197   48.3449   26.5115 H   0  0  0  0  0  0
   -3.0214   46.8764   27.5247 H   0  0  0  0  0  0
   -4.4514   45.3592   28.8802 H   0  0  0  0  0  0
   -5.1828   46.9256   28.6959 H   0  0  0  0  0  0
   -6.8956   45.2984   29.5352 H   0  0  0  0  0  0
   -5.9009   43.2126   28.4816 H   0  0  0  0  0  0
   -7.5959   43.3743   28.1015 H   0  0  0  0  0  0
   -6.2545   42.8100   26.0762 H   0  0  0  0  0  0
   -4.5673   44.3837   25.2316 H   0  0  0  0  0  0
   -4.1009   43.8306   26.8224 H   0  0  0  0  0  0
   -7.0312   44.6768   24.5952 H   0  0  0  0  0  0
   -8.2716   44.2526   25.7444 H   0  0  0  0  0  0
   -7.9962   46.7366   25.6421 H   0  0  0  0  0  0
   -8.6464   45.7323   27.8406 H   0  0  0  0  0  0
   -7.6703   47.1553   28.0855 H   0  0  0  0  0  0
   -5.8527   47.7818   26.3654 H   0  0  0  0  0  0
   -5.6140   46.7884   24.9585 H   0  0  0  0  0  0
    1.5395   53.5835   22.2270 H   0  0  0  0  0  0
    2.2079   54.6308   24.6955 H   0  0  0  0  0  0
   -0.6034   52.4306   27.1286 H   0  0  0  0  0  0
   -0.4151   52.4373   29.5361 H   0  0  0  0  0  0
    3.7742   53.4013   29.2143 H   0  0  0  0  0  0
    3.5826   53.3811   26.7554 H   0  0  0  0  0  0
    1.1040   52.7125   32.8170 H   0  0  0  0  0  0
    0.3332   51.6972   31.6128 H   0  0  0  0  0  0
    0.0202   53.4441   31.6484 H   0  0  0  0  0  0
  1  2  1  0  0  0
  1 34  1  0  0  0
  1 35  1  0  0  0
  1 36  1  0  0  0
  2  3  1  0  0  0
  2  4  1  0  0  0
  2 20  1  0  0  0
  4  5  2  0  0  0
  4  6  1  0  0  0
  6  7  1  0  0  0
  6 37  1  0  0  0
  7  8  2  0  0  0
  7  9  1  0  0  0
  9 10  1  0  0  0
  9 38  1  0  0  0
 10 15  1  0  0  0
 10 19  1  0  0  0
 10 11  1  0  0  0
 11 12  1  0  0  0
 11 39  1  0  0  0
 11 40  1  0  0  0
 12 18  1  0  0  0
 12 13  1  0  0  0
 12 41  1  0  0  0
 13 14  1  0  0  0
 13 42  1  0  0  0
 13 43  1  0  0  0
 14 15  1  0  0  0
 14 16  1  0  0  0
 14 44  1  0  0  0
 15 45  1  0  0  0
 15 46  1  0  0  0
 16 17  1  0  0  0
 16 47  1  0  0  0
 16 48  1  0  0  0
 17 18  1  0  0  0
 17 19  1  0  0  0
 17 49  1  0  0  0
 18 50  1  0  0  0
 18 51  1  0  0  0
 19 52  1  0  0  0
 19 53  1  0  0  0
 20 21  1  0  0  0
 21 25  1  0  0  0
 21 22  2  0  0  0
 22 23  1  0  0  0
 23 24  2  0  0  0
 23 54  1  0  0  0
 24 25  1  0  0  0
 24 55  1  0  0  0
 25 26  1  0  0  0
 26 31  2  0  0  0
 26 27  1  0  0  0
 27 28  2  0  0  0
 27 56  1  0  0  0
 28 29  1  0  0  0
 28 57  1  0  0  0
 29 30  2  0  0  0
 29 32  1  0  0  0
 30 31  1  0  0  0
 30 58  1  0  0  0
 31 59  1  0  0  0
 32 33  1  0  0  0
 33 60  1  0  0  0
 33 61  1  0  0  0
 33 62  1  0  0  0
M  END
> <i_i_glide_confnum>
186

> <i_i_glide_lignum>
78

> <i_i_glide_posenum>
138

> <i_i_glide_rotatable_bonds>
9

> <i_m_Source_File_Index>
5818

> <b_m_subgroup_collapsed>
0

> <r_i_docking_score>
-4.72164

> <r_i_glide_ecoul>
-9.2422

> <r_i_glide_eff_state_penalty>
0

> <r_i_glide_einternal>
13.484

> <r_i_glide_emodel>
-50.0348

> <r_i_glide_energy>
-43.3155

> <r_i_glide_erotb>
0.680267

> <r_i_glide_esite>
-0.326104

> <r_i_glide_evdw>
-34.0733

> <r_i_glide_gscore>
-4.72164

> <r_i_glide_hbond>
-0.403059

> <r_i_glide_ligand_efficiency>
-0.147551

> <r_i_glide_ligand_efficiency_ln>
-1.0573

> <r_i_glide_ligand_efficiency_sa>
-0.468446

> <r_i_glide_lipo>
-1.34994

> <r_i_glide_metal>
0

> <r_i_glide_rewards>
-0.2328

> <s_i_glide_gridfile>
wee1_glide-grid

> <s_m_Source_File>
wee1_decoys_glide_SP.sdf

> <s_m_Source_Path>
/Users/zhangxujun/Desktop

> <s_m_entry_id>
6093

> <s_m_entry_name>
wee1_decoys_glide_SP.5818

> <s_m_subgroup_title>
wee1_decoys_glide_SP

> <s_m_subgroupid>
wee1_decoys_glide_SP


$$$$
