@<TRIPOS>MOLECULE
ZINC39939031_3332
59   63    1
SMALL
USER_CHARGES


@<TRIPOS>ATOM
      1 C1          0.8633   52.2508   21.5823 C.3       1 UNK         0.0000 
      2 C2          0.6331   51.9446   20.0954 C.3       1 UNK         0.0000 
      3 O3          0.3566   50.5637   19.8686 O.3       1 UNK         0.0000 
      4 C4         -0.8706   50.0271   20.1158 C.2       1 UNK         0.0000 
      5 O5         -1.8150   50.6850   20.5604 O.2       1 UNK         0.0000 
      6 C6         -0.9736   48.5547   19.8755 C.2       1 UNK         0.0000 
      7 C7         -0.2095   47.9440   18.9132 C.2       1 UNK         0.0000 
      8 O8         -0.2580   46.6287   18.5594 O.3       1 UNK         0.0000 
      9 C9         -1.0746   45.7912   19.2636 C.2       1 UNK         0.0000 
     10 N10        -1.4580   44.7233   18.6836 N.2       1 UNK         0.0000 
     11 C11        -2.3494   43.8403   19.2873 C.2       1 UNK         0.0000 
     12 S12        -2.8960   42.5233   18.4367 S.2       1 UNK         0.0000 
     13 N13        -2.7864   44.0147   20.5141 N.2       1 UNK         0.0000 
     14 C14        -2.4778   45.0600   21.2780 C.2       1 UNK         0.0000 
     15 O15        -2.8657   45.2092   22.4345 O.2       1 UNK         0.0000 
     16 C16        -1.5191   46.1564   20.6784 C.3       1 UNK         0.0000 
     17 H17        -0.6194   46.0712   21.2845 H         1 UNK         0.0000 
     18 C18        -1.9700   47.6827   20.7178 C.3       1 UNK         0.0000 
     19 C19        -2.1335   48.1384   22.1444 C.ar      1 UNK         0.0000 
     20 C20        -1.2191   48.3130   23.1831 C.ar      1 UNK         0.0000 
     21 C21        -1.6669   48.7779   24.4221 C.ar      1 UNK         0.0000 
     22 C22        -3.0300   49.0512   24.6164 C.ar      1 UNK         0.0000 
     23 C23        -3.9564   48.8829   23.5777 C.ar      1 UNK         0.0000 
     24 C24        -3.4631   48.4267   22.3520 C.ar      1 UNK         0.0000 
     25 N25        -4.2163   48.2120   21.1919 N.am      1 UNK         0.0000 
     26 C26        -3.4102   47.8581   20.1510 C.2       1 UNK         0.0000 
     27 O27        -3.7301   47.6889   18.9718 O.2       1 UNK         0.0000 
     28 C28        -5.6829   48.4981   21.1461 C.3       1 UNK         0.0000 
     29 C29        -6.2338   48.4020   22.6136 C.3       1 UNK         0.0000 
     30 C30        -5.4488   49.1503   23.7264 C.3       1 UNK         0.0000 
     31 H31        -5.7622   48.7064   24.6718 H         1 UNK         0.0000 
     32 C32        -5.7681   50.6556   23.8169 C.3       1 UNK         0.0000 
     33 C33        -6.4176   47.4015   20.3229 C.3       1 UNK         0.0000 
     34 C34        -5.8441   49.9185   20.5534 C.3       1 UNK         0.0000 
     35 C35        -0.6688   49.0189   25.5393 C.3       1 UNK         0.0000 
     36 N36         0.7159   48.5002   18.0663 N.pl3     1 UNK         0.0000 
     37 H37         1.1263   53.2996   21.7256 H         1 UNK         0.0000 
     38 H38         1.6741   51.6449   21.9878 H         1 UNK         0.0000 
     39 H39        -0.0304   52.0567   22.1778 H         1 UNK         0.0000 
     40 H40        -0.1670   52.5654   19.6926 H         1 UNK         0.0000 
     41 H41         1.5311   52.2007   19.5354 H         1 UNK         0.0000 
     42 H42        -0.1715   48.1061   23.0324 H         1 UNK         0.0000 
     43 H43        -3.3700   49.4015   25.5792 H         1 UNK         0.0000 
     44 H44        -6.2160   47.3448   22.8918 H         1 UNK         0.0000 
     45 H45        -7.2888   48.6838   22.6413 H         1 UNK         0.0000 
     46 H46        -5.3236   51.0910   24.7127 H         1 UNK         0.0000 
     47 H47        -5.3872   51.2212   22.9679 H         1 UNK         0.0000 
     48 H48        -6.8438   50.8289   23.8741 H         1 UNK         0.0000 
     49 H49        -7.5001   47.5040   20.4169 H         1 UNK         0.0000 
     50 H50        -6.2027   47.4642   19.2558 H         1 UNK         0.0000 
     51 H51        -6.1467   46.3963   20.6551 H         1 UNK         0.0000 
     52 H52        -6.8477   50.3112   20.7195 H         1 UNK         0.0000 
     53 H53        -5.1268   50.6257   20.9676 H         1 UNK         0.0000 
     54 H54        -5.6789   49.9083   19.4757 H         1 UNK         0.0000 
     55 H55         0.2863   49.3632   25.1387 H         1 UNK         0.0000 
     56 H56        -1.0197   49.7848   26.2354 H         1 UNK         0.0000 
     57 H57        -0.4930   48.0962   26.0889 H         1 UNK         0.0000 
     58 H58         0.9565   49.4806   18.1333 H         1 UNK         0.0000 
     59 H59         1.2376   47.9296   17.4153 H         1 UNK         0.0000 
@<TRIPOS>BOND
     1    1    2 1    
     2    1   37 1    
     3    1   38 1    
     4    1   39 1    
     5    2    3 1    
     6    2   40 1    
     7    2   41 1    
     8    3    4 1    
     9    4    5 2    
    10    4    6 1    
    11    6   18 1    
    12    6    7 2    
    13    7    8 1    
    14    7   36 1    
    15    8    9 1    
    16    9   16 1    
    17    9   10 2    
    18   10   11 1    
    19   11   12 2    
    20   11   13 1    
    21   13   14 1    
    22   14   15 2    
    23   14   16 1    
    24   16   17 1    
    25   16   18 1    
    26   18   26 1    
    27   18   19 1    
    28   19   24 ar   
    29   19   20 ar   
    30   20   21 ar   
    31   20   42 1    
    32   21   22 ar   
    33   21   35 1    
    34   22   23 ar   
    35   22   43 1    
    36   23   30 1    
    37   23   24 ar   
    38   24   25 1    
    39   25   26 am   BACKBONE|DICT|INTERRES
    40   25   28 1    
    41   26   27 2    
    42   28   29 1    
    43   28   33 1    
    44   28   34 1    
    45   29   30 1    
    46   29   44 1    
    47   29   45 1    
    48   30   31 1    
    49   30   32 1    
    50   32   46 1    
    51   32   47 1    
    52   32   48 1    
    53   33   49 1    
    54   33   50 1    
    55   33   51 1    
    56   34   52 1    
    57   34   53 1    
    58   34   54 1    
    59   35   55 1    
    60   35   56 1    
    61   35   57 1    
    62   36   58 1    
    63   36   59 1    
@<TRIPOS>SUBSTRUCTURE
     1 UNK         1 GROUP             0       ****    0 ROOT    
