ZINC36019094_327
                    3D
 Schrodinger Suite 2024-2.
 76 78  0  0  1  0            999 V2000
    7.0943   53.8981   27.9991 C   0  0  0  0  0  0
    5.9066   54.8544   28.2147 C   0  0  0  0  0  0
    4.7474   54.4817   27.4687 O   0  0  0  0  0  0
    4.0179   53.3973   27.7739 C   0  0  0  0  0  0
    4.3363   52.6672   28.7151 O   0  0  0  0  0  0
    2.8089   53.1208   26.9186 C   0  0  0  0  0  0
    2.4943   53.6739   25.7023 C   0  0  0  0  0  0
    1.3313   53.2972   25.0117 N   0  0  0  0  0  0
    0.3598   52.4960   25.5749 C   0  0  0  0  0  0
   -0.8241   52.4217   25.2367 O   0  0  0  0  0  0
    0.7209   51.8075   26.6734 N   0  0  0  0  0  0
    1.8148   52.1495   27.5932 C   0  0  2  0  0  0
    2.3017   51.1864   27.7685 H   0  0  0  0  0  0
    1.3176   52.6144   28.9648 C   0  0  0  0  0  0
    0.3801   53.6407   29.0983 C   0  0  0  0  0  0
    0.0427   54.0949   30.3706 C   0  0  0  0  0  0
    0.6208   53.5140   31.4966 C   0  0  0  0  0  0
    1.5406   52.4928   31.3667 C   0  0  0  0  0  0
    1.8951   52.0628   30.1037 C   0  0  0  0  0  0
    0.3043   54.0960   33.0819 Cl  0  0  0  0  0  0
    0.9285   53.7352   23.6378 C   0  0  0  0  0  0
    0.9176   52.6772   22.5278 C   0  0  0  0  0  0
    1.3316   51.4007   22.6181 C   0  0  0  0  0  0
    3.3342   54.7862   25.0336 C   0  0  0  0  0  0
    4.5510   54.2789   24.2157 N   0  3  2  0  0  0
    5.8555   55.0835   24.4748 C   0  0  0  0  0  0
    7.0807   54.3702   23.9382 C   0  0  0  0  0  0
    7.4130   54.7450   22.4813 C   0  0  0  0  0  0
    6.3044   54.5597   21.5193 N   0  0  0  0  0  0
    5.3082   53.5296   21.8501 C   0  0  0  0  0  0
    4.1664   54.0282   22.7368 C   0  0  0  0  0  0
    6.1601   55.3150   20.3944 C   0  0  0  0  0  0
    5.1298   55.2973   19.7183 O   0  0  0  0  0  0
    7.3073   55.8523   19.9174 N   0  0  0  0  0  0
    7.5472   56.4992   18.6139 C   0  0  0  0  0  0
    7.1547   55.5750   17.4331 C   0  0  0  0  0  0
    9.0620   56.7744   18.4980 C   0  0  0  0  0  0
    6.7806   57.8397   18.5083 C   0  0  0  0  0  0
    7.9755   54.3025   28.4815 H   0  0  0  0  0  0
    6.9115   52.9180   28.4375 H   0  0  0  0  0  0
    7.3243   53.7568   26.9437 H   0  0  0  0  0  0
    6.2092   55.8488   27.8899 H   0  0  0  0  0  0
    5.6644   54.9373   29.2776 H   0  0  0  0  0  0
    0.0246   51.1592   27.0157 H   0  0  0  0  0  0
   -0.0626   54.1042   28.2275 H   0  0  0  0  0  0
   -0.6581   54.8966   30.4824 H   0  0  0  0  0  0
    1.9958   52.0537   32.2438 H   0  0  0  0  0  0
    2.6414   51.2969   29.9992 H   0  0  0  0  0  0
   -0.0740   54.1606   23.6837 H   0  0  0  0  0  0
    1.5009   54.5639   23.2401 H   0  0  0  0  0  0
    0.5422   53.0138   21.5705 H   0  0  0  0  0  0
    1.2813   50.7439   21.7610 H   0  0  0  0  0  0
    1.7243   50.9864   23.5361 H   0  0  0  0  0  0
    2.7567   55.4454   24.3962 H   0  0  0  0  0  0
    3.6979   55.5192   25.7446 H   0  0  0  0  0  0
    5.8290   56.0965   24.0914 H   0  0  0  0  0  0
    5.9479   55.1549   25.5496 H   0  0  0  0  0  0
    7.9045   54.6132   24.5985 H   0  0  0  0  0  0
    6.9716   53.2957   24.0420 H   0  0  0  0  0  0
    8.2460   54.1034   22.1904 H   0  0  0  0  0  0
    7.7492   55.7849   22.4588 H   0  0  0  0  0  0
    5.7682   52.6206   22.2375 H   0  0  0  0  0  0
    4.8564   53.1864   20.9158 H   0  0  0  0  0  0
    3.4224   53.2397   22.7983 H   0  0  0  0  0  0
    3.6883   54.9231   22.3358 H   0  0  0  0  0  0
    8.1429   55.6707   20.4528 H   0  0  0  0  0  0
    6.0791   55.4018   17.3824 H   0  0  0  0  0  0
    7.4475   56.0059   16.4751 H   0  0  0  0  0  0
    7.6324   54.5959   17.5089 H   0  0  0  0  0  0
    9.4326   57.4128   19.2949 H   0  0  0  0  0  0
    9.6425   55.8524   18.5415 H   0  0  0  0  0  0
    9.3111   57.2667   17.5570 H   0  0  0  0  0  0
    7.0775   58.5419   19.2865 H   0  0  0  0  0  0
    6.9614   58.3335   17.5516 H   0  0  0  0  0  0
    5.7003   57.6988   18.5851 H   0  0  0  0  0  0
    4.7674   53.3734   24.6153 H   0  0  0  0  0  0
  1  2  1  0  0  0
  1 39  1  0  0  0
  1 40  1  0  0  0
  1 41  1  0  0  0
  2  3  1  0  0  0
  2 42  1  0  0  0
  2 43  1  0  0  0
  3  4  1  0  0  0
  4  5  2  0  0  0
  4  6  1  0  0  0
  6 12  1  0  0  0
  6  7  2  0  0  0
  7  8  1  0  0  0
  7 24  1  0  0  0
  8  9  1  0  0  0
  8 21  1  0  0  0
  9 10  2  0  0  0
  9 11  1  0  0  0
 11 12  1  0  0  0
 11 44  1  0  0  0
 12 13  1  0  0  0
 12 14  1  0  0  0
 14 19  2  0  0  0
 14 15  1  0  0  0
 15 16  2  0  0  0
 15 45  1  0  0  0
 16 17  1  0  0  0
 16 46  1  0  0  0
 17 18  2  0  0  0
 17 20  1  0  0  0
 18 19  1  0  0  0
 18 47  1  0  0  0
 19 48  1  0  0  0
 21 22  1  0  0  0
 21 49  1  0  0  0
 21 50  1  0  0  0
 22 23  2  0  0  0
 22 51  1  0  0  0
 23 52  1  0  0  0
 23 53  1  0  0  0
 24 25  1  0  0  0
 24 54  1  0  0  0
 24 55  1  0  0  0
 25 31  1  0  0  0
 25 26  1  0  0  0
 25 76  1  0  0  0
 26 27  1  0  0  0
 26 56  1  0  0  0
 26 57  1  0  0  0
 27 28  1  0  0  0
 27 58  1  0  0  0
 27 59  1  0  0  0
 28 29  1  0  0  0
 28 60  1  0  0  0
 28 61  1  0  0  0
 29 30  1  0  0  0
 29 32  1  0  0  0
 30 31  1  0  0  0
 30 62  1  0  0  0
 30 63  1  0  0  0
 31 64  1  0  0  0
 31 65  1  0  0  0
 32 33  2  0  0  0
 32 34  1  0  0  0
 34 35  1  0  0  0
 34 66  1  0  0  0
 35 36  1  0  0  0
 35 37  1  0  0  0
 35 38  1  0  0  0
 36 67  1  0  0  0
 36 68  1  0  0  0
 36 69  1  0  0  0
 37 70  1  0  0  0
 37 71  1  0  0  0
 37 72  1  0  0  0
 38 73  1  0  0  0
 38 74  1  0  0  0
 38 75  1  0  0  0
M  CHG  1  25   1
M  END
> <i_i_glide_confnum>
189

> <i_i_glide_lignum>
328

> <i_i_glide_posenum>
253

> <i_i_glide_rotatable_bonds>
11

> <i_m_Source_File_Index>
4639

> <b_m_subgroup_collapsed>
0

> <r_i_docking_score>
-4.67601

> <r_i_glide_ecoul>
1.7756

> <r_i_glide_eff_state_penalty>
0

> <r_i_glide_einternal>
9.10612

> <r_i_glide_emodel>
-45.5531

> <r_i_glide_energy>
-38.4933

> <r_i_glide_erotb>
0.653362

> <r_i_glide_esite>
0

> <r_i_glide_evdw>
-40.2689

> <r_i_glide_gscore>
-4.67601

> <r_i_glide_hbond>
0

> <r_i_glide_ligand_efficiency>
-0.126379

> <r_i_glide_ligand_efficiency_ln>
-1.01412

> <r_i_glide_ligand_efficiency_sa>
-0.421122

> <r_i_glide_lipo>
-2.59699

> <r_i_glide_metal>
0

> <r_i_glide_rewards>
-0.985285

> <s_i_glide_gridfile>
wee1_glide-grid

> <s_m_Source_File>
wee1_decoys_glide_SP.sdf

> <s_m_Source_Path>
/Users/zhangxujun/Desktop

> <s_m_entry_id>
4914

> <s_m_entry_name>
wee1_decoys_glide_SP.4639

> <s_m_subgroup_title>
wee1_decoys_glide_SP

> <s_m_subgroupid>
wee1_decoys_glide_SP


$$$$
