ZINC59489320_5112
                    3D
 Schrodinger Suite 2024-2.
 59 62  0  0  1  0            999 V2000
    4.4017   53.9764   19.3418 C   0  0  0  0  0  0
    5.5912   54.4976   20.1723 C   0  0  0  0  0  0
    6.7048   54.8972   19.6781 N   0  0  0  0  0  0
    6.9114   54.7715   18.3338 N   0  0  0  0  0  0
    8.0715   55.1220   17.7660 C   0  0  0  0  0  0
    9.1139   55.5942   18.4489 N   0  3  0  0  0  0
    8.2822   54.9739   16.0378 S   0  0  0  0  0  0
    6.7471   54.2374   15.3629 C   0  0  1  0  0  0
    5.9599   54.2124   16.1121 H   0  0  0  0  0  0
    6.2411   54.9530   14.1404 C   0  0  0  0  0  0
    6.1896   53.8925   13.0615 C   0  0  0  0  0  0
    5.7890   54.1050   11.9165 O   0  0  0  0  0  0
    6.6365   52.7169   13.5870 N   0  0  0  0  0  0
    7.0126   52.8184   14.8927 C   0  0  0  0  0  0
    7.4906   51.9378   15.6108 O   0  0  0  0  0  0
    6.6840   51.5110   12.8501 C   0  0  0  0  0  0
    5.9523   50.3982   13.2815 C   0  0  0  0  0  0
    5.9549   49.2284   12.5272 C   0  0  0  0  0  0
    6.6857   49.1558   11.3295 C   0  0  0  0  0  0
    7.4305   50.2608   10.9180 C   0  0  0  0  0  0
    7.4353   51.4324   11.6709 C   0  0  0  0  0  0
    6.7177   48.0482   10.4999 O   0  0  0  0  0  0
    5.9740   46.8965   10.8815 C   0  0  0  0  0  0
    5.4113   54.4966   21.6532 C   0  0  0  0  0  0
    4.2164   54.0757   22.2589 C   0  0  0  0  0  0
    4.0859   54.0330   23.6440 C   0  0  0  0  0  0
    5.1385   54.4188   24.4833 C   0  0  0  0  0  0
    6.3206   54.8680   23.8865 C   0  0  0  0  0  0
    6.4574   54.8965   22.5038 C   0  0  0  0  0  0
    5.0117   54.3401   25.9713 C   0  0  0  0  0  0
    3.7677   54.4966   26.5990 C   0  0  0  0  0  0
    3.6494   54.4322   27.9849 C   0  0  0  0  0  0
    4.7820   54.2085   28.7595 C   0  0  0  0  0  0
    6.0243   54.0357   28.1593 C   0  0  0  0  0  0
    6.1356   54.0966   26.7744 C   0  0  0  0  0  0
    4.1985   52.9303   19.5722 H   0  0  0  0  0  0
    3.5049   54.5644   19.5340 H   0  0  0  0  0  0
    4.5511   54.0161   18.2648 H   0  0  0  0  0  0
    6.1712   54.3670   17.7793 H   0  0  0  0  0  0
    9.9888   55.8062   17.9895 H   0  0  0  0  0  0
    5.2325   55.3463   14.2883 H   0  0  0  0  0  0
    6.8811   55.7760   13.8150 H   0  0  0  0  0  0
    5.3710   50.4377   14.1924 H   0  0  0  0  0  0
    5.3740   48.3943   12.8888 H   0  0  0  0  0  0
    8.0009   50.2178   10.0023 H   0  0  0  0  0  0
    8.0097   52.2813   11.3271 H   0  0  0  0  0  0
    6.1299   46.0921   10.1620 H   0  0  0  0  0  0
    6.3039   46.5296   11.8534 H   0  0  0  0  0  0
    4.9032   47.1058   10.9100 H   0  0  0  0  0  0
    3.3670   53.7551   21.6738 H   0  0  0  0  0  0
    3.1582   53.6675   24.0569 H   0  0  0  0  0  0
    7.1580   55.1920   24.4851 H   0  0  0  0  0  0
    7.4047   55.2340   22.1066 H   0  0  0  0  0  0
    2.8784   54.6771   26.0168 H   0  0  0  0  0  0
    2.6854   54.5614   28.4540 H   0  0  0  0  0  0
    4.6996   54.1661   29.8343 H   0  0  0  0  0  0
    6.8993   53.8576   28.7670 H   0  0  0  0  0  0
    7.1054   53.9325   26.3324 H   0  0  0  0  0  0
    9.0385   55.6785   19.4539 H   0  0  0  0  0  0
  1  2  1  0  0  0
  1 36  1  0  0  0
  1 37  1  0  0  0
  1 38  1  0  0  0
  2  3  2  0  0  0
  2 24  1  0  0  0
  3  4  1  0  0  0
  4  5  1  0  0  0
  4 39  1  0  0  0
  5  6  2  0  0  0
  5  7  1  0  0  0
  6 40  1  0  0  0
  6 59  1  0  0  0
  7  8  1  0  0  0
  8  9  1  0  0  0
  8 14  1  0  0  0
  8 10  1  0  0  0
 10 11  1  0  0  0
 10 41  1  0  0  0
 10 42  1  0  0  0
 11 12  2  0  0  0
 11 13  1  0  0  0
 13 14  1  0  0  0
 13 16  1  0  0  0
 14 15  2  0  0  0
 16 21  2  0  0  0
 16 17  1  0  0  0
 17 18  2  0  0  0
 17 43  1  0  0  0
 18 19  1  0  0  0
 18 44  1  0  0  0
 19 20  2  0  0  0
 19 22  1  0  0  0
 20 21  1  0  0  0
 20 45  1  0  0  0
 21 46  1  0  0  0
 22 23  1  0  0  0
 23 47  1  0  0  0
 23 48  1  0  0  0
 23 49  1  0  0  0
 24 29  2  0  0  0
 24 25  1  0  0  0
 25 26  2  0  0  0
 25 50  1  0  0  0
 26 27  1  0  0  0
 26 51  1  0  0  0
 27 28  2  0  0  0
 27 30  1  0  0  0
 28 29  1  0  0  0
 28 52  1  0  0  0
 29 53  1  0  0  0
 30 35  2  0  0  0
 30 31  1  0  0  0
 31 32  2  0  0  0
 31 54  1  0  0  0
 32 33  1  0  0  0
 32 55  1  0  0  0
 33 34  2  0  0  0
 33 56  1  0  0  0
 34 35  1  0  0  0
 34 57  1  0  0  0
 35 58  1  0  0  0
M  CHG  1   6   1
M  END
> <i_i_glide_confnum>
47

> <i_i_glide_lignum>
5113

> <i_i_glide_posenum>
364

> <i_i_glide_rotatable_bonds>
8

> <i_m_Source_File_Index>
439

> <b_m_subgroup_collapsed>
0

> <r_i_docking_score>
-5.68093

> <r_i_glide_ecoul>
-4.32849

> <r_i_glide_eff_state_penalty>
0

> <r_i_glide_einternal>
8.58553

> <r_i_glide_emodel>
-55.3116

> <r_i_glide_energy>
-42.1475

> <r_i_glide_erotb>
0.63139

> <r_i_glide_esite>
-0.00169522

> <r_i_glide_evdw>
-37.819

> <r_i_glide_gscore>
-5.68093

> <r_i_glide_hbond>
-0.205875

> <r_i_glide_ligand_efficiency>
-0.167086

> <r_i_glide_ligand_efficiency_ln>
-1.25508

> <r_i_glide_ligand_efficiency_sa>
-0.541294

> <r_i_glide_lipo>
-3.09767

> <r_i_glide_metal>
0

> <r_i_glide_rewards>
-0.466858

> <s_i_glide_gridfile>
wee1_glide-grid

> <s_m_Source_File>
wee1_decoys_glide_SP.sdf

> <s_m_Source_Path>
/Users/zhangxujun/Desktop

> <s_m_entry_id>
714

> <s_m_entry_name>
wee1_decoys_glide_SP.439

> <s_m_subgroup_title>
wee1_decoys_glide_SP

> <s_m_subgroupid>
wee1_decoys_glide_SP


$$$$
