@<TRIPOS>MOLECULE
ZINC13131859_3599
48   51    1
SMALL
USER_CHARGES


@<TRIPOS>ATOM
      1 C1          6.9906   53.4896   28.1790 C.3       1 UNK         0.0000 
      2 C2          6.7419   54.5369   27.0862 C.3       1 UNK         0.0000 
      3 C3          5.4852   54.3144   26.2548 C.ar      1 UNK         0.0000 
      4 C4          5.5432   54.4963   24.8715 C.ar      1 UNK         0.0000 
      5 C5          4.4148   54.2674   24.0896 C.ar      1 UNK         0.0000 
      6 C6          3.2150   53.8575   24.6801 C.ar      1 UNK         0.0000 
      7 C7          3.1563   53.6974   26.0713 C.ar      1 UNK         0.0000 
      8 C8          4.2807   53.9378   26.8543 C.ar      1 UNK         0.0000 
      9 C9          2.0078   53.5800   23.7778 C.3       1 UNK         0.0000 
     10 H10         1.9411   54.4725   23.1520 H         1 UNK         0.0000 
     11 C11         2.2193   52.3264   22.8941 C.3       1 UNK         0.0000 
     12 C12         1.0824   52.1109   21.8664 C.3       1 UNK         0.0000 
     13 H13         1.0930   52.9562   21.1790 H         1 UNK         0.0000 
     14 N14        -0.1747   52.2407   22.6234 N.pl3     1 UNK         0.0000 
     15 C15        -0.3373   52.8661   23.8378 C.ar      1 UNK         0.0000 
     16 N16        -1.5752   52.7809   24.2413 N.2       1 UNK         0.0000 
     17 C17        -2.1362   52.0985   23.2608 C.ar      1 UNK         0.0000 
     18 N18        -1.3796   51.8077   22.2262 N.2       1 UNK         0.0000 
     19 N19        -3.4285   51.6941   23.3315 N.pl3     1 UNK         0.0000 
     20 N20         0.7229   53.4674   24.4814 N.pl3     1 UNK         0.0000 
     21 C21         1.2781   50.8202   21.0463 C.ar      1 UNK         0.0000 
     22 C22         0.5651   49.6544   21.3720 C.ar      1 UNK         0.0000 
     23 C23         0.6927   48.4969   20.6133 C.ar      1 UNK         0.0000 
     24 C24         1.6077   48.4465   19.5690 C.ar      1 UNK         0.0000 
     25 C25         2.3637   49.5751   19.2694 C.ar      1 UNK         0.0000 
     26 C26         2.1923   50.7696   19.9727 C.ar      1 UNK         0.0000 
     27 C27         3.0154   51.9755   19.5307 C.3       1 UNK         0.0000 
     28 H28         7.1195   52.4967   27.7497 H         1 UNK         0.0000 
     29 H29         7.8917   53.7258   28.7479 H         1 UNK         0.0000 
     30 H30         6.1676   53.4454   28.8883 H         1 UNK         0.0000 
     31 H31         6.7033   55.5324   27.5291 H         1 UNK         0.0000 
     32 H32         7.6003   54.5033   26.4197 H         1 UNK         0.0000 
     33 H33         6.4641   54.7975   24.3934 H         1 UNK         0.0000 
     34 H34         4.4800   54.3989   23.0198 H         1 UNK         0.0000 
     35 H35         2.2471   53.3745   26.5568 H         1 UNK         0.0000 
     36 H36         4.2090   53.8090   27.9237 H         1 UNK         0.0000 
     37 H37         3.1771   52.3845   22.3795 H         1 UNK         0.0000 
     38 H38         2.3042   51.4413   23.5279 H         1 UNK         0.0000 
     39 H39        -3.9666   51.8284   24.1745 H         1 UNK         0.0000 
     40 H40        -3.8274   51.0912   22.6270 H         1 UNK         0.0000 
     41 H41         0.5421   54.2243   25.1185 H         1 UNK         0.0000 
     42 H42        -0.1141   49.6309   22.2100 H         1 UNK         0.0000 
     43 H43         0.1004   47.6321   20.8734 H         1 UNK         0.0000 
     44 H44         1.7428   47.5391   18.9980 H         1 UNK         0.0000 
     45 H45         3.1030   49.5234   18.4818 H         1 UNK         0.0000 
     46 H46         3.7947   52.2087   20.2555 H         1 UNK         0.0000 
     47 H47         3.5010   51.8015   18.5675 H         1 UNK         0.0000 
     48 H48         2.3890   52.8595   19.4034 H         1 UNK         0.0000 
@<TRIPOS>BOND
     1    1    2 1    
     2    1   28 1    
     3    1   29 1    
     4    1   30 1    
     5    2    3 1    
     6    2   31 1    
     7    2   32 1    
     8    3    8 ar   
     9    3    4 ar   
    10    4    5 ar   
    11    4   33 1    
    12    5    6 ar   
    13    5   34 1    
    14    6    7 ar   
    15    6    9 1    
    16    7    8 ar   
    17    7   35 1    
    18    8   36 1    
    19    9   10 1    
    20    9   20 1    
    21    9   11 1    
    22   11   12 1    
    23   11   37 1    
    24   11   38 1    
    25   12   13 1    
    26   12   14 1    
    27   12   21 1    
    28   14   18 ar   
    29   14   15 ar   
    30   15   16 ar   
    31   15   20 1    
    32   16   17 ar   
    33   17   18 ar   
    34   17   19 1    
    35   19   39 1    
    36   19   40 1    
    37   20   41 1    
    38   21   26 ar   
    39   21   22 ar   
    40   22   23 ar   
    41   22   42 1    
    42   23   24 ar   
    43   23   43 1    
    44   24   25 ar   
    45   24   44 1    
    46   25   26 ar   
    47   25   45 1    
    48   26   27 1    
    49   27   46 1    
    50   27   47 1    
    51   27   48 1    
@<TRIPOS>SUBSTRUCTURE
     1 UNK         1 GROUP             0       ****    0 ROOT    
