@<TRIPOS>MOLECULE
ZINC59019557_3036
53   56    1
SMALL
USER_CHARGES


@<TRIPOS>ATOM
      1 C1         -2.6628   56.5720   15.9258 C.3       1 UNK         0.0000 
      2 C2         -1.1607   56.7526   16.0270 C.ar      1 UNK         0.0000 
      3 C3         -0.5440   57.8212   15.3780 C.ar      1 UNK         0.0000 
      4 C4          0.8338   57.9947   15.4810 C.ar      1 UNK         0.0000 
      5 C5          1.6135   57.1078   16.2400 C.ar      1 UNK         0.0000 
      6 C6          0.9797   56.0367   16.8817 C.ar      1 UNK         0.0000 
      7 C7         -0.3986   55.8627   16.7827 C.ar      1 UNK         0.0000 
      8 C8          3.0649   57.2823   16.3988 C.2       1 UNK         0.0000 
      9 N9          3.7516   58.1511   15.7637 N.2       1 UNK         0.0000 
     10 N10         5.1468   58.3079   15.9881 N.pl3     1 UNK         0.0000 
     11 C11         5.9084   57.7672   17.0058 C.ar      1 UNK         0.0000 
     12 N12         6.3197   56.5340   17.1346 N.2       1 UNK         0.0000 
     13 C13         6.9233   56.5436   18.3194 C.ar      1 UNK         0.0000 
     14 N14         6.9555   57.7098   18.9412 N.2       1 UNK         0.0000 
     15 N15         6.3044   58.4969   18.0813 N.pl3     1 UNK         0.0000 
     16 S16         7.6244   55.0547   18.9667 S.3       1 UNK         0.0000 
     17 C17         7.9606   55.4947   20.7111 C.3       1 UNK         0.0000 
     18 C18         6.7792   55.2968   21.6734 C.2       1 UNK         0.0000 
     19 O19         5.6281   55.2921   21.2368 O.2       1 UNK         0.0000 
     20 N20         7.1011   55.1343   22.9764 N.am      1 UNK         0.0000 
     21 C21         6.2362   54.8636   24.0252 C.2       1 UNK         0.0000 
     22 N22         6.5780   55.0975   25.2671 N.2       1 UNK         0.0000 
     23 N23         5.5763   54.7562   26.1655 N.2       1 UNK         0.0000 
     24 C24         4.5148   54.2344   25.5922 C.2       1 UNK         0.0000 
     25 S25         4.6709   54.0968   23.8634 S.3       1 UNK         0.0000 
     26 S26         3.0370   53.7007   26.3996 S.3       1 UNK         0.0000 
     27 C27         3.1154   54.6016   27.9815 C.3       1 UNK         0.0000 
     28 C28         2.7785   53.6906   29.1491 C.ar      1 UNK         0.0000 
     29 C29         1.4656   53.6135   29.6243 C.ar      1 UNK         0.0000 
     30 C30         1.1703   52.8108   30.7223 C.ar      1 UNK         0.0000 
     31 C31         2.1935   52.0968   31.3442 C.ar      1 UNK         0.0000 
     32 C32         3.5039   52.1628   30.8709 C.ar      1 UNK         0.0000 
     33 C33         3.7949   52.9574   29.7663 C.ar      1 UNK         0.0000 
     34 H34        -3.0530   55.9865   16.7601 H         1 UNK         0.0000 
     35 H35        -3.1697   57.5378   15.9544 H         1 UNK         0.0000 
     36 H36        -2.9229   56.0746   14.9899 H         1 UNK         0.0000 
     37 H37        -1.1273   58.5191   14.7949 H         1 UNK         0.0000 
     38 H38         1.2899   58.8361   14.9774 H         1 UNK         0.0000 
     39 H39         1.5479   55.3371   17.4802 H         1 UNK         0.0000 
     40 H40        -0.8657   55.0344   17.2958 H         1 UNK         0.0000 
     41 H41         3.5232   56.6071   17.1192 H         1 UNK         0.0000 
     42 H42         5.5272   59.0728   15.4478 H         1 UNK         0.0000 
     43 H43         8.3420   56.4967   20.7780 H         1 UNK         0.0000 
     44 H44         8.7990   54.8964   21.0463 H         1 UNK         0.0000 
     45 H45         8.0629   55.2989   23.2632 H         1 UNK         0.0000 
     46 H46         2.3990   55.4228   27.9494 H         1 UNK         0.0000 
     47 H47         4.0851   55.0598   28.1638 H         1 UNK         0.0000 
     48 H48         0.6753   54.1753   29.1456 H         1 UNK         0.0000 
     49 H49         0.1576   52.7447   31.1000 H         1 UNK         0.0000 
     50 H50         1.9629   51.4958   32.2113 H         1 UNK         0.0000 
     51 H51         4.2927   51.6155   31.3683 H         1 UNK         0.0000 
     52 H52         4.8082   53.0100   29.3929 H         1 UNK         0.0000 
     53 H53         6.1390   59.4912   18.2130 H         1 UNK         0.0000 
@<TRIPOS>BOND
     1    1    2 1    
     2    1   34 1    
     3    1   35 1    
     4    1   36 1    
     5    2    7 ar   
     6    2    3 ar   
     7    3    4 ar   
     8    3   37 1    
     9    4    5 ar   
    10    4   38 1    
    11    5    6 ar   
    12    5    8 1    
    13    6    7 ar   
    14    6   39 1    
    15    7   40 1    
    16    8    9 2    
    17    8   41 1    
    18    9   10 1    
    19   10   11 1    
    20   10   42 1    
    21   11   15 ar   
    22   11   12 ar   
    23   12   13 ar   
    24   13   14 ar   
    25   13   16 1    
    26   14   15 ar   
    27   15   53 1    
    28   16   17 1    
    29   17   18 1    
    30   17   43 1    
    31   17   44 1    
    32   18   19 2    
    33   18   20 am   BACKBONE|DICT|INTERRES
    34   20   21 am   BACKBONE|DICT|INTERRES
    35   20   45 1    
    36   21   25 1    
    37   21   22 2    
    38   22   23 1    
    39   23   24 2    
    40   24   25 1    
    41   24   26 1    
    42   26   27 1    
    43   27   28 1    
    44   27   46 1    
    45   27   47 1    
    46   28   33 ar   
    47   28   29 ar   
    48   29   30 ar   
    49   29   48 1    
    50   30   31 ar   
    51   30   49 1    
    52   31   32 ar   
    53   31   50 1    
    54   32   33 ar   
    55   32   51 1    
    56   33   52 1    
@<TRIPOS>SUBSTRUCTURE
     1 UNK         1 GROUP             0       ****    0 ROOT    
