ZINC35692994_5650
                    3D
 Schrodinger Suite 2024-2.
 50 53  0  0  1  0            999 V2000
    0.9136   52.5844   30.6073 C   0  0  0  0  0  0
   -0.1806   52.7160   29.5368 C   0  0  0  0  0  0
    0.3643   53.0527   28.2622 O   0  0  0  0  0  0
    0.8890   52.0995   27.4538 C   0  0  0  0  0  0
    0.8531   50.8967   27.6860 O   0  0  0  0  0  0
    1.5037   52.6277   26.2407 C   0  0  0  0  0  0
    2.4750   53.5970   26.2818 C   0  0  0  0  0  0
    3.0334   54.1013   25.1371 N   0  0  0  0  0  0
    2.7620   53.5673   24.0119 C   0  0  0  0  0  0
    1.8984   52.5041   23.7745 N   0  0  0  0  0  0
    1.1046   51.9334   24.8967 C   0  0  2  0  0  0
    1.4736   50.9127   24.9402 H   0  0  0  0  0  0
   -0.4008   51.8361   24.5863 C   0  0  0  0  0  0
   -1.0707   52.9570   24.0829 C   0  0  0  0  0  0
   -2.4247   52.8968   23.7566 C   0  0  0  0  0  0
   -3.1296   51.7095   23.9324 C   0  0  0  0  0  0
   -2.4744   50.5799   24.4178 C   0  0  0  0  0  0
   -1.1146   50.6302   24.7339 C   0  0  0  0  0  0
   -0.3607   49.1659   25.2677 Cl  0  0  0  0  0  0
    1.9185   52.0035   22.4840 C   0  0  0  0  0  0
    2.6654   52.7608   21.6625 C   0  0  0  0  0  0
    3.4741   54.0953   22.4796 S   0  0  0  0  0  0
    1.2250   50.8046   22.0469 C   0  0  0  0  0  0
    0.4189   50.7060   20.9756 C   0  0  0  0  0  0
    0.0308   51.6013   20.1363 O   0  5  0  0  0  0
   -0.1447   49.4939   20.6603 N   0  0  0  0  0  0
    0.0516   48.7967   19.3987 C   0  0  0  0  0  0
    1.2259   47.8424   19.3264 C   0  0  0  0  0  0
   -0.1787   47.3008   19.4142 C   0  0  0  0  0  0
    3.1032   54.2188   27.5626 C   0  0  0  0  0  0
    4.2843   54.7974   27.3205 F   0  0  0  0  0  0
    2.2907   55.1411   28.0819 F   0  0  0  0  0  0
    3.3266   53.2814   28.4861 F   0  0  0  0  0  0
    0.4744   52.3717   31.5829 H   0  0  0  0  0  0
    1.5998   51.7735   30.3679 H   0  0  0  0  0  0
    1.4921   53.5038   30.6924 H   0  0  0  0  0  0
   -0.8621   53.5142   29.8250 H   0  0  0  0  0  0
   -0.7805   51.8050   29.4793 H   0  0  0  0  0  0
   -0.5346   53.8833   23.9442 H   0  0  0  0  0  0
   -2.9259   53.7698   23.3655 H   0  0  0  0  0  0
   -4.1796   51.6598   23.6822 H   0  0  0  0  0  0
   -3.0189   49.6550   24.5394 H   0  0  0  0  0  0
    2.8172   52.5854   20.6069 H   0  0  0  0  0  0
    1.3903   49.9160   22.6390 H   0  0  0  0  0  0
   -0.1946   48.8382   21.4223 H   0  0  0  0  0  0
   -0.2185   49.3672   18.5085 H   0  0  0  0  0  0
    1.8891   47.7633   20.1896 H   0  0  0  0  0  0
    1.7708   47.7780   18.3826 H   0  0  0  0  0  0
   -0.6267   46.8424   18.5319 H   0  0  0  0  0  0
   -0.5082   46.8250   20.3394 H   0  0  0  0  0  0
  1  2  1  0  0  0
  1 34  1  0  0  0
  1 35  1  0  0  0
  1 36  1  0  0  0
  2  3  1  0  0  0
  2 37  1  0  0  0
  2 38  1  0  0  0
  3  4  1  0  0  0
  4  5  2  0  0  0
  4  6  1  0  0  0
  6 11  1  0  0  0
  6  7  2  0  0  0
  7  8  1  0  0  0
  7 30  1  0  0  0
  8  9  2  0  0  0
  9 22  1  0  0  0
  9 10  1  0  0  0
 10 11  1  0  0  0
 10 20  1  0  0  0
 11 12  1  0  0  0
 11 13  1  0  0  0
 13 18  2  0  0  0
 13 14  1  0  0  0
 14 15  2  0  0  0
 14 39  1  0  0  0
 15 16  1  0  0  0
 15 40  1  0  0  0
 16 17  2  0  0  0
 16 41  1  0  0  0
 17 18  1  0  0  0
 17 42  1  0  0  0
 18 19  1  0  0  0
 20 21  2  0  0  0
 20 23  1  0  0  0
 21 22  1  0  0  0
 21 43  1  0  0  0
 23 24  2  0  0  0
 23 44  1  0  0  0
 24 25  1  0  0  0
 24 26  1  0  0  0
 26 27  1  0  0  0
 26 45  1  0  0  0
 27 29  1  0  0  0
 27 28  1  0  0  0
 27 46  1  0  0  0
 28 29  1  0  0  0
 28 47  1  0  0  0
 28 48  1  0  0  0
 29 49  1  0  0  0
 29 50  1  0  0  0
 30 31  1  0  0  0
 30 32  1  0  0  0
 30 33  1  0  0  0
M  CHG  1  25  -1
M  END
> <i_i_glide_confnum>
11

> <i_i_glide_lignum>
5651

> <i_i_glide_posenum>
228

> <i_i_glide_rotatable_bonds>
8

> <i_m_Source_File_Index>
192

> <b_m_subgroup_collapsed>
0

> <r_i_docking_score>
-4.35137

> <r_i_glide_ecoul>
0.495101

> <r_i_glide_eff_state_penalty>
0

> <r_i_glide_einternal>
3.77214

> <r_i_glide_emodel>
-45.5126

> <r_i_glide_energy>
-39.0116

> <r_i_glide_erotb>
0.431919

> <r_i_glide_esite>
0

> <r_i_glide_evdw>
-39.5067

> <r_i_glide_gscore>
-4.35137

> <r_i_glide_hbond>
0

> <r_i_glide_ligand_efficiency>
-0.13598

> <r_i_glide_ligand_efficiency_ln>
-0.974389

> <r_i_glide_ligand_efficiency_sa>
-0.43171

> <r_i_glide_lipo>
-1.21485

> <r_i_glide_metal>
0

> <r_i_glide_rewards>
-1.66736

> <s_i_glide_gridfile>
wee1_glide-grid

> <s_m_Source_File>
wee1_decoys_glide_SP.sdf

> <s_m_Source_Path>
/Users/zhangxujun/Desktop

> <s_m_entry_id>
467

> <s_m_entry_name>
wee1_decoys_glide_SP.192

> <s_m_subgroup_title>
wee1_decoys_glide_SP

> <s_m_subgroupid>
wee1_decoys_glide_SP


$$$$
