@<TRIPOS>MOLECULE
ZINC53631891_5572
58   61    1
SMALL
USER_CHARGES


@<TRIPOS>ATOM
      1 C1         -0.0870   48.7530   25.1347 C.3       1 UNK         0.0000 
      2 C2         -1.0493   48.6255   23.9389 C.3       1 UNK         0.0000 
      3 H3         -0.9582   47.6163   23.5343 H         1 UNK         0.0000 
      4 C4         -2.4799   48.7441   24.4421 C.2       1 UNK         0.0000 
      5 C5         -3.2403   49.8002   24.1596 C.2       1 UNK         0.0000 
      6 C6         -2.7613   50.9663   23.3249 C.3       1 UNK         0.0000 
      7 H7         -3.5250   51.1019   22.5572 H         1 UNK         0.0000 
      8 C8         -2.7435   52.2611   24.2230 C.3       1 UNK         0.0000 
      9 H9         -2.7487   53.1284   23.5587 H         1 UNK         0.0000 
     10 C10        -4.0572   52.3098   25.0308 C.2       1 UNK         0.0000 
     11 C11        -4.7722   51.1813   25.2515 C.2       1 UNK         0.0000 
     12 O12        -4.4117   49.9454   24.8229 O.3       1 UNK         0.0000 
     13 N13        -5.9275   51.0579   25.9740 N.pl3     1 UNK         0.0000 
     14 C14        -4.4971   53.5449   25.5927 C.1       1 UNK         0.0000 
     15 N15        -4.8954   54.5148   26.0807 N.1       1 UNK         0.0000 
     16 C16        -1.4613   52.4012   25.0722 C.ar      1 UNK         0.0000 
     17 C17        -1.4391   52.0200   26.4205 C.ar      1 UNK         0.0000 
     18 C18        -0.2592   52.0758   27.1805 C.ar      1 UNK         0.0000 
     19 C19         0.9238   52.5049   26.5608 C.ar      1 UNK         0.0000 
     20 C20         0.9118   52.8962   25.2159 C.ar      1 UNK         0.0000 
     21 C21        -0.2758   52.8645   24.4865 C.ar      1 UNK         0.0000 
     22 Br22        2.5050   53.5011   24.3637 Br        1 UNK         0.0000 
     23 O23         2.0993   52.5636   27.2700 O.3       1 UNK         0.0000 
     24 C24         2.2389   53.7280   28.0737 C.3       1 UNK         0.0000 
     25 O25        -0.1862   51.7184   28.5156 O.3       1 UNK         0.0000 
     26 C26        -1.3664   51.2971   29.1912 C.3       1 UNK         0.0000 
     27 C27        -1.4707   50.7066   22.5089 C.2       1 UNK         0.0000 
     28 O28        -1.1296   51.5223   21.6456 O.2       1 UNK         0.0000 
     29 N29        -0.7716   49.5549   22.7966 N.am      1 UNK         0.0000 
     30 C30         0.5102   49.3305   22.0982 C.3       1 UNK         0.0000 
     31 C31         0.4157   49.0583   20.5749 C.3       1 UNK         0.0000 
     32 C32         1.2285   50.0470   19.7661 C.ar      1 UNK         0.0000 
     33 H33         3.5263   51.3172   17.9018 H         1 UNK         0.0000 
     34 C34         2.3003   49.8940   18.8879 C.ar      1 UNK         0.0000 
     35 N35         2.7044   51.1530   18.4801 N.pl3     1 UNK         0.0000 
     36 C36         1.8933   52.1004   19.0586 C.ar      1 UNK         0.0000 
     37 N37         0.9931   51.4131   19.8408 N.pl3     1 UNK         0.0000 
     38 H38        -0.0729   49.7687   25.5236 H         1 UNK         0.0000 
     39 H39        -0.3790   48.0969   25.9560 H         1 UNK         0.0000 
     40 H40         0.9362   48.4979   24.8618 H         1 UNK         0.0000 
     41 H41        -2.8625   48.0049   25.1337 H         1 UNK         0.0000 
     42 H42        -6.4203   51.8707   26.3125 H         1 UNK         0.0000 
     43 H43        -6.2080   50.1567   26.3360 H         1 UNK         0.0000 
     44 H44        -2.3494   51.6609   26.8709 H         1 UNK         0.0000 
     45 H45        -0.2609   53.1772   23.4528 H         1 UNK         0.0000 
     46 H46         2.2156   54.6355   27.4677 H         1 UNK         0.0000 
     47 H47         1.4593   53.7972   28.8333 H         1 UNK         0.0000 
     48 H48         3.1980   53.6986   28.5885 H         1 UNK         0.0000 
     49 H49        -2.0896   52.0966   29.2814 H         1 UNK         0.0000 
     50 H50        -1.8733   50.4967   28.6641 H         1 UNK         0.0000 
     51 H51        -1.1229   50.9459   30.1951 H         1 UNK         0.0000 
     52 H52         1.1625   50.1814   22.3054 H         1 UNK         0.0000 
     53 H53         1.0323   48.4970   22.5669 H         1 UNK         0.0000 
     54 H54         0.7355   48.0370   20.3723 H         1 UNK         0.0000 
     55 H55        -0.6238   49.0864   20.2455 H         1 UNK         0.0000 
     56 H56         2.8392   49.0214   18.5386 H         1 UNK         0.0000 
     57 H57         1.9752   53.1762   18.9564 H         1 UNK         0.0000 
     58 H58         0.2694   51.8247   20.4254 H         1 UNK         0.0000 
@<TRIPOS>BOND
     1    1    2 1    
     2    1   38 1    
     3    1   39 1    
     4    1   40 1    
     5    2    3 1    
     6    2   29 1    
     7    2    4 1    
     8    4    5 2    
     9    4   41 1    
    10    5   12 1    
    11    5    6 1    
    12    6    7 1    
    13    6    8 1    
    14    6   27 1    
    15    8    9 1    
    16    8   10 1    
    17    8   16 1    
    18   10   11 2    
    19   10   14 1    
    20   11   12 1    
    21   11   13 1    
    22   13   42 1    
    23   13   43 1    
    24   14   15 3    
    25   16   21 ar   
    26   16   17 ar   
    27   17   18 ar   
    28   17   44 1    
    29   18   19 ar   
    30   18   25 1    
    31   19   20 ar   
    32   19   23 1    
    33   20   21 ar   
    34   20   22 1    
    35   21   45 1    
    36   23   24 1    
    37   24   46 1    
    38   24   47 1    
    39   24   48 1    
    40   25   26 1    
    41   26   49 1    
    42   26   50 1    
    43   26   51 1    
    44   27   28 2    
    45   27   29 am   BACKBONE|DICT|INTERRES
    46   29   30 1    
    47   30   31 1    
    48   30   52 1    
    49   30   53 1    
    50   31   54 1    
    51   31   55 1    
    52   31   32 1    
    53   32   34 ar   
    54   32   37 ar   
    55   33   35 1    
    56   34   35 ar   
    57   34   56 1    
    58   35   36 ar   
    59   36   57 1    
    60   36   37 ar   
    61   37   58 1    
@<TRIPOS>SUBSTRUCTURE
     1 UNK         1 GROUP             0       ****    0 ROOT    
