@<TRIPOS>MOLECULE
ZINC49853174_3894
33   34    1
SMALL
USER_CHARGES


@<TRIPOS>ATOM
      1 C1          2.2451   54.2059   24.4928 C.3       1 UNK         0.0000 
      2 C2          2.8438   53.5807   25.7781 C.3       1 UNK         0.0000 
      3 H3          3.0997   52.5506   25.5339 H         1 UNK         0.0000 
      4 C4          4.1696   54.2579   26.2652 C.3       1 UNK         0.0000 
      5 C5          4.7737   53.5208   27.4924 C.3       1 UNK         0.0000 
      6 C6          6.0133   54.2334   28.0405 C.3       1 UNK         0.0000 
      7 C7          7.0845   54.3627   26.9520 C.3       1 UNK         0.0000 
      8 C8          6.5467   55.0183   25.6603 C.3       1 UNK         0.0000 
      9 C9          5.2632   54.3159   25.1648 C.3       1 UNK         0.0000 
     10 N10         1.8201   53.4897   26.8475 N.pl3     1 UNK         0.0000 
     11 C11         0.8792   52.4955   27.0404 C.ar      1 UNK         0.0000 
     12 C12         0.2360   52.8152   28.2221 C.ar      1 UNK         0.0000 
     13 C13         0.8109   54.0215   28.6258 C.ar      1 UNK         0.0000 
     14 N14         1.7338   54.4444   27.7961 N.2       1 UNK         0.0000 
     15 I15        -1.2915   51.6967   29.2197 I         1 UNK         0.0000 
     16 N16         0.7022   51.4390   26.1932 N.pl3     1 UNK         0.0000 
     17 H17         2.7904   53.8660   23.6117 H         1 UNK         0.0000 
     18 H18         1.2024   53.9205   24.3439 H         1 UNK         0.0000 
     19 H19         2.3037   55.2945   24.4816 H         1 UNK         0.0000 
     20 H20         3.9551   55.2869   26.5602 H         1 UNK         0.0000 
     21 H21         4.0519   53.4180   28.3006 H         1 UNK         0.0000 
     22 H22         5.0164   52.4968   27.2221 H         1 UNK         0.0000 
     23 H23         5.7433   55.2200   28.4212 H         1 UNK         0.0000 
     24 H24         6.4202   53.6751   28.8825 H         1 UNK         0.0000 
     25 H25         7.9044   54.9329   27.3695 H         1 UNK         0.0000 
     26 H26         7.4829   53.3723   26.7252 H         1 UNK         0.0000 
     27 H27         6.3408   56.0751   25.8379 H         1 UNK         0.0000 
     28 H28         7.3096   54.9855   24.8813 H         1 UNK         0.0000 
     29 H29         5.4977   53.3072   24.8211 H         1 UNK         0.0000 
     30 H30         4.8894   54.8285   24.2781 H         1 UNK         0.0000 
     31 H31         0.5559   54.5725   29.5188 H         1 UNK         0.0000 
     32 H32         0.1049   50.6652   26.4570 H         1 UNK         0.0000 
     33 H33         1.0929   51.4146   25.2636 H         1 UNK         0.0000 
@<TRIPOS>BOND
     1    1    2 1    
     2    1   17 1    
     3    1   18 1    
     4    1   19 1    
     5    2    3 1    
     6    2    4 1    
     7    2   10 1    
     8    4    9 1    
     9    4    5 1    
    10    4   20 1    
    11    5    6 1    
    12    5   21 1    
    13    5   22 1    
    14    6    7 1    
    15    6   23 1    
    16    6   24 1    
    17    7    8 1    
    18    7   25 1    
    19    7   26 1    
    20    8    9 1    
    21    8   27 1    
    22    8   28 1    
    23    9   29 1    
    24    9   30 1    
    25   10   14 ar   
    26   10   11 ar   
    27   11   12 ar   
    28   11   16 1    
    29   12   13 ar   
    30   12   15 1    
    31   13   14 ar   
    32   13   31 1    
    33   16   32 1    
    34   16   33 1    
@<TRIPOS>SUBSTRUCTURE
     1 UNK         1 GROUP             0       ****    0 ROOT    
