@<TRIPOS>MOLECULE
ZINC11752059_4168
49   53    1
SMALL
USER_CHARGES


@<TRIPOS>ATOM
      1 C1          5.0785   49.1687   13.3915 C.ar      1 UNK         0.0000 
      2 C2          6.3089   48.7699   12.8752 C.ar      1 UNK         0.0000 
      3 C3          7.1689   49.7209   12.3293 C.ar      1 UNK         0.0000 
      4 C4          6.7927   51.0643   12.2854 C.ar      1 UNK         0.0000 
      5 C5          5.5527   51.4783   12.7967 C.ar      1 UNK         0.0000 
      6 C6          4.7054   50.5135   13.3618 C.ar      1 UNK         0.0000 
      7 N7          5.2313   52.8462   12.6986 N.pl3     1 UNK         0.0000 
      8 S8          3.8429   53.6803   13.4258 S.o2      1 UNK         0.0000 
      9 O9          2.6749   52.7918   13.3793 O.2       1 UNK         0.0000 
     10 O10         3.7948   54.9956   12.7778 O.2       1 UNK         0.0000 
     11 C11         4.2873   53.9569   15.1397 C.ar      1 UNK         0.0000 
     12 C12         4.0267   52.9743   16.0946 C.ar      1 UNK         0.0000 
     13 C13         4.3553   53.2046   17.4280 C.ar      1 UNK         0.0000 
     14 C14         4.9490   54.4116   17.8236 C.ar      1 UNK         0.0000 
     15 C15         5.2177   55.3863   16.8532 C.ar      1 UNK         0.0000 
     16 C16         4.8859   55.1602   15.5178 C.ar      1 UNK         0.0000 
     17 C17         5.3197   54.6651   19.2666 C.2       1 UNK         0.0000 
     18 O18         6.2815   55.3840   19.5469 O.2       1 UNK         0.0000 
     19 N19         4.4964   54.0971   20.1767 N.am      1 UNK         0.0000 
     20 C20         4.6269   54.1655   21.5525 C.2       1 UNK         0.0000 
     21 N21         5.7266   54.3774   22.2269 N.2       1 UNK         0.0000 
     22 C22         5.4945   54.3383   23.5661 C.ar      1 UNK         0.0000 
     23 C23         6.4709   54.5032   24.5561 C.ar      1 UNK         0.0000 
     24 C24         6.0779   54.3754   25.8886 C.ar      1 UNK         0.0000 
     25 C25         4.7339   54.1485   26.2377 C.ar      1 UNK         0.0000 
     26 C26         3.7431   54.0265   25.2703 C.ar      1 UNK         0.0000 
     27 C27         4.1392   54.0966   23.9300 C.ar      1 UNK         0.0000 
     28 S28         3.1718   53.8911   22.4817 S.3       1 UNK         0.0000 
     29 O29         4.3307   53.9287   27.5357 O.3       1 UNK         0.0000 
     30 C30         5.3147   54.2283   28.5256 C.3       1 UNK         0.0000 
     31 C31         6.7340   53.8293   28.0667 C.3       1 UNK         0.0000 
     32 O32         7.0627   54.4965   26.8455 O.3       1 UNK         0.0000 
     33 F33         7.6441   51.9650   11.7390 F         1 UNK         0.0000 
     34 H34         4.4168   48.4399   13.8399 H         1 UNK         0.0000 
     35 H35         6.6053   47.7303   12.9119 H         1 UNK         0.0000 
     36 H36         8.1324   49.4240   11.9411 H         1 UNK         0.0000 
     37 H37         3.7511   50.7683   13.7909 H         1 UNK         0.0000 
     38 H38         5.9231   53.4390   12.2693 H         1 UNK         0.0000 
     39 H39         3.5779   52.0320   15.8172 H         1 UNK         0.0000 
     40 H40         4.1629   52.4112   18.1386 H         1 UNK         0.0000 
     41 H41         5.6817   56.3237   17.1289 H         1 UNK         0.0000 
     42 H42         5.0963   55.9262   14.7839 H         1 UNK         0.0000 
     43 H43         3.6057   53.7724   19.8314 H         1 UNK         0.0000 
     44 H44         7.5025   54.6823   24.2952 H         1 UNK         0.0000 
     45 H45         2.7193   53.8192   25.5474 H         1 UNK         0.0000 
     46 H46         5.2952   55.2960   28.7404 H         1 UNK         0.0000 
     47 H47         5.0481   53.7075   29.4405 H         1 UNK         0.0000 
     48 H48         7.4718   54.0925   28.8252 H         1 UNK         0.0000 
     49 H49         6.7773   52.7482   27.9195 H         1 UNK         0.0000 
@<TRIPOS>BOND
     1    1    6 ar   
     2    1    2 ar   
     3    1   34 1    
     4    2    3 ar   
     5    2   35 1    
     6    3    4 ar   
     7    3   36 1    
     8    4    5 ar   
     9    4   33 1    
    10    5    6 ar   
    11    5    7 1    
    12    6   37 1    
    13    7    8 1    
    14    7   38 1    
    15    8    9 2    
    16    8   10 2    
    17    8   11 1    
    18   11   16 ar   
    19   11   12 ar   
    20   12   13 ar   
    21   12   39 1    
    22   13   14 ar   
    23   13   40 1    
    24   14   15 ar   
    25   14   17 1    
    26   15   16 ar   
    27   15   41 1    
    28   16   42 1    
    29   17   18 2    
    30   17   19 am   BACKBONE|DICT|INTERRES
    31   19   20 am   BACKBONE|DICT|INTERRES
    32   19   43 1    
    33   20   28 1    
    34   20   21 2    
    35   21   22 1    
    36   22   27 ar   
    37   22   23 ar   
    38   23   24 ar   
    39   23   44 1    
    40   24   32 1    
    41   24   25 ar   
    42   25   26 ar   
    43   25   29 1    
    44   26   27 ar   
    45   26   45 1    
    46   27   28 1    
    47   29   30 1    
    48   30   31 1    
    49   30   46 1    
    50   30   47 1    
    51   31   32 1    
    52   31   48 1    
    53   31   49 1    
@<TRIPOS>SUBSTRUCTURE
     1 UNK         1 GROUP             0       ****    0 ROOT    
