@<TRIPOS>MOLECULE
ZINC13184320_5882
47   49    1
SMALL
USER_CHARGES


@<TRIPOS>ATOM
      1 C1         -3.2524   50.8223   26.9746 C.3       1 UNK         0.0000 
      2 C2         -2.4640   51.3898   25.7747 C.3       1 UNK         0.0000 
      3 C3         -2.7152   52.8972   25.6198 C.3       1 UNK         0.0000 
      4 C4         -0.9443   51.0300   25.7290 C.3       1 UNK         0.0000 
      5 H5         -0.5737   51.3918   24.7700 H         1 UNK         0.0000 
      6 C6         -0.0603   51.7006   26.7912 C.ar      1 UNK         0.0000 
      7 C7         -0.2686   51.5080   28.1661 C.ar      1 UNK         0.0000 
      8 C8          0.5606   52.1155   29.1115 C.ar      1 UNK         0.0000 
      9 C9          1.6227   52.9129   28.6905 C.ar      1 UNK         0.0000 
     10 C10         1.8612   53.0886   27.3188 C.ar      1 UNK         0.0000 
     11 C11         1.0176   52.4971   26.3774 C.ar      1 UNK         0.0000 
     12 O12         2.8898   53.8784   26.8504 O.3       1 UNK         0.0000 
     13 C13         3.9400   54.0805   27.8018 C.3       1 UNK         0.0000 
     14 C14         3.3456   54.4590   29.1788 C.3       1 UNK         0.0000 
     15 O15         2.4628   53.4363   29.6559 O.3       1 UNK         0.0000 
     16 N16        -0.6755   49.5702   25.7324 N.pl3     1 UNK         0.0000 
     17 S17        -1.2641   48.5685   24.4091 S.o2      1 UNK         0.0000 
     18 O18        -0.5398   47.2966   24.4797 O.2       1 UNK         0.0000 
     19 O19        -2.7324   48.5814   24.4222 O.2       1 UNK         0.0000 
     20 C20        -0.7221   49.4049   22.9177 C.ar      1 UNK         0.0000 
     21 C21         0.6376   49.4745   22.6178 C.ar      1 UNK         0.0000 
     22 C22         1.0602   50.1384   21.4670 C.ar      1 UNK         0.0000 
     23 C23         0.1351   50.7426   20.6093 C.ar      1 UNK         0.0000 
     24 C24        -1.2416   50.6927   20.9078 C.ar      1 UNK         0.0000 
     25 C25        -1.6528   50.0077   22.0628 C.ar      1 UNK         0.0000 
     26 C26        -2.2798   51.2965   20.0181 C.2       1 UNK         0.0000 
     27 O27        -3.2576   50.5835   19.7124 O.co2     1 UNK         0.0000 
     28 Br28        0.8247   51.6021   19.0482 Br        1 UNK         0.0000 
     29 H29        -3.0535   51.3682   27.8948 H         1 UNK         0.0000 
     30 H30        -4.3267   50.8866   26.8018 H         1 UNK         0.0000 
     31 H31        -3.0222   49.7691   27.1485 H         1 UNK         0.0000 
     32 H32        -2.9155   50.9511   24.8868 H         1 UNK         0.0000 
     33 H33        -2.3400   53.4489   26.4812 H         1 UNK         0.0000 
     34 H34        -2.2248   53.2965   24.7313 H         1 UNK         0.0000 
     35 H35        -3.7809   53.1151   25.5285 H         1 UNK         0.0000 
     36 H36        -1.0609   50.8665   28.5185 H         1 UNK         0.0000 
     37 H37         0.3852   51.9501   30.1646 H         1 UNK         0.0000 
     38 H38         1.2132   52.6542   25.3265 H         1 UNK         0.0000 
     39 H39         4.5213   53.1602   27.8997 H         1 UNK         0.0000 
     40 H40         4.6100   54.8612   27.4427 H         1 UNK         0.0000 
     41 H41         4.1445   54.6184   29.9063 H         1 UNK         0.0000 
     42 H42         2.7928   55.3958   29.0841 H         1 UNK         0.0000 
     43 H43        -0.8637   49.1384   26.6496 H         1 UNK         0.0000 
     44 H44         1.3649   49.0181   23.2744 H         1 UNK         0.0000 
     45 H45         2.1151   50.1804   21.2328 H         1 UNK         0.0000 
     46 H46        -2.7070   49.9444   22.2987 H         1 UNK         0.0000 
     47 O47        -2.1447   52.4966   19.6825 O.co2     1 UNK         0.0000 
@<TRIPOS>BOND
     1    1    2 1    
     2    1   29 1    
     3    1   30 1    
     4    1   31 1    
     5    2    3 1    
     6    2    4 1    
     7    2   32 1    
     8    3   33 1    
     9    3   34 1    
    10    3   35 1    
    11    4    5 1    
    12    4    6 1    
    13    4   16 1    
    14    6   11 ar   
    15    6    7 ar   
    16    7    8 ar   
    17    7   36 1    
    18    8    9 ar   
    19    8   37 1    
    20    9   15 1    
    21    9   10 ar   
    22   10   11 ar   
    23   10   12 1    
    24   11   38 1    
    25   12   13 1    
    26   13   14 1    
    27   13   39 1    
    28   13   40 1    
    29   14   15 1    
    30   14   41 1    
    31   14   42 1    
    32   16   17 1    
    33   16   43 1    
    34   17   18 2    
    35   17   19 2    
    36   17   20 1    
    37   20   25 ar   
    38   20   21 ar   
    39   21   22 ar   
    40   21   44 1    
    41   22   23 ar   
    42   22   45 1    
    43   23   24 ar   
    44   23   28 1    
    45   24   25 ar   
    46   24   26 1    
    47   25   46 1    
    48   26   27 2    
    49   26   47 1    
@<TRIPOS>SUBSTRUCTURE
     1 UNK         1 GROUP             0       ****    0 ROOT    
