@<TRIPOS>MOLECULE
ZINC39328010_5409
69   72    1
SMALL
USER_CHARGES


@<TRIPOS>ATOM
      1 C1          6.4170   55.0458   24.7011 C.3       1 UNK         0.0000 
      2 C2          7.0835   54.9752   23.3256 C.3       1 UNK         0.0000 
      3 O3          6.1465   54.4941   22.3766 O.3       1 UNK         0.0000 
      4 C4          5.9044   55.1058   21.2018 C.2       1 UNK         0.0000 
      5 O5          6.4208   56.1821   20.8872 O.2       1 UNK         0.0000 
      6 C6          5.0001   54.3494   20.2979 C.2       1 UNK         0.0000 
      7 C7          4.0856   53.4304   20.7415 C.2       1 UNK         0.0000 
      8 O8          3.2759   52.7377   19.8959 O.3       1 UNK         0.0000 
      9 C9          3.3077   52.9550   18.5643 C.2       1 UNK         0.0000 
     10 C10         4.1082   53.8580   17.9703 C.2       1 UNK         0.0000 
     11 C11         5.1266   54.6792   18.7781 C.3       1 UNK         0.0000 
     12 H12         4.8302   55.7220   18.6429 H         1 UNK         0.0000 
     13 C13         6.5458   54.6037   18.1834 C.ar      1 UNK         0.0000 
     14 C14         7.3093   55.7650   18.0118 C.ar      1 UNK         0.0000 
     15 C15         8.5686   55.6966   17.4242 C.ar      1 UNK         0.0000 
     16 C16         9.0763   54.4698   16.9886 C.ar      1 UNK         0.0000 
     17 C17         8.3179   53.3079   17.1574 C.ar      1 UNK         0.0000 
     18 C18         7.0588   53.3781   17.7444 C.ar      1 UNK         0.0000 
     19 C19        10.4510   54.4080   16.3201 C.3       1 UNK         0.0000 
     20 C20        11.4729   53.6682   17.1978 C.3       1 UNK         0.0000 
     21 C21        10.3834   53.8197   14.8973 C.3       1 UNK         0.0000 
     22 C22         4.0740   54.0113   16.5518 C.1       1 UNK         0.0000 
     23 N23         4.0208   54.1302   15.4023 N.1       1 UNK         0.0000 
     24 N24         2.4304   52.0945   17.9658 N.pl3     1 UNK         0.0000 
     25 C25         3.6943   53.0073   22.1605 C.3       1 UNK         0.0000 
     26 S26         2.4415   54.0967   22.8978 S.3       1 UNK         0.0000 
     27 C27         2.2728   53.6191   24.5979 C.ar      1 UNK         0.0000 
     28 C28         1.1665   52.8864   25.0613 C.ar      1 UNK         0.0000 
     29 C29         1.1384   52.5291   26.4133 C.ar      1 UNK         0.0000 
     30 C30         2.1818   52.8966   27.2702 C.ar      1 UNK         0.0000 
     31 C31         3.2492   53.6368   26.7291 C.ar      1 UNK         0.0000 
     32 N32         3.2793   54.0062   25.4207 N.ar      1 UNK         0.0000 
     33 C33         4.4094   54.0617   27.6278 C.3       1 UNK         0.0000 
     34 C34         4.0522   53.9836   29.1302 C.3       1 UNK         0.0000 
     35 N35         3.4732   52.6649   29.4056 N.3       1 UNK         0.0000 
     36 C36         2.1554   52.5570   28.7622 C.3       1 UNK         0.0000 
     37 C37         3.3821   52.3754   30.8335 C.3       1 UNK         0.0000 
     38 C38         0.0510   52.4980   24.2038 C.1       1 UNK         0.0000 
     39 N39        -0.8361   52.1929   23.5255 N.1       1 UNK         0.0000 
     40 H40         7.1049   55.4290   25.4496 H         1 UNK         0.0000 
     41 H41         5.5462   55.6974   24.6829 H         1 UNK         0.0000 
     42 H42         6.0918   54.0571   25.0243 H         1 UNK         0.0000 
     43 H43         7.8996   54.2528   23.3515 H         1 UNK         0.0000 
     44 H44         7.5035   55.9487   23.0626 H         1 UNK         0.0000 
     45 H45         6.9262   56.7243   18.3282 H         1 UNK         0.0000 
     46 H46         9.1421   56.6037   17.3006 H         1 UNK         0.0000 
     47 H47         8.6963   52.3514   16.8272 H         1 UNK         0.0000 
     48 H48         6.4757   52.4754   17.8562 H         1 UNK         0.0000 
     49 H49        10.8150   55.4312   16.2097 H         1 UNK         0.0000 
     50 H50        11.5045   54.0966   18.1991 H         1 UNK         0.0000 
     51 H51        11.2271   52.6097   17.2927 H         1 UNK         0.0000 
     52 H52        12.4779   53.7330   16.7789 H         1 UNK         0.0000 
     53 H53         9.6566   54.3531   14.2826 H         1 UNK         0.0000 
     54 H54        11.3491   53.8935   14.3934 H         1 UNK         0.0000 
     55 H55        10.0986   52.7667   14.9061 H         1 UNK         0.0000 
     56 H56         2.4021   52.0560   16.9572 H         1 UNK         0.0000 
     57 H57         2.2050   51.2342   18.4456 H         1 UNK         0.0000 
     58 H58         4.5352   52.8969   22.8385 H         1 UNK         0.0000 
     59 H59         3.2636   52.0066   22.1118 H         1 UNK         0.0000 
     60 H60         0.3042   51.9673   26.8150 H         1 UNK         0.0000 
     61 H61         4.7575   55.0608   27.3665 H         1 UNK         0.0000 
     62 H62         5.2473   53.3899   27.4365 H         1 UNK         0.0000 
     63 H63         3.4212   54.8072   29.4712 H         1 UNK         0.0000 
     64 H64         4.9892   54.0862   29.6813 H         1 UNK         0.0000 
     65 H65         1.8076   51.5280   28.8856 H         1 UNK         0.0000 
     66 H66         1.4229   53.1986   29.2587 H         1 UNK         0.0000 
     67 H67         4.3048   52.6297   31.3557 H         1 UNK         0.0000 
     68 H68         3.2168   51.3132   30.9911 H         1 UNK         0.0000 
     69 H69         2.5567   52.9081   31.3035 H         1 UNK         0.0000 
@<TRIPOS>BOND
     1    1    2 1    
     2    1   40 1    
     3    1   41 1    
     4    1   42 1    
     5    2    3 1    
     6    2   43 1    
     7    2   44 1    
     8    3    4 1    
     9    4    5 2    
    10    4    6 1    
    11    6   11 1    
    12    6    7 2    
    13    7    8 1    
    14    7   25 1    
    15    8    9 1    
    16    9   10 2    
    17    9   24 1    
    18   10   11 1    
    19   10   22 1    
    20   11   12 1    
    21   11   13 1    
    22   13   18 ar   
    23   13   14 ar   
    24   14   15 ar   
    25   14   45 1    
    26   15   16 ar   
    27   15   46 1    
    28   16   17 ar   
    29   16   19 1    
    30   17   18 ar   
    31   17   47 1    
    32   18   48 1    
    33   19   20 1    
    34   19   21 1    
    35   19   49 1    
    36   20   50 1    
    37   20   51 1    
    38   20   52 1    
    39   21   53 1    
    40   21   54 1    
    41   21   55 1    
    42   22   23 3    
    43   24   56 1    
    44   24   57 1    
    45   25   26 1    
    46   25   58 1    
    47   25   59 1    
    48   26   27 1    
    49   27   32 ar   
    50   27   28 ar   
    51   28   29 ar   
    52   28   38 1    
    53   29   30 ar   
    54   29   60 1    
    55   30   36 1    
    56   30   31 ar   
    57   31   32 ar   
    58   31   33 1    
    59   33   34 1    
    60   33   61 1    
    61   33   62 1    
    62   34   35 1    
    63   34   63 1    
    64   34   64 1    
    65   35   36 1    
    66   35   37 1    
    67   36   65 1    
    68   36   66 1    
    69   37   67 1    
    70   37   68 1    
    71   37   69 1    
    72   38   39 3    
@<TRIPOS>SUBSTRUCTURE
     1 UNK         1 GROUP             0       ****    0 ROOT    
