ZINC38893562_1097
                    3D
 Schrodinger Suite 2024-2.
 74 78  0  0  1  0            999 V2000
   11.5283   57.8922   16.3063 C   0  0  0  0  0  0
   10.5678   56.7171   16.2846 C   0  0  0  0  0  0
   10.6341   55.7423   17.2817 C   0  0  0  0  0  0
    9.7610   54.6580   17.2548 C   0  0  0  0  0  0
    8.8161   54.5405   16.2279 C   0  0  0  0  0  0
    8.7548   55.5206   15.2306 C   0  0  0  0  0  0
    9.6330   56.6018   15.2552 C   0  0  0  0  0  0
    7.8225   53.3673   16.2061 C   0  0  1  0  0  0
    7.0511   53.5970   15.4644 H   0  0  0  0  0  0
    8.5252   52.0857   15.7406 C   0  0  0  0  0  0
    8.4331   51.6904   14.3996 C   0  0  0  0  0  0
    9.0904   50.5419   13.9598 C   0  0  0  0  0  0
    9.8250   49.7770   14.8631 C   0  0  0  0  0  0
    9.9062   50.1491   16.2026 C   0  0  0  0  0  0
    9.2551   51.2982   16.6395 C   0  0  0  0  0  0
    7.0824   53.1772   17.4646 N   0  0  0  0  0  0
    6.4306   54.1270   18.1654 C   0  0  0  0  0  0
    6.3572   55.3004   17.8039 O   0  0  0  0  0  0
    5.7850   53.7046   19.5014 C   0  0  2  0  0  0
    6.1205   52.6829   19.6819 H   0  0  0  0  0  0
    4.2495   53.6968   19.3578 C   0  0  0  0  0  0
    3.6408   53.2908   20.7145 C   0  0  0  0  0  0
    4.0933   54.2076   21.8768 C   0  0  0  0  0  0
    5.6459   54.1718   21.9827 N   0  3  1  0  0  0
    6.2482   54.6647   20.6337 C   0  0  0  0  0  0
    6.3201   54.9764   23.1481 C   0  0  0  0  0  0
    5.7840   54.7066   24.5556 C   0  0  0  0  0  0
    4.5971   54.3224   24.9336 N   0  0  0  0  0  0
    4.7136   54.1761   26.2410 C   0  0  0  0  0  0
    5.8968   54.4994   26.7321 N   0  0  0  0  0  0
    6.6361   54.8649   25.6015 O   0  0  0  0  0  0
    3.5827   53.6136   27.0731 C   0  0  0  0  0  0
    2.3240   53.4245   26.4858 C   0  0  0  0  0  0
    1.2870   52.8160   27.1848 C   0  0  0  0  0  0
    1.4749   52.3758   28.5003 C   0  0  0  0  0  0
    2.7182   52.5726   29.1183 C   0  0  0  0  0  0
    3.7608   53.1985   28.4022 C   0  0  0  0  0  0
    2.8343   52.0966   30.4121 O   0  0  0  0  0  0
    4.0665   52.2007   31.1019 C   0  0  0  0  0  0
    0.4943   51.7379   29.2428 O   0  0  0  0  0  0
   -0.7486   51.3998   28.6348 C   0  0  0  0  0  0
   12.4330   57.6578   16.8717 H   0  0  0  0  0  0
   11.8477   58.1504   15.2945 H   0  0  0  0  0  0
   11.0518   58.7684   16.7483 H   0  0  0  0  0  0
   11.3558   55.8256   18.0814 H   0  0  0  0  0  0
    9.8155   53.9171   18.0395 H   0  0  0  0  0  0
    8.0271   55.4510   14.4358 H   0  0  0  0  0  0
    9.5784   57.3520   14.4805 H   0  0  0  0  0  0
    7.8747   52.2816   13.6926 H   0  0  0  0  0  0
    9.0402   50.2477   12.9233 H   0  0  0  0  0  0
   10.3321   48.8864   14.5168 H   0  0  0  0  0  0
   10.4797   49.5530   16.8985 H   0  0  0  0  0  0
    9.3328   51.5835   17.6770 H   0  0  0  0  0  0
    6.8700   52.2110   17.6840 H   0  0  0  0  0  0
    3.8560   54.6909   19.1291 H   0  0  0  0  0  0
    3.9194   52.9593   18.6208 H   0  0  0  0  0  0
    2.5510   53.2969   20.6425 H   0  0  0  0  0  0
    3.9089   52.2559   20.9369 H   0  0  0  0  0  0
    3.7757   55.2424   21.7463 H   0  0  0  0  0  0
    3.6601   53.7925   22.7793 H   0  0  0  0  0  0
    7.3366   54.6862   20.7240 H   0  0  0  0  0  0
    5.8849   55.6868   20.4976 H   0  0  0  0  0  0
    7.3634   54.6531   23.0921 H   0  0  0  0  0  0
    6.3045   56.0350   22.8779 H   0  0  0  0  0  0
    2.1390   53.7268   25.4662 H   0  0  0  0  0  0
    0.3421   52.6808   26.6821 H   0  0  0  0  0  0
    4.7288   53.3342   28.8593 H   0  0  0  0  0  0
    3.9726   51.7261   32.0789 H   0  0  0  0  0  0
    4.8763   51.6979   30.5712 H   0  0  0  0  0  0
    4.3036   53.2530   31.2639 H   0  0  0  0  0  0
   -1.3819   50.8966   29.3665 H   0  0  0  0  0  0
   -1.2851   52.2845   28.2871 H   0  0  0  0  0  0
   -0.6055   50.7150   27.7958 H   0  0  0  0  0  0
    5.9168   53.2065   22.1173 H   0  0  0  0  0  0
  1  2  1  0  0  0
  1 42  1  0  0  0
  1 43  1  0  0  0
  1 44  1  0  0  0
  2  7  2  0  0  0
  2  3  1  0  0  0
  3  4  2  0  0  0
  3 45  1  0  0  0
  4  5  1  0  0  0
  4 46  1  0  0  0
  5  6  2  0  0  0
  5  8  1  0  0  0
  6  7  1  0  0  0
  6 47  1  0  0  0
  7 48  1  0  0  0
  8  9  1  0  0  0
  8 10  1  0  0  0
  8 16  1  0  0  0
 10 15  2  0  0  0
 10 11  1  0  0  0
 11 12  2  0  0  0
 11 49  1  0  0  0
 12 13  1  0  0  0
 12 50  1  0  0  0
 13 14  2  0  0  0
 13 51  1  0  0  0
 14 15  1  0  0  0
 14 52  1  0  0  0
 15 53  1  0  0  0
 16 17  1  0  0  0
 16 54  1  0  0  0
 17 18  2  0  0  0
 17 19  1  0  0  0
 19 20  1  0  0  0
 19 25  1  0  0  0
 19 21  1  0  0  0
 21 22  1  0  0  0
 21 55  1  0  0  0
 21 56  1  0  0  0
 22 23  1  0  0  0
 22 57  1  0  0  0
 22 58  1  0  0  0
 23 24  1  0  0  0
 23 59  1  0  0  0
 23 60  1  0  0  0
 24 25  1  0  0  0
 24 26  1  0  0  0
 24 74  1  0  0  0
 25 61  1  0  0  0
 25 62  1  0  0  0
 26 27  1  0  0  0
 26 63  1  0  0  0
 26 64  1  0  0  0
 27 31  1  0  0  0
 27 28  2  0  0  0
 28 29  1  0  0  0
 29 30  2  0  0  0
 29 32  1  0  0  0
 30 31  1  0  0  0
 32 37  2  0  0  0
 32 33  1  0  0  0
 33 34  2  0  0  0
 33 65  1  0  0  0
 34 35  1  0  0  0
 34 66  1  0  0  0
 35 36  2  0  0  0
 35 40  1  0  0  0
 36 37  1  0  0  0
 36 38  1  0  0  0
 37 67  1  0  0  0
 38 39  1  0  0  0
 39 68  1  0  0  0
 39 69  1  0  0  0
 39 70  1  0  0  0
 40 41  1  0  0  0
 41 71  1  0  0  0
 41 72  1  0  0  0
 41 73  1  0  0  0
M  CHG  1  24   1
M  END
> <i_i_glide_confnum>
65

> <i_i_glide_lignum>
1098

> <i_i_glide_posenum>
306

> <i_i_glide_rotatable_bonds>
10

> <i_m_Source_File_Index>
807

> <b_m_subgroup_collapsed>
0

> <r_i_docking_score>
-5.9964

> <r_i_glide_ecoul>
-5.22932

> <r_i_glide_eff_state_penalty>
0

> <r_i_glide_einternal>
6.08445

> <r_i_glide_emodel>
-68.3465

> <r_i_glide_energy>
-52.1105

> <r_i_glide_erotb>
0.591857

> <r_i_glide_esite>
-0.0458085

> <r_i_glide_evdw>
-46.8812

> <r_i_glide_gscore>
-5.9964

> <r_i_glide_hbond>
-0.349312

> <r_i_glide_ligand_efficiency>
-0.153754

> <r_i_glide_ligand_efficiency_ln>
-1.2858

> <r_i_glide_ligand_efficiency_sa>
-0.521412

> <r_i_glide_lipo>
-2.61288

> <r_i_glide_metal>
0

> <r_i_glide_rewards>
-0.451796

> <s_i_glide_gridfile>
wee1_glide-grid

> <s_m_Source_File>
wee1_decoys_glide_SP.sdf

> <s_m_Source_Path>
/Users/zhangxujun/Desktop

> <s_m_entry_id>
1082

> <s_m_entry_name>
wee1_decoys_glide_SP.807

> <s_m_subgroup_title>
wee1_decoys_glide_SP

> <s_m_subgroupid>
wee1_decoys_glide_SP


$$$$
