@<TRIPOS>MOLECULE
ZINC36214722_954
66   68    1
SMALL
USER_CHARGES


@<TRIPOS>ATOM
      1 C1          5.3720   53.5575   15.8614 C.3       1 UNK         0.0000 
      2 C2          5.9415   54.1239   17.1742 C.3       1 UNK         0.0000 
      3 H3          5.4995   55.1195   17.2650 H         1 UNK         0.0000 
      4 C4          7.4868   54.3215   17.1389 C.3       1 UNK         0.0000 
      5 C5          8.0181   55.0594   18.3875 C.3       1 UNK         0.0000 
      6 C6          8.2701   53.0090   16.9130 C.3       1 UNK         0.0000 
      7 N7          5.4956   53.2963   18.2969 N.am      1 UNK         0.0000 
      8 C8          4.9642   53.7419   19.4455 C.2       1 UNK         0.0000 
      9 O9          4.7051   54.9256   19.6488 O.2       1 UNK         0.0000 
     10 C10         4.6328   52.6605   20.5130 C.3       1 UNK         0.0000 
     11 H11         5.4850   51.9795   20.5187 H         1 UNK         0.0000 
     12 C12         3.3730   51.8158   20.1068 C.3       1 UNK         0.0000 
     13 C13         3.0138   50.6809   21.0926 C.3       1 UNK         0.0000 
     14 C14         1.9613   49.7506   20.4538 C.3       1 UNK         0.0000 
     15 N15         0.7446   50.5272   20.0822 N.pl3     1 UNK         0.0000 
     16 C16         0.9656   51.7910   19.3176 C.3       1 UNK         0.0000 
     17 C17         2.0858   52.6442   19.9418 C.3       1 UNK         0.0000 
     18 S18        -0.7142   50.3434   21.0769 S.o2      1 UNK         0.0000 
     19 O19        -1.7062   51.3393   20.6480 O.2       1 UNK         0.0000 
     20 O20        -1.0455   48.9134   21.1078 O.2       1 UNK         0.0000 
     21 C21        -0.2222   50.7888   22.7434 C.ar      1 UNK         0.0000 
     22 C22        -0.0271   49.7986   23.7112 C.ar      1 UNK         0.0000 
     23 C23         0.3037   50.1601   25.0153 C.ar      1 UNK         0.0000 
     24 C24         0.4497   51.5063   25.3426 C.ar      1 UNK         0.0000 
     25 C25         0.2854   52.4940   24.3726 C.ar      1 UNK         0.0000 
     26 C26        -0.0500   52.1334   23.0706 C.ar      1 UNK         0.0000 
     27 Cl27        0.8405   51.9539   26.9620 Cl        1 UNK         0.0000 
     28 N28         4.5257   53.1565   21.9033 N.am      1 UNK         0.0000 
     29 C29         5.3596   53.9809   22.5740 C.2       1 UNK         0.0000 
     30 O30         6.3615   54.4968   22.0818 O.2       1 UNK         0.0000 
     31 C31         5.0544   54.1894   24.0394 C.ar      1 UNK         0.0000 
     32 C32         3.7454   54.0967   24.5377 C.ar      1 UNK         0.0000 
     33 C33         3.5043   54.2436   25.9008 C.ar      1 UNK         0.0000 
     34 C34         4.5615   54.4963   26.7704 C.ar      1 UNK         0.0000 
     35 C35         5.8612   54.6189   26.2882 C.ar      1 UNK         0.0000 
     36 C36         6.1055   54.4746   24.9258 C.ar      1 UNK         0.0000 
     37 H37         5.7576   54.1019   14.9989 H         1 UNK         0.0000 
     38 H38         5.6371   52.5103   15.7193 H         1 UNK         0.0000 
     39 H39         4.2866   53.6512   15.8300 H         1 UNK         0.0000 
     40 H40         7.7059   54.9690   16.2875 H         1 UNK         0.0000 
     41 H41         7.8776   54.4725   19.2948 H         1 UNK         0.0000 
     42 H42         9.0842   55.2728   18.3044 H         1 UNK         0.0000 
     43 H43         7.5057   56.0110   18.5285 H         1 UNK         0.0000 
     44 H44         8.0472   52.2703   17.6816 H         1 UNK         0.0000 
     45 H45         8.0323   52.5604   15.9490 H         1 UNK         0.0000 
     46 H46         9.3469   53.1826   16.9245 H         1 UNK         0.0000 
     47 H47         5.5712   52.2896   18.1666 H         1 UNK         0.0000 
     48 H48         3.6017   51.3581   19.1415 H         1 UNK         0.0000 
     49 H49         3.9042   50.0972   21.2820 H         1 UNK         0.0000 
     50 H50         2.7144   51.0528   22.0744 H         1 UNK         0.0000 
     51 H51         2.3427   49.2533   19.5605 H         1 UNK         0.0000 
     52 H52         1.6795   48.9647   21.1557 H         1 UNK         0.0000 
     53 H53         1.1876   51.5240   18.2833 H         1 UNK         0.0000 
     54 H54         0.0404   52.3644   19.2870 H         1 UNK         0.0000 
     55 H55         1.7956   53.1332   20.8750 H         1 UNK         0.0000 
     56 H56         2.3038   53.4636   19.2584 H         1 UNK         0.0000 
     57 H57        -0.1497   48.7543   23.4672 H         1 UNK         0.0000 
     58 H58         0.4334   49.3983   25.7723 H         1 UNK         0.0000 
     59 H59         0.4039   53.5362   24.6298 H         1 UNK         0.0000 
     60 H60        -0.1858   52.8966   22.3191 H         1 UNK         0.0000 
     61 H61         3.7161   52.8254   22.3977 H         1 UNK         0.0000 
     62 H62         2.9073   53.9058   23.8830 H         1 UNK         0.0000 
     63 H63         2.4972   54.1620   26.2835 H         1 UNK         0.0000 
     64 H64         4.3690   54.6090   27.8280 H         1 UNK         0.0000 
     65 H65         6.6737   54.8189   26.9722 H         1 UNK         0.0000 
     66 H66         7.1214   54.5617   24.5636 H         1 UNK         0.0000 
@<TRIPOS>BOND
     1    1    2 1    
     2    1   37 1    
     3    1   38 1    
     4    1   39 1    
     5    2    3 1    
     6    2    4 1    
     7    2    7 1    
     8    4    5 1    
     9    4    6 1    
    10    4   40 1    
    11    5   41 1    
    12    5   42 1    
    13    5   43 1    
    14    6   44 1    
    15    6   45 1    
    16    6   46 1    
    17    7    8 am   BACKBONE|DICT|INTERRES
    18    7   47 1    
    19    8    9 2    
    20    8   10 1    
    21   10   11 1    
    22   10   12 1    
    23   10   28 1    
    24   12   17 1    
    25   12   13 1    
    26   12   48 1    
    27   13   14 1    
    28   13   49 1    
    29   13   50 1    
    30   14   15 1    
    31   14   51 1    
    32   14   52 1    
    33   15   16 1    
    34   15   18 1    
    35   16   17 1    
    36   16   53 1    
    37   16   54 1    
    38   17   55 1    
    39   17   56 1    
    40   18   19 2    
    41   18   20 2    
    42   18   21 1    
    43   21   26 ar   
    44   21   22 ar   
    45   22   23 ar   
    46   22   57 1    
    47   23   24 ar   
    48   23   58 1    
    49   24   25 ar   
    50   24   27 1    
    51   25   26 ar   
    52   25   59 1    
    53   26   60 1    
    54   28   29 am   BACKBONE|DICT|INTERRES
    55   28   61 1    
    56   29   30 2    
    57   29   31 1    
    58   31   36 ar   
    59   31   32 ar   
    60   32   33 ar   
    61   32   62 1    
    62   33   34 ar   
    63   33   63 1    
    64   34   35 ar   
    65   34   64 1    
    66   35   36 ar   
    67   35   65 1    
    68   36   66 1    
@<TRIPOS>SUBSTRUCTURE
     1 UNK         1 GROUP             0       ****    0 ROOT    
