@<TRIPOS>MOLECULE
ZINC39006685_910
55   58    1
SMALL
USER_CHARGES


@<TRIPOS>ATOM
      1 C1         -0.5884   50.9879   26.8933 C.3       1 UNK         0.0000 
      2 C2          0.2350   51.4043   25.6799 C.2       1 UNK         0.0000 
      3 O3          0.7728   52.5093   25.6726 O.2       1 UNK         0.0000 
      4 N4          0.3305   50.4872   24.6980 N.am      1 UNK         0.0000 
      5 C5          1.0466   50.5562   23.4884 C.ar      1 UNK         0.0000 
      6 C6          1.2923   49.3396   22.8545 C.ar      1 UNK         0.0000 
      7 C7          2.0344   49.2875   21.6760 C.ar      1 UNK         0.0000 
      8 C8          2.5286   50.4562   21.1083 C.ar      1 UNK         0.0000 
      9 C9          2.2685   51.6884   21.7130 C.ar      1 UNK         0.0000 
     10 C10         1.5165   51.7379   22.8918 C.ar      1 UNK         0.0000 
     11 N11         2.7044   52.8968   21.1595 N.pl3     1 UNK         0.0000 
     12 C12         3.9454   53.0528   20.3928 C.3       1 UNK         0.0000 
     13 H13         4.3433   52.0783   20.1075 H         1 UNK         0.0000 
     14 C14         5.0567   53.7609   21.2493 C.2       1 UNK         0.0000 
     15 N15         5.2369   53.3405   22.4428 N.2       1 UNK         0.0000 
     16 S16         6.4653   54.1164   23.4475 S.o2      1 UNK         0.0000 
     17 O17         7.6574   53.2969   23.6821 O.2       1 UNK         0.0000 
     18 O18         6.7043   55.5531   23.2724 O.2       1 UNK         0.0000 
     19 C19         5.6267   54.0970   25.0473 C.ar      1 UNK         0.0000 
     20 C20         6.4115   54.1010   26.2059 C.ar      1 UNK         0.0000 
     21 C21         5.8141   54.1042   27.4623 C.ar      1 UNK         0.0000 
     22 C22         4.4258   54.1029   27.5637 C.ar      1 UNK         0.0000 
     23 C23         3.6341   54.1033   26.4168 C.ar      1 UNK         0.0000 
     24 C24         4.2305   54.1079   25.1571 C.ar      1 UNK         0.0000 
     25 Cl25        3.6835   54.1182   29.1226 Cl        1 UNK         0.0000 
     26 N26         5.8023   54.7797   20.6419 N.2       1 UNK         0.0000 
     27 C27         5.5049   55.2967   19.5059 C.2       1 UNK         0.0000 
     28 C28         6.2014   56.4393   18.9647 C.2       1 UNK         0.0000 
     29 C29         5.7961   57.0752   17.8411 C.2       1 UNK         0.0000 
     30 C30         4.6152   56.6020   17.0917 C.2       1 UNK         0.0000 
     31 C31         3.9562   55.4764   17.4879 C.2       1 UNK         0.0000 
     32 C32         4.3436   54.7989   18.6463 C.2       1 UNK         0.0000 
     33 N33         3.6843   53.7284   19.0741 N.pl3     1 UNK         0.0000 
     34 O34         4.0851   57.2733   16.0313 O.3       1 UNK         0.0000 
     35 C35         4.5461   58.5960   15.7522 C.3       1 UNK         0.0000 
     36 H36         0.0714   50.6387   27.6882 H         1 UNK         0.0000 
     37 H37        -1.2850   50.1814   26.6591 H         1 UNK         0.0000 
     38 H38        -1.1627   51.8333   27.2730 H         1 UNK         0.0000 
     39 H39        -0.0938   49.5928   24.8924 H         1 UNK         0.0000 
     40 H40         0.9351   48.4236   23.2970 H         1 UNK         0.0000 
     41 H41         2.2394   48.3388   21.2024 H         1 UNK         0.0000 
     42 H42         3.0847   50.3861   20.1852 H         1 UNK         0.0000 
     43 H43         1.3147   52.6987   23.3390 H         1 UNK         0.0000 
     44 H44         2.2952   53.7498   21.5184 H         1 UNK         0.0000 
     45 H45         7.4884   54.0985   26.1369 H         1 UNK         0.0000 
     46 H46         6.4262   54.1129   28.3532 H         1 UNK         0.0000 
     47 H47         2.5579   54.1035   26.5038 H         1 UNK         0.0000 
     48 H48         3.5987   54.1190   24.2814 H         1 UNK         0.0000 
     49 H49         7.0794   56.8099   19.4727 H         1 UNK         0.0000 
     50 H50         6.3691   57.9211   17.4898 H         1 UNK         0.0000 
     51 H51         3.0835   55.1460   16.9425 H         1 UNK         0.0000 
     52 H52         3.9549   59.0199   14.9402 H         1 UNK         0.0000 
     53 H53         4.4291   59.2614   16.6106 H         1 UNK         0.0000 
     54 H54         5.5889   58.6067   15.4318 H         1 UNK         0.0000 
     55 H55         2.8931   53.3965   18.5310 H         1 UNK         0.0000 
@<TRIPOS>BOND
     1    1    2 1    
     2    1   36 1    
     3    1   37 1    
     4    1   38 1    
     5    2    3 2    
     6    2    4 am   BACKBONE|DICT|INTERRES
     7    4    5 1    
     8    4   39 1    
     9    5   10 ar   
    10    5    6 ar   
    11    6    7 ar   
    12    6   40 1    
    13    7    8 ar   
    14    7   41 1    
    15    8    9 ar   
    16    8   42 1    
    17    9   10 ar   
    18    9   11 1    
    19   10   43 1    
    20   11   12 1    
    21   11   44 1    
    22   12   13 1    
    23   12   33 1    
    24   12   14 1    
    25   14   15 2    
    26   14   26 1    
    27   15   16 1    
    28   16   17 2    
    29   16   18 2    
    30   16   19 1    
    31   19   24 ar   
    32   19   20 ar   
    33   20   21 ar   
    34   20   45 1    
    35   21   22 ar   
    36   21   46 1    
    37   22   23 ar   
    38   22   25 1    
    39   23   24 ar   
    40   23   47 1    
    41   24   48 1    
    42   26   27 2    
    43   27   32 1    
    44   27   28 1    
    45   28   29 2    
    46   28   49 1    
    47   29   30 1    
    48   29   50 1    
    49   30   31 2    
    50   30   34 1    
    51   31   32 1    
    52   31   51 1    
    53   32   33 2    
    54   33   55 1    
    55   34   35 1    
    56   35   52 1    
    57   35   53 1    
    58   35   54 1    
@<TRIPOS>SUBSTRUCTURE
     1 UNK         1 GROUP             0       ****    0 ROOT    
