@<TRIPOS>MOLECULE
ZINC04052991_4673
30   32    1
SMALL
USER_CHARGES


@<TRIPOS>ATOM
      1 C1         -1.1169   51.7461   26.2420 C.2       1 UNK         0.0000 
      2 C2          0.0338   52.4963   26.0042 C.2       1 UNK         0.0000 
      3 C3          0.7890   52.4965   27.1738 C.2       1 UNK         0.0000 
      4 O4          0.1409   51.7377   28.0989 O.3       1 UNK         0.0000 
      5 C5         -1.0156   51.2968   27.5435 C.2       1 UNK         0.0000 
      6 C6          2.1011   53.0734   27.5450 C.2       1 UNK         0.0000 
      7 C7          3.0463   53.5818   26.5864 C.ar      1 UNK         0.0000 
      8 C8          4.3037   53.9262   27.1585 C.ar      1 UNK         0.0000 
      9 C9          5.3716   54.3291   26.3505 C.ar      1 UNK         0.0000 
     10 C10         5.1500   54.3800   24.9744 C.ar      1 UNK         0.0000 
     11 C11         3.8732   54.0964   24.4875 C.ar      1 UNK         0.0000 
     12 N12         2.8368   53.6963   25.2663 N.ar      1 UNK         0.0000 
     13 C13         6.3044   54.7067   24.0395 C.3       1 UNK         0.0000 
     14 F14         7.1688   53.6968   24.0572 F         1 UNK         0.0000 
     15 F15         5.9136   54.8963   22.7790 F         1 UNK         0.0000 
     16 F16         6.9209   55.8028   24.4728 F         1 UNK         0.0000 
     17 S17         4.3043   53.7225   28.8854 S.3       1 UNK         0.0000 
     18 C18         2.6400   53.1757   28.8407 C.2       1 UNK         0.0000 
     19 C19         2.0746   52.8161   30.1155 C.2       1 UNK         0.0000 
     20 O20         2.6934   52.0973   30.9073 O.2       1 UNK         0.0000 
     21 N21         0.8753   53.3799   30.3592 N.am      1 UNK         0.0000 
     22 N22         0.3041   53.2969   31.6382 N.3       1 UNK         0.0000 
     23 H23        -1.9161   51.5386   25.5459 H         1 UNK         0.0000 
     24 H24         0.2873   52.9862   25.0759 H         1 UNK         0.0000 
     25 H25        -1.6340   50.6607   28.1628 H         1 UNK         0.0000 
     26 H26         6.3410   54.5503   26.7762 H         1 UNK         0.0000 
     27 H27         3.6612   54.1376   23.4282 H         1 UNK         0.0000 
     28 H28         0.5193   54.1399   29.7962 H         1 UNK         0.0000 
     29 H29        -0.3621   52.5270   31.6604 H         1 UNK         0.0000 
     30 H30         1.0392   53.0532   32.2901 H         1 UNK         0.0000 
@<TRIPOS>BOND
     1    1    5 2    
     2    1    2 1    
     3    1   23 1    
     4    2    3 2    
     5    2   24 1    
     6    3    4 1    
     7    3    6 1    
     8    4    5 1    
     9    5   25 1    
    10    6   18 2    
    11    6    7 1    
    12    7   12 ar   
    13    7    8 ar   
    14    8    9 ar   
    15    8   17 1    
    16    9   10 ar   
    17    9   26 1    
    18   10   11 ar   
    19   10   13 1    
    20   11   12 ar   
    21   11   27 1    
    22   13   14 1    
    23   13   15 1    
    24   13   16 1    
    25   17   18 1    
    26   18   19 1    
    27   19   20 2    
    28   19   21 am   BACKBONE|DICT|INTERRES
    29   21   22 1    
    30   21   28 1    
    31   22   29 1    
    32   22   30 1    
@<TRIPOS>SUBSTRUCTURE
     1 UNK         1 GROUP             0       ****    0 ROOT    
