@<TRIPOS>MOLECULE
ZINC09152121_3507
58   60    1
SMALL
USER_CHARGES


@<TRIPOS>ATOM
      1 C1         -0.5292   51.9064   29.0195 C.3       1 UNK         0.0000 
      2 C2          0.6309   52.8691   28.7939 C.ar      1 UNK         0.0000 
      3 C3          0.9877   53.7293   29.8341 C.ar      1 UNK         0.0000 
      4 C4          2.0510   54.6097   29.6824 C.ar      1 UNK         0.0000 
      5 C5          2.7797   54.6234   28.4980 C.ar      1 UNK         0.0000 
      6 C6          2.4329   53.7875   27.4241 C.ar      1 UNK         0.0000 
      7 C7          1.3414   52.8989   27.5733 C.ar      1 UNK         0.0000 
      8 C8          0.9011   51.9657   26.4394 C.3       1 UNK         0.0000 
      9 N9          3.1029   53.8402   26.1803 N.am      1 UNK         0.0000 
     10 C10         4.2958   54.3799   25.8458 C.2       1 UNK         0.0000 
     11 O11         5.0842   54.8960   26.6375 O.2       1 UNK         0.0000 
     12 C12         4.6392   54.3089   24.3513 C.3       1 UNK         0.0000 
     13 S13         6.3042   54.8969   23.8894 S.3       1 UNK         0.0000 
     14 C14         6.3687   54.9483   22.1200 C.ar      1 UNK         0.0000 
     15 N15         5.4039   54.2955   21.4179 N.ar      1 UNK         0.0000 
     16 C16         5.5044   54.3397   20.0620 C.ar      1 UNK         0.0000 
     17 C17         6.5319   55.0299   19.4101 C.ar      1 UNK         0.0000 
     18 C18         7.4546   55.6980   20.2243 C.ar      1 UNK         0.0000 
     19 N19         7.3942   55.6546   21.5792 N.ar      1 UNK         0.0000 
     20 N20         8.4718   56.4717   19.6801 N.pl3     1 UNK         0.0000 
     21 S21         6.6340   55.0359   17.6179 S.o2      1 UNK         0.0000 
     22 O22         7.1212   56.3587   17.2067 O.2       1 UNK         0.0000 
     23 O23         5.3595   54.5167   17.1077 O.2       1 UNK         0.0000 
     24 C24         7.9157   53.8498   17.2000 C.ar      1 UNK         0.0000 
     25 C25         7.5711   52.5448   16.8436 C.ar      1 UNK         0.0000 
     26 C26         8.5706   51.6487   16.4726 C.ar      1 UNK         0.0000 
     27 C27         9.9144   52.0270   16.4817 C.ar      1 UNK         0.0000 
     28 C28        10.2510   53.3323   16.8495 C.ar      1 UNK         0.0000 
     29 C29         9.2582   54.2435   17.2056 C.ar      1 UNK         0.0000 
     30 C30        11.0124   51.0309   16.0845 C.3       1 UNK         0.0000 
     31 C31        10.7765   49.6001   16.6251 C.3       1 UNK         0.0000 
     32 C32        11.2379   51.0278   14.5641 C.3       1 UNK         0.0000 
     33 H33        -0.1915   50.8825   28.8646 H         1 UNK         0.0000 
     34 H34        -0.9407   51.9628   30.0293 H         1 UNK         0.0000 
     35 H35        -1.3325   52.0964   28.3074 H         1 UNK         0.0000 
     36 H36         0.4353   53.7193   30.7642 H         1 UNK         0.0000 
     37 H37         2.3048   55.2930   30.4813 H         1 UNK         0.0000 
     38 H38         3.6008   55.3129   28.4304 H         1 UNK         0.0000 
     39 H39        -0.1285   52.1836   26.1593 H         1 UNK         0.0000 
     40 H40         1.5046   52.0261   25.5345 H         1 UNK         0.0000 
     41 H41         0.9277   50.9300   26.7764 H         1 UNK         0.0000 
     42 H42         2.6182   53.3557   25.4427 H         1 UNK         0.0000 
     43 H43         3.9062   54.8973   23.8015 H         1 UNK         0.0000 
     44 H44         4.5404   53.2881   24.0034 H         1 UNK         0.0000 
     45 H45         4.7465   53.8078   19.5030 H         1 UNK         0.0000 
     46 H46         8.4053   56.6940   18.6944 H         1 UNK         0.0000 
     47 H47         9.1047   56.9665   20.2951 H         1 UNK         0.0000 
     48 H48         6.5379   52.2271   16.8342 H         1 UNK         0.0000 
     49 H49         8.3043   50.6493   16.1714 H         1 UNK         0.0000 
     50 H50        11.2846   53.6455   16.8582 H         1 UNK         0.0000 
     51 H51         9.5383   55.2517   17.4724 H         1 UNK         0.0000 
     52 H52        11.9370   51.3724   16.5573 H         1 UNK         0.0000 
     53 H53        10.5546   49.6102   17.6927 H         1 UNK         0.0000 
     54 H54        11.6531   48.9645   16.4799 H         1 UNK         0.0000 
     55 H55         9.9462   49.1026   16.1224 H         1 UNK         0.0000 
     56 H56        11.4714   52.0275   14.1968 H         1 UNK         0.0000 
     57 H57        12.0716   50.3785   14.2847 H         1 UNK         0.0000 
     58 H58        10.3572   50.6751   14.0248 H         1 UNK         0.0000 
@<TRIPOS>BOND
     1    1    2 1    
     2    1   33 1    
     3    1   34 1    
     4    1   35 1    
     5    2    7 ar   
     6    2    3 ar   
     7    3    4 ar   
     8    3   36 1    
     9    4    5 ar   
    10    4   37 1    
    11    5    6 ar   
    12    5   38 1    
    13    6    7 ar   
    14    6    9 1    
    15    7    8 1    
    16    8   39 1    
    17    8   40 1    
    18    8   41 1    
    19    9   10 am   BACKBONE|DICT|INTERRES
    20    9   42 1    
    21   10   11 2    
    22   10   12 1    
    23   12   13 1    
    24   12   43 1    
    25   12   44 1    
    26   13   14 1    
    27   14   19 ar   
    28   14   15 ar   
    29   15   16 ar   
    30   16   17 ar   
    31   16   45 1    
    32   17   18 ar   
    33   17   21 1    
    34   18   19 ar   
    35   18   20 1    
    36   20   46 1    
    37   20   47 1    
    38   21   22 2    
    39   21   23 2    
    40   21   24 1    
    41   24   29 ar   
    42   24   25 ar   
    43   25   26 ar   
    44   25   48 1    
    45   26   27 ar   
    46   26   49 1    
    47   27   28 ar   
    48   27   30 1    
    49   28   29 ar   
    50   28   50 1    
    51   29   51 1    
    52   30   31 1    
    53   30   32 1    
    54   30   52 1    
    55   31   53 1    
    56   31   54 1    
    57   31   55 1    
    58   32   56 1    
    59   32   57 1    
    60   32   58 1    
@<TRIPOS>SUBSTRUCTURE
     1 UNK         1 GROUP             0       ****    0 ROOT    
