@<TRIPOS>MOLECULE
ZINC16574914_5484
66   69    1
SMALL
USER_CHARGES


@<TRIPOS>ATOM
      1 C1          2.2179   47.7712   19.1273 C.3       1 UNK         0.0000 
      2 C2          1.0809   48.7768   18.8610 C.3       1 UNK         0.0000 
      3 C3          0.7050   48.7722   17.3612 C.3       1 UNK         0.0000 
      4 C4         -0.1316   48.4982   19.7905 C.2       1 UNK         0.0000 
      5 O5         -1.0632   47.8226   19.3443 O.2       1 UNK         0.0000 
      6 N6         -0.1981   49.0796   21.0208 N.am      1 UNK         0.0000 
      7 C7          0.9457   49.7240   21.6878 C.3       1 UNK         0.0000 
      8 C8          0.5013   51.1250   22.1688 C.3       1 UNK         0.0000 
      9 N9         -0.7402   51.1390   22.9596 N.pl3     1 UNK         0.0000 
     10 C10        -1.8218   50.4086   22.2860 C.3       1 UNK         0.0000 
     11 C11        -1.4254   48.9832   21.8318 C.3       1 UNK         0.0000 
     12 C12        -0.7216   51.2211   24.3458 C.ar      1 UNK         0.0000 
     13 C13         0.2716   50.5863   25.1008 C.ar      1 UNK         0.0000 
     14 C14         0.3049   50.7342   26.4832 C.ar      1 UNK         0.0000 
     15 C15        -0.6423   51.5385   27.1185 C.ar      1 UNK         0.0000 
     16 C16        -1.6907   52.0974   26.3897 C.ar      1 UNK         0.0000 
     17 C17        -1.7304   51.9320   25.0063 C.ar      1 UNK         0.0000 
     18 N18        -0.5212   51.8363   28.4853 N.pl3     1 UNK         0.0000 
     19 C19         0.4794   52.5483   29.0866 C.2       1 UNK         0.0000 
     20 S20         0.3072   52.8968   30.7082 S.2       1 UNK         0.0000 
     21 N21         1.5167   52.9160   28.2652 N.am      1 UNK         0.0000 
     22 C22         2.6981   53.5395   28.4794 C.2       1 UNK         0.0000 
     23 O23         3.1386   53.9196   29.5694 O.2       1 UNK         0.0000 
     24 C24         3.4085   53.7170   27.2359 C.2       1 UNK         0.0000 
     25 C25         4.5962   54.3445   27.1499 C.2       1 UNK         0.0000 
     26 C26         5.3273   54.5783   25.9252 C.2       1 UNK         0.0000 
     27 C27         6.4978   55.2660   25.6629 C.2       1 UNK         0.0000 
     28 C28         6.7008   55.2225   24.2841 C.2       1 UNK         0.0000 
     29 C29         5.6492   54.4966   23.7401 C.2       1 UNK         0.0000 
     30 O30         4.8286   54.1022   24.7503 O.3       1 UNK         0.0000 
     31 C31         5.2467   54.1656   22.3410 C.ar      1 UNK         0.0000 
     32 C32         5.9040   54.7890   21.2740 C.ar      1 UNK         0.0000 
     33 C33         5.5409   54.4969   19.9614 C.ar      1 UNK         0.0000 
     34 C34         4.5209   53.5812   19.7152 C.ar      1 UNK         0.0000 
     35 C35         3.8476   52.9699   20.7693 C.ar      1 UNK         0.0000 
     36 C36         4.2032   53.2709   22.0812 C.ar      1 UNK         0.0000 
     37 H37         2.5385   47.7794   20.1699 H         1 UNK         0.0000 
     38 H38         1.9044   46.7541   18.8891 H         1 UNK         0.0000 
     39 H39         3.0954   47.9992   18.5194 H         1 UNK         0.0000 
     40 H40         1.4448   49.7853   19.0554 H         1 UNK         0.0000 
     41 H41        -0.0854   49.4926   17.1447 H         1 UNK         0.0000 
     42 H42         1.5631   49.0386   16.7420 H         1 UNK         0.0000 
     43 H43         0.3545   47.7929   17.0323 H         1 UNK         0.0000 
     44 H44         1.8407   49.8093   21.0746 H         1 UNK         0.0000 
     45 H45         1.2299   49.1203   22.5503 H         1 UNK         0.0000 
     46 H46         0.3130   51.7544   21.2972 H         1 UNK         0.0000 
     47 H47         1.3106   51.5934   22.7305 H         1 UNK         0.0000 
     48 H48        -2.7029   50.3480   22.9266 H         1 UNK         0.0000 
     49 H49        -2.0977   50.9994   21.4109 H         1 UNK         0.0000 
     50 H50        -1.2344   48.3619   22.7078 H         1 UNK         0.0000 
     51 H51        -2.2583   48.5280   21.2936 H         1 UNK         0.0000 
     52 H52         1.0327   49.9888   24.6223 H         1 UNK         0.0000 
     53 H53         1.0917   50.2603   27.0522 H         1 UNK         0.0000 
     54 H54        -2.4442   52.6969   26.8785 H         1 UNK         0.0000 
     55 H55        -2.5216   52.4007   24.4398 H         1 UNK         0.0000 
     56 H56        -1.3023   51.5682   29.0676 H         1 UNK         0.0000 
     57 H57         1.3654   52.6705   27.2990 H         1 UNK         0.0000 
     58 H58         2.9447   53.3291   26.3380 H         1 UNK         0.0000 
     59 H59         5.0808   54.7388   28.0339 H         1 UNK         0.0000 
     60 H60         7.1044   55.7676   26.3986 H         1 UNK         0.0000 
     61 H61         7.5045   55.6892   23.7355 H         1 UNK         0.0000 
     62 H62         6.7013   55.4950   21.4542 H         1 UNK         0.0000 
     63 H63         6.0529   54.9706   19.1364 H         1 UNK         0.0000 
     64 H64         4.2460   53.3445   18.6970 H         1 UNK         0.0000 
     65 H65         3.0488   52.2718   20.5663 H         1 UNK         0.0000 
     66 H66         3.6620   52.8051   22.8896 H         1 UNK         0.0000 
@<TRIPOS>BOND
     1    1    2 1    
     2    1   37 1    
     3    1   38 1    
     4    1   39 1    
     5    2    3 1    
     6    2    4 1    
     7    2   40 1    
     8    3   41 1    
     9    3   42 1    
    10    3   43 1    
    11    4    5 2    
    12    4    6 am   BACKBONE|DICT|INTERRES
    13    6   11 1    
    14    6    7 1    
    15    7    8 1    
    16    7   44 1    
    17    7   45 1    
    18    8    9 1    
    19    8   46 1    
    20    8   47 1    
    21    9   10 1    
    22    9   12 1    
    23   10   11 1    
    24   10   48 1    
    25   10   49 1    
    26   11   50 1    
    27   11   51 1    
    28   12   17 ar   
    29   12   13 ar   
    30   13   14 ar   
    31   13   52 1    
    32   14   15 ar   
    33   14   53 1    
    34   15   16 ar   
    35   15   18 1    
    36   16   17 ar   
    37   16   54 1    
    38   17   55 1    
    39   18   19 1    
    40   18   56 1    
    41   19   20 2    
    42   19   21 am   BACKBONE|DICT|INTERRES
    43   21   22 am   BACKBONE|DICT|INTERRES
    44   21   57 1    
    45   22   23 2    
    46   22   24 1    
    47   24   25 2    
    48   24   58 1    
    49   25   26 1    
    50   25   59 1    
    51   26   30 1    
    52   26   27 2    
    53   27   28 1    
    54   27   60 1    
    55   28   29 2    
    56   28   61 1    
    57   29   30 1    
    58   29   31 1    
    59   31   36 ar   
    60   31   32 ar   
    61   32   33 ar   
    62   32   62 1    
    63   33   34 ar   
    64   33   63 1    
    65   34   35 ar   
    66   34   64 1    
    67   35   36 ar   
    68   35   65 1    
    69   36   66 1    
@<TRIPOS>SUBSTRUCTURE
     1 UNK         1 GROUP             0       ****    0 ROOT    
