@<TRIPOS>MOLECULE
ZINC00825848_5217
54   56    1
SMALL
USER_CHARGES


@<TRIPOS>ATOM
      1 C1          2.8133   52.9685   22.8771 C.3       1 UNK         0.0000 
      2 C2          1.9041   52.5408   24.0286 C.2       1 UNK         0.0000 
      3 C3          1.0348   51.4895   24.0842 C.2       1 UNK         0.0000 
      4 C4          0.1877   51.2027   25.3639 C.3       1 UNK         0.0000 
      5 H5          0.4118   50.1824   25.6787 H         1 UNK         0.0000 
      6 C6          0.5991   52.1393   26.5443 C.2       1 UNK         0.0000 
      7 C7          1.5044   53.1350   26.3612 C.2       1 UNK         0.0000 
      8 N8          2.1318   53.2985   25.1519 N.pl3     1 UNK         0.0000 
      9 C9          1.9576   54.0941   27.4588 C.3       1 UNK         0.0000 
     10 C10         1.7489   53.5080   28.8820 C.3       1 UNK         0.0000 
     11 C11         0.3059   52.9547   28.9803 C.3       1 UNK         0.0000 
     12 C12        -0.1018   52.0034   27.8462 C.2       1 UNK         0.0000 
     13 O13        -1.0911   51.2967   27.9952 O.2       1 UNK         0.0000 
     14 C14         2.7674   52.3764   29.1674 C.3       1 UNK         0.0000 
     15 C15         1.8373   54.6782   29.8804 C.3       1 UNK         0.0000 
     16 C16        -1.3354   51.1962   25.1051 C.ar      1 UNK         0.0000 
     17 C17        -1.9321   52.4042   24.7199 C.ar      1 UNK         0.0000 
     18 C18        -3.3076   52.4967   24.5359 C.ar      1 UNK         0.0000 
     19 C19        -4.1045   51.3672   24.7082 C.ar      1 UNK         0.0000 
     20 C20        -3.5295   50.1503   25.0789 C.ar      1 UNK         0.0000 
     21 C21        -2.1457   50.0570   25.2895 C.ar      1 UNK         0.0000 
     22 O22        -1.6075   48.8531   25.6817 O.3       1 UNK         0.0000 
     23 Br23       -4.6642   48.6346   25.3091 Br        1 UNK         0.0000 
     24 Br24       -4.0941   54.1699   24.0827 Br        1 UNK         0.0000 
     25 C25         0.7505   50.6059   22.9231 C.2       1 UNK         0.0000 
     26 O26         0.3078   49.4619   23.0532 O.2       1 UNK         0.0000 
     27 O27         0.9527   51.1875   21.7135 O.3       1 UNK         0.0000 
     28 C28         0.8186   50.4761   20.4863 C.3       1 UNK         0.0000 
     29 C29         0.5998   51.5265   19.3874 C.3       1 UNK         0.0000 
     30 C30         2.0702   49.6199   20.2157 C.3       1 UNK         0.0000 
     31 H31         2.3056   53.7003   22.2479 H         1 UNK         0.0000 
     32 H32         3.7414   53.4178   23.2334 H         1 UNK         0.0000 
     33 H33         3.1193   52.1282   22.2538 H         1 UNK         0.0000 
     34 H34         2.7796   54.0667   25.0647 H         1 UNK         0.0000 
     35 H35         3.0216   54.3213   27.3658 H         1 UNK         0.0000 
     36 H36         1.3877   55.0029   27.2916 H         1 UNK         0.0000 
     37 H37         0.1007   52.4765   29.9389 H         1 UNK         0.0000 
     38 H38        -0.3866   53.7916   28.8918 H         1 UNK         0.0000 
     39 H39         2.6112   51.9542   30.1598 H         1 UNK         0.0000 
     40 H40         2.6984   51.5580   28.4499 H         1 UNK         0.0000 
     41 H41         3.7915   52.7499   29.1309 H         1 UNK         0.0000 
     42 H42         1.5400   54.3610   30.8811 H         1 UNK         0.0000 
     43 H43         2.8507   55.0765   29.9400 H         1 UNK         0.0000 
     44 H44         1.1785   55.5050   29.6079 H         1 UNK         0.0000 
     45 H45        -1.3214   53.2861   24.5875 H         1 UNK         0.0000 
     46 H46        -5.1723   51.4355   24.5626 H         1 UNK         0.0000 
     47 H47        -1.6555   48.7085   26.6450 H         1 UNK         0.0000 
     48 H48        -0.0634   49.8326   20.5236 H         1 UNK         0.0000 
     49 H49         0.4938   51.0581   18.4078 H         1 UNK         0.0000 
     50 H50        -0.3044   52.1075   19.5752 H         1 UNK         0.0000 
     51 H51         1.4349   52.2259   19.3308 H         1 UNK         0.0000 
     52 H52         1.9896   49.0915   19.2649 H         1 UNK         0.0000 
     53 H53         2.9718   50.2323   20.1740 H         1 UNK         0.0000 
     54 H54         2.2156   48.8704   20.9948 H         1 UNK         0.0000 
@<TRIPOS>BOND
     1    1    2 1    
     2    1   31 1    
     3    1   32 1    
     4    1   33 1    
     5    2    8 1    
     6    2    3 2    
     7    3    4 1    
     8    3   25 1    
     9    4    5 1    
    10    4    6 1    
    11    4   16 1    
    12    6   12 1    
    13    6    7 2    
    14    7    8 1    
    15    7    9 1    
    16    8   34 1    
    17    9   10 1    
    18    9   35 1    
    19    9   36 1    
    20   10   11 1    
    21   10   14 1    
    22   10   15 1    
    23   11   12 1    
    24   11   37 1    
    25   11   38 1    
    26   12   13 2    
    27   14   39 1    
    28   14   40 1    
    29   14   41 1    
    30   15   42 1    
    31   15   43 1    
    32   15   44 1    
    33   16   21 ar   
    34   16   17 ar   
    35   17   18 ar   
    36   17   45 1    
    37   18   19 ar   
    38   18   24 1    
    39   19   20 ar   
    40   19   46 1    
    41   20   21 ar   
    42   20   23 1    
    43   21   22 1    
    44   22   47 1    
    45   25   26 2    
    46   25   27 1    
    47   27   28 1    
    48   28   29 1    
    49   28   30 1    
    50   28   48 1    
    51   29   49 1    
    52   29   50 1    
    53   29   51 1    
    54   30   52 1    
    55   30   53 1    
    56   30   54 1    
@<TRIPOS>SUBSTRUCTURE
     1 UNK         1 GROUP             0       ****    0 ROOT    
