@<TRIPOS>MOLECULE
ZINC40828883_3777
32   33    1
SMALL
USER_CHARGES


@<TRIPOS>ATOM
      1 C1          2.0550   53.5662   24.8229 C.3       1 UNK         0.0000 
      2 C2          3.3127   53.9453   25.5998 C.ar      1 UNK         0.0000 
      3 C3          4.3803   54.4950   24.8903 C.ar      1 UNK         0.0000 
      4 C4          5.5545   54.8375   25.5473 C.ar      1 UNK         0.0000 
      5 C5          5.6949   54.6239   26.9141 C.ar      1 UNK         0.0000 
      6 C6          4.6339   54.0903   27.6355 C.ar      1 UNK         0.0000 
      7 C7          3.4268   53.7636   26.9934 C.ar      1 UNK         0.0000 
      8 N8          2.3211   53.2392   27.6798 N.am      1 UNK         0.0000 
      9 C9          2.0158   53.3233   28.9883 C.2       1 UNK         0.0000 
     10 O10         2.6936   53.9050   29.8404 O.2       1 UNK         0.0000 
     11 C11         0.7812   52.6577   29.3396 C.ar      1 UNK         0.0000 
     12 C12         0.3021   52.4974   30.6362 C.ar      1 UNK         0.0000 
     13 N13        -0.8691   51.8152   30.4814 N.pl3     1 UNK         0.0000 
     14 H14        -1.4488   51.5191   31.2623 H         1 UNK         0.0000 
     15 N15        -1.2099   51.5970   29.2164 N.2       1 UNK         0.0000 
     16 C16        -0.2170   52.0770   28.5065 C.ar      1 UNK         0.0000 
     17 C17        -0.2987   51.9285   27.0004 C.3       1 UNK         0.0000 
     18 C18         0.8186   52.8966   31.9988 C.3       1 UNK         0.0000 
     19 I19         7.1032   55.6944   24.4676 I         1 UNK         0.0000 
     20 H20         1.8625   52.4949   24.9190 H         1 UNK         0.0000 
     21 H21         1.1888   54.0966   25.2128 H         1 UNK         0.0000 
     22 H22         2.1362   53.7966   23.7584 H         1 UNK         0.0000 
     23 H23         4.3058   54.6571   23.8249 H         1 UNK         0.0000 
     24 H24         6.6139   54.8839   27.4189 H         1 UNK         0.0000 
     25 H25         4.7792   53.9273   28.6914 H         1 UNK         0.0000 
     26 H26         1.6345   52.7846   27.0980 H         1 UNK         0.0000 
     27 H27        -0.3228   52.8966   26.5042 H         1 UNK         0.0000 
     28 H28         0.5435   51.3584   26.6079 H         1 UNK         0.0000 
     29 H29        -1.1964   51.3955   26.6790 H         1 UNK         0.0000 
     30 H30         1.8727   52.6435   32.1021 H         1 UNK         0.0000 
     31 H31         0.7050   53.9677   32.1637 H         1 UNK         0.0000 
     32 H32         0.3045   52.4011   32.8184 H         1 UNK         0.0000 
@<TRIPOS>BOND
     1    1    2 1    
     2    1   20 1    
     3    1   21 1    
     4    1   22 1    
     5    2    7 ar   
     6    2    3 ar   
     7    3    4 ar   
     8    3   23 1    
     9    4    5 ar   
    10    4   19 1    
    11    5    6 ar   
    12    5   24 1    
    13    6    7 ar   
    14    6   25 1    
    15    7    8 1    
    16    8    9 am   BACKBONE|DICT|INTERRES
    17    8   26 1    
    18    9   10 2    
    19    9   11 1    
    20   11   16 ar   
    21   11   12 ar   
    22   12   13 ar   
    23   12   18 1    
    24   13   14 1    
    25   13   15 ar   
    26   15   16 ar   
    27   16   17 1    
    28   17   27 1    
    29   17   28 1    
    30   17   29 1    
    31   18   30 1    
    32   18   31 1    
    33   18   32 1    
@<TRIPOS>SUBSTRUCTURE
     1 UNK         1 GROUP             0       ****    0 ROOT    
