@<TRIPOS>MOLECULE
ZINC13110642_2537
47   50    1
SMALL
USER_CHARGES


@<TRIPOS>ATOM
      1 C1          4.7161   54.0966   22.5751 C.ar      1 UNK         0.0000 
      2 C2          5.5632   54.1063   23.6798 C.ar      1 UNK         0.0000 
      3 C3          5.0212   54.0982   24.9626 C.ar      1 UNK         0.0000 
      4 C4          3.6318   54.0475   25.1455 C.ar      1 UNK         0.0000 
      5 C5          2.7902   54.0756   24.0236 C.ar      1 UNK         0.0000 
      6 C6          3.3337   54.1061   22.7445 C.ar      1 UNK         0.0000 
      7 C7          3.0693   53.9393   26.5401 C.2       1 UNK         0.0000 
      8 O8          3.6479   54.4939   27.4752 O.2       1 UNK         0.0000 
      9 N9          1.9432   53.1946   26.6479 N.am      1 UNK         0.0000 
     10 C10         1.2130   52.8077   27.7972 C.ar      1 UNK         0.0000 
     11 C11         1.7423   52.9476   29.0959 C.ar      1 UNK         0.0000 
     12 C12         0.9970   52.6032   30.2193 C.ar      1 UNK         0.0000 
     13 C13        -0.2853   52.0964   30.0668 C.ar      1 UNK         0.0000 
     14 C14        -0.8157   51.9134   28.7953 C.ar      1 UNK         0.0000 
     15 C15        -0.0910   52.2653   27.6477 C.ar      1 UNK         0.0000 
     16 C16        -0.7934   52.0943   26.3088 C.2       1 UNK         0.0000 
     17 O17        -1.9453   52.4973   26.1512 O.2       1 UNK         0.0000 
     18 N18        -0.1387   51.4581   25.2635 N.am      1 UNK         0.0000 
     19 C19         0.3068   50.2603   25.3591 C.2       1 UNK         0.0000 
     20 N20         0.2762   49.3973   26.4816 N.pl3     1 UNK         0.0000 
     21 N21         0.9474   49.5659   24.3038 N.pl3     1 UNK         0.0000 
     22 C22         1.1839   50.0072   23.0256 C.2       1 UNK         0.0000 
     23 N23         1.8985   51.0454   22.6442 N.2       1 UNK         0.0000 
     24 C24         2.0002   50.8727   21.2900 C.ar      1 UNK         0.0000 
     25 C25         2.6648   51.6179   20.3048 C.ar      1 UNK         0.0000 
     26 C26         2.6012   51.1651   18.9834 C.ar      1 UNK         0.0000 
     27 C27         1.9013   50.0055   18.6379 C.ar      1 UNK         0.0000 
     28 C28         1.2278   49.2456   19.5979 C.ar      1 UNK         0.0000 
     29 C29         1.3056   49.7102   20.9135 C.ar      1 UNK         0.0000 
     30 O30         0.7882   49.1539   22.0371 O.3       1 UNK         0.0000 
     31 H31         5.1333   54.1104   21.5786 H         1 UNK         0.0000 
     32 H32         6.6350   54.1173   23.5434 H         1 UNK         0.0000 
     33 H33         5.6896   54.0838   25.8126 H         1 UNK         0.0000 
     34 H34         1.7138   54.0643   24.1250 H         1 UNK         0.0000 
     35 H35         2.6766   54.1386   21.8883 H         1 UNK         0.0000 
     36 H36         1.5675   52.8391   25.7803 H         1 UNK         0.0000 
     37 H37         2.7375   53.3202   29.2719 H         1 UNK         0.0000 
     38 H38         1.4119   52.7211   31.2096 H         1 UNK         0.0000 
     39 H39        -0.8640   51.8139   30.9334 H         1 UNK         0.0000 
     40 H40        -1.8113   51.4968   28.7117 H         1 UNK         0.0000 
     41 H41        -0.3647   49.5788   27.2466 H         1 UNK         0.0000 
     42 H42         0.4095   48.4017   26.3614 H         1 UNK         0.0000 
     43 H43         1.3366   48.6646   24.5403 H         1 UNK         0.0000 
     44 H44         3.2362   52.4971   20.5473 H         1 UNK         0.0000 
     45 H45         3.1370   51.6983   18.2094 H         1 UNK         0.0000 
     46 H46         1.9110   49.6842   17.6051 H         1 UNK         0.0000 
     47 H47         0.6972   48.3413   19.3422 H         1 UNK         0.0000 
@<TRIPOS>BOND
     1    1    6 ar   
     2    1    2 ar   
     3    1   31 1    
     4    2    3 ar   
     5    2   32 1    
     6    3    4 ar   
     7    3   33 1    
     8    4    5 ar   
     9    4    7 1    
    10    5    6 ar   
    11    5   34 1    
    12    6   35 1    
    13    7    8 2    
    14    7    9 am   BACKBONE|DICT|INTERRES
    15    9   10 1    
    16    9   36 1    
    17   10   15 ar   
    18   10   11 ar   
    19   11   12 ar   
    20   11   37 1    
    21   12   13 ar   
    22   12   38 1    
    23   13   14 ar   
    24   13   39 1    
    25   14   15 ar   
    26   14   40 1    
    27   15   16 1    
    28   16   17 2    
    29   16   18 am   BACKBONE|DICT|INTERRES
    30   18   19 2    
    31   19   20 1    
    32   19   21 1    
    33   20   41 1    
    34   20   42 1    
    35   21   22 1    
    36   21   43 1    
    37   22   30 1    
    38   22   23 2    
    39   23   24 1    
    40   24   29 ar   
    41   24   25 ar   
    42   25   26 ar   
    43   25   44 1    
    44   26   27 ar   
    45   26   45 1    
    46   27   28 ar   
    47   27   46 1    
    48   28   29 ar   
    49   28   47 1    
    50   29   30 1    
@<TRIPOS>SUBSTRUCTURE
     1 UNK         1 GROUP             0       ****    0 ROOT    
