@<TRIPOS>MOLECULE
ZINC51329889_3897
46   49    1
SMALL
USER_CHARGES


@<TRIPOS>ATOM
      1 C1          1.6593   53.0036   28.9200 C.3       1 UNK         0.0000 
      2 O2          2.6418   53.6091   28.0853 O.3       1 UNK         0.0000 
      3 C3          2.5113   53.5184   26.7135 C.ar      1 UNK         0.0000 
      4 C4          1.4409   52.8965   26.0585 C.ar      1 UNK         0.0000 
      5 C5          1.3894   52.8610   24.6682 C.ar      1 UNK         0.0000 
      6 C6          2.4208   53.4164   23.9041 C.ar      1 UNK         0.0000 
      7 C7          3.4842   54.0496   24.5624 C.ar      1 UNK         0.0000 
      8 C8          3.5242   54.0975   25.9530 C.ar      1 UNK         0.0000 
      9 C9          2.3811   53.3309   22.3670 C.3       1 UNK         0.0000 
     10 H10         1.6579   54.0964   22.0826 H         1 UNK         0.0000 
     11 C11         1.8818   51.9646   21.7734 C.3       1 UNK         0.0000 
     12 H12         0.8511   51.8004   22.0873 H         1 UNK         0.0000 
     13 C13         2.7037   50.7346   22.2531 C.3       1 UNK         0.0000 
     14 C14         2.2587   49.4263   21.5823 C.3       1 UNK         0.0000 
     15 C15         2.2835   49.5446   20.0477 C.3       1 UNK         0.0000 
     16 C16         1.3716   50.7030   19.6244 C.2       1 UNK         0.0000 
     17 C17         0.2724   50.5602   18.8407 C.2       1 UNK         0.0000 
     18 S18        -0.8201   51.9043   18.3822 S.3       1 UNK         0.0000 
     19 C19        -1.3917   51.1050   16.8710 C.3       1 UNK         0.0000 
     20 C20        -1.7118   49.6701   17.2521 C.3       1 UNK         0.0000 
     21 S21        -0.2838   49.0043   18.1373 S.3       1 UNK         0.0000 
     22 C22         1.8281   52.0474   20.2091 C.3       1 UNK         0.0000 
     23 H23         1.1307   52.8403   19.9402 H         1 UNK         0.0000 
     24 N24         3.1457   52.4957   19.7328 N.pl3     1 UNK         0.0000 
     25 C25         3.9494   53.3836   20.3759 C.2       1 UNK         0.0000 
     26 S26         5.2371   54.0965   19.6281 S.2       1 UNK         0.0000 
     27 N27         3.6286   53.6880   21.6617 N.pl3     1 UNK         0.0000 
     28 H28         1.9250   53.1646   29.9628 H         1 UNK         0.0000 
     29 H29         1.6074   51.9269   28.7549 H         1 UNK         0.0000 
     30 H30         0.6726   53.4409   28.7603 H         1 UNK         0.0000 
     31 H31         0.6312   52.4421   26.6112 H         1 UNK         0.0000 
     32 H32         0.5431   52.3878   24.1906 H         1 UNK         0.0000 
     33 H33         4.2922   54.5043   24.0142 H         1 UNK         0.0000 
     34 H34         4.3514   54.5823   26.4483 H         1 UNK         0.0000 
     35 H35         3.7587   50.8981   22.0284 H         1 UNK         0.0000 
     36 H36         2.6566   50.6380   23.3389 H         1 UNK         0.0000 
     37 H37         1.2504   49.1703   21.9175 H         1 UNK         0.0000 
     38 H38         2.8964   48.6043   21.9070 H         1 UNK         0.0000 
     39 H39         1.9800   48.5975   19.6064 H         1 UNK         0.0000 
     40 H40         3.3003   49.7085   19.6882 H         1 UNK         0.0000 
     41 H41        -2.2626   51.6304   16.4784 H         1 UNK         0.0000 
     42 H42        -0.5938   51.1554   16.1295 H         1 UNK         0.0000 
     43 H43        -1.9205   49.0572   16.3750 H         1 UNK         0.0000 
     44 H44        -2.5772   49.6194   17.9137 H         1 UNK         0.0000 
     45 H45         3.3998   52.3389   18.7670 H         1 UNK         0.0000 
     46 H46         4.1710   54.4620   22.0174 H         1 UNK         0.0000 
@<TRIPOS>BOND
     1    1    2 1    
     2    1   28 1    
     3    1   29 1    
     4    1   30 1    
     5    2    3 1    
     6    3    8 ar   
     7    3    4 ar   
     8    4    5 ar   
     9    4   31 1    
    10    5    6 ar   
    11    5   32 1    
    12    6    7 ar   
    13    6    9 1    
    14    7    8 ar   
    15    7   33 1    
    16    8   34 1    
    17    9   10 1    
    18    9   27 1    
    19    9   11 1    
    20   11   12 1    
    21   11   22 1    
    22   11   13 1    
    23   13   14 1    
    24   13   35 1    
    25   13   36 1    
    26   14   15 1    
    27   14   37 1    
    28   14   38 1    
    29   15   16 1    
    30   15   39 1    
    31   15   40 1    
    32   16   17 2    
    33   16   22 1    
    34   17   21 1    
    35   17   18 1    
    36   18   19 1    
    37   19   20 1    
    38   19   41 1    
    39   19   42 1    
    40   20   21 1    
    41   20   43 1    
    42   20   44 1    
    43   22   23 1    
    44   22   24 1    
    45   24   25 1    
    46   24   45 1    
    47   25   26 2    
    48   25   27 1    
    49   27   46 1    
@<TRIPOS>SUBSTRUCTURE
     1 UNK         1 GROUP             0       ****    0 ROOT    
