ZINC64774523_2028
                    3D
 Schrodinger Suite 2024-2.
 56 58  0  0  1  0            999 V2000
    6.7043   54.7974   25.4456 C   0  0  0  0  0  0
    5.9689   54.6357   24.1302 C   0  0  0  0  0  0
    6.5607   55.0315   22.9354 C   0  0  0  0  0  0
    5.8894   54.8967   21.7191 C   0  0  0  0  0  0
    4.6103   54.2846   21.6877 C   0  0  0  0  0  0
    3.9949   53.9021   22.9073 C   0  0  0  0  0  0
    4.6875   54.0967   24.1111 C   0  0  0  0  0  0
    2.6351   53.3215   23.0301 C   0  0  0  0  0  0
    2.2682   52.0159   22.3507 C   0  0  0  0  0  0
    3.1143   51.4258   21.6813 O   0  0  0  0  0  0
    1.0214   51.5622   22.5578 N   0  5  0  0  0  0
    0.2325   52.1846   23.3577 C   0  0  0  0  0  0
    0.5053   53.2972   23.9857 N   0  0  0  0  0  0
    1.7291   53.8985   23.7809 N   0  0  0  0  0  0
   -1.3549   51.4075   23.6604 S   0  0  0  0  0  0
   -1.1112   50.9200   25.4114 C   0  0  2  0  0  0
   -0.2536   51.4577   25.8182 H   0  0  0  0  0  0
   -0.7810   49.4117   25.4810 C   0  0  0  0  0  0
   -2.2962   51.3854   26.2895 C   0  0  0  0  0  0
   -2.6290   52.5720   26.2415 O   0  0  0  0  0  0
   -2.8956   50.4966   27.1146 N   0  0  0  0  0  0
   -3.9996   50.7728   27.9413 C   0  0  0  0  0  0
   -3.8434   50.4966   29.3030 C   0  0  0  0  0  0
   -4.8767   50.7544   30.2031 C   0  0  0  0  0  0
   -6.0770   51.2909   29.7480 C   0  0  0  0  0  0
   -6.2594   51.5346   28.3883 C   0  0  0  0  0  0
   -5.2365   51.2707   27.4697 C   0  0  0  0  0  0
   -5.5316   51.4854   25.9896 C   0  0  0  0  0  0
   -7.0641   51.5782   30.6255 F   0  0  0  0  0  0
    3.9143   54.0967   20.4731 N   0  0  0  0  0  0
    4.3761   53.3860   19.4264 C   0  0  0  0  0  0
    5.5029   52.8968   19.3715 O   0  0  0  0  0  0
    3.4162   53.1919   18.2605 C   0  0  0  0  0  0
    6.5573   55.5083   20.4897 C   0  0  0  0  0  0
    7.7757   54.8968   25.2814 H   0  0  0  0  0  0
    6.3374   55.6699   25.9869 H   0  0  0  0  0  0
    6.5572   53.9176   26.0739 H   0  0  0  0  0  0
    7.5310   55.4990   22.9550 H   0  0  0  0  0  0
    4.2369   53.8055   25.0508 H   0  0  0  0  0  0
   -0.4968   49.0969   26.4817 H   0  0  0  0  0  0
   -1.6213   48.7958   25.1585 H   0  0  0  0  0  0
    0.0657   49.1713   24.8361 H   0  0  0  0  0  0
   -2.4069   49.6257   27.3189 H   0  0  0  0  0  0
   -2.9089   50.0967   29.6748 H   0  0  0  0  0  0
   -4.7337   50.5518   31.2552 H   0  0  0  0  0  0
   -7.2073   51.9249   28.0490 H   0  0  0  0  0  0
   -5.2689   52.4980   25.6843 H   0  0  0  0  0  0
   -4.9862   50.7761   25.3675 H   0  0  0  0  0  0
   -6.5877   51.3229   25.7745 H   0  0  0  0  0  0
    2.9393   54.3756   20.4577 H   0  0  0  0  0  0
    2.6233   53.9404   18.2625 H   0  0  0  0  0  0
    3.9546   53.2601   17.3145 H   0  0  0  0  0  0
    2.9628   52.2010   18.3219 H   0  0  0  0  0  0
    5.8219   55.8792   19.7755 H   0  0  0  0  0  0
    7.1648   56.3709   20.7646 H   0  0  0  0  0  0
    7.2040   54.7855   19.9931 H   0  0  0  0  0  0
  1  2  1  0  0  0
  1 35  1  0  0  0
  1 36  1  0  0  0
  1 37  1  0  0  0
  2  7  2  0  0  0
  2  3  1  0  0  0
  3  4  2  0  0  0
  3 38  1  0  0  0
  4  5  1  0  0  0
  4 34  1  0  0  0
  5  6  2  0  0  0
  5 30  1  0  0  0
  6  7  1  0  0  0
  6  8  1  0  0  0
  7 39  1  0  0  0
  8 14  2  0  0  0
  8  9  1  0  0  0
  9 10  2  0  0  0
  9 11  1  0  0  0
 11 12  1  0  0  0
 12 15  1  0  0  0
 12 13  2  0  0  0
 13 14  1  0  0  0
 15 16  1  0  0  0
 16 17  1  0  0  0
 16 18  1  0  0  0
 16 19  1  0  0  0
 18 40  1  0  0  0
 18 41  1  0  0  0
 18 42  1  0  0  0
 19 20  2  0  0  0
 19 21  1  0  0  0
 21 22  1  0  0  0
 21 43  1  0  0  0
 22 27  2  0  0  0
 22 23  1  0  0  0
 23 24  2  0  0  0
 23 44  1  0  0  0
 24 25  1  0  0  0
 24 45  1  0  0  0
 25 26  2  0  0  0
 25 29  1  0  0  0
 26 27  1  0  0  0
 26 46  1  0  0  0
 27 28  1  0  0  0
 28 47  1  0  0  0
 28 48  1  0  0  0
 28 49  1  0  0  0
 30 31  1  0  0  0
 30 50  1  0  0  0
 31 32  2  0  0  0
 31 33  1  0  0  0
 33 51  1  0  0  0
 33 52  1  0  0  0
 33 53  1  0  0  0
 34 54  1  0  0  0
 34 55  1  0  0  0
 34 56  1  0  0  0
M  CHG  1  11  -1
M  END
> <i_i_glide_confnum>
16

> <i_i_glide_lignum>
2029

> <i_i_glide_posenum>
382

> <i_i_glide_rotatable_bonds>
8

> <i_m_Source_File_Index>
4511

> <b_m_subgroup_collapsed>
0

> <r_i_docking_score>
-5.84833

> <r_i_glide_ecoul>
-9.77739

> <r_i_glide_eff_state_penalty>
0

> <r_i_glide_einternal>
15.7255

> <r_i_glide_emodel>
-61.3196

> <r_i_glide_energy>
-49.8411

> <r_i_glide_erotb>
0.643846

> <r_i_glide_esite>
-0.210108

> <r_i_glide_evdw>
-40.0637

> <r_i_glide_gscore>
-5.84833

> <r_i_glide_hbond>
-0.456

> <r_i_glide_ligand_efficiency>
-0.177222

> <r_i_glide_ligand_efficiency_ln>
-1.30064

> <r_i_glide_ligand_efficiency_sa>
-0.568446

> <r_i_glide_lipo>
-2.03868

> <r_i_glide_metal>
0

> <r_i_glide_rewards>
-0.317594

> <s_i_glide_gridfile>
wee1_glide-grid

> <s_m_Source_File>
wee1_decoys_glide_SP.sdf

> <s_m_Source_Path>
/Users/zhangxujun/Desktop

> <s_m_entry_id>
4786

> <s_m_entry_name>
wee1_decoys_glide_SP.4511

> <s_m_subgroup_title>
wee1_decoys_glide_SP

> <s_m_subgroupid>
wee1_decoys_glide_SP


$$$$
