@<TRIPOS>MOLECULE
ZINC21373015_2306
52   56    1
SMALL
USER_CHARGES


@<TRIPOS>ATOM
      1 C1         -9.3360   53.3124   28.6086 C.3       1 UNK         0.0000 
      2 C2         -7.9971   53.0394   27.9467 C.ar      1 UNK         0.0000 
      3 C3         -7.3187   54.0615   27.2804 C.ar      1 UNK         0.0000 
      4 C4         -6.0985   53.7932   26.6679 C.ar      1 UNK         0.0000 
      5 C5         -5.5421   52.5083   26.7102 C.ar      1 UNK         0.0000 
      6 C6         -6.2423   51.4890   27.3675 C.ar      1 UNK         0.0000 
      7 C7         -7.4610   51.7533   27.9859 C.ar      1 UNK         0.0000 
      8 C8         -4.2211   52.2628   26.0292 C.ar      1 UNK         0.0000 
      9 N9         -3.7773   53.0056   25.0390 N.2       1 UNK         0.0000 
     10 N10        -2.5480   52.4966   24.6391 N.2       1 UNK         0.0000 
     11 C11        -2.2963   51.4528   25.3887 C.ar      1 UNK         0.0000 
     12 N12        -3.2979   51.2686   26.3160 N.pl3     1 UNK         0.0000 
     13 N13        -3.3347   50.3008   27.3045 N.3       1 UNK         0.0000 
     14 S14        -0.8189   50.4949   25.3063 S.3       1 UNK         0.0000 
     15 C15         0.3948   51.8456   25.4438 C.3       1 UNK         0.0000 
     16 C16         0.9533   52.0973   26.8631 C.2       1 UNK         0.0000 
     17 O17         0.4642   51.5100   27.8315 O.2       1 UNK         0.0000 
     18 N18         2.0063   52.9471   26.9984 N.am      1 UNK         0.0000 
     19 C19         2.7466   53.1953   28.2433 C.3       1 UNK         0.0000 
     20 H20         2.8769   52.2704   28.8077 H         1 UNK         0.0000 
     21 C21         4.1026   53.6669   27.7116 C.3       1 UNK         0.0000 
     22 C22         3.7817   53.9129   26.2637 C.2       1 UNK         0.0000 
     23 N23         2.6317   53.5003   25.9240 N.2       1 UNK         0.0000 
     24 C24         4.7382   54.3662   25.2577 C.2       1 UNK         0.0000 
     25 C25         4.7272   54.0960   23.8870 C.2       1 UNK         0.0000 
     26 C26         5.8506   54.5747   23.2138 C.2       1 UNK         0.0000 
     27 C27         6.6817   55.2964   24.0502 C.2       1 UNK         0.0000 
     28 S28         6.1473   55.2890   25.6963 S.3       1 UNK         0.0000 
     29 C29         2.0063   54.1385   29.1884 C.2       1 UNK         0.0000 
     30 C30         1.0429   53.8051   30.1441 C.2       1 UNK         0.0000 
     31 C31         0.5530   54.8853   30.8814 C.2       1 UNK         0.0000 
     32 C32         1.1046   56.0881   30.4829 C.2       1 UNK         0.0000 
     33 S33         2.2474   55.8670   29.2112 S.3       1 UNK         0.0000 
     34 H34        -9.2242   53.3660   29.6941 H         1 UNK         0.0000 
     35 H35        -9.7900   54.2378   28.2443 H         1 UNK         0.0000 
     36 H36       -10.0408   52.5055   28.3866 H         1 UNK         0.0000 
     37 H37        -7.7296   55.0606   27.2415 H         1 UNK         0.0000 
     38 H38        -5.5781   54.5935   26.1646 H         1 UNK         0.0000 
     39 H39        -5.8599   50.4815   27.3968 H         1 UNK         0.0000 
     40 H40        -7.9879   50.9542   28.4875 H         1 UNK         0.0000 
     41 H41        -3.4251   49.3669   26.9248 H         1 UNK         0.0000 
     42 H42        -2.5254   50.3451   27.9173 H         1 UNK         0.0000 
     43 H43         0.0095   52.7777   25.0334 H         1 UNK         0.0000 
     44 H44         1.2257   51.5497   24.8041 H         1 UNK         0.0000 
     45 H45         4.5310   54.5321   28.2181 H         1 UNK         0.0000 
     46 H46         4.8271   52.8512   27.7657 H         1 UNK         0.0000 
     47 H47         3.9436   53.5328   23.3992 H         1 UNK         0.0000 
     48 H48         6.0209   54.4426   22.1544 H         1 UNK         0.0000 
     49 H49         7.5750   55.8315   23.7726 H         1 UNK         0.0000 
     50 H50         0.7126   52.7881   30.3094 H         1 UNK         0.0000 
     51 H51        -0.1734   54.7815   31.6758 H         1 UNK         0.0000 
     52 H52         0.9161   57.0746   30.8813 H         1 UNK         0.0000 
@<TRIPOS>BOND
     1    1    2 1    
     2    1   34 1    
     3    1   35 1    
     4    1   36 1    
     5    2    7 ar   
     6    2    3 ar   
     7    3    4 ar   
     8    3   37 1    
     9    4    5 ar   
    10    4   38 1    
    11    5    6 ar   
    12    5    8 1    
    13    6    7 ar   
    14    6   39 1    
    15    7   40 1    
    16    8   12 ar   
    17    8    9 ar   
    18    9   10 ar   
    19   10   11 ar   
    20   11   12 ar   
    21   11   14 1    
    22   12   13 1    
    23   13   41 1    
    24   13   42 1    
    25   14   15 1    
    26   15   16 1    
    27   15   43 1    
    28   15   44 1    
    29   16   17 2    
    30   16   18 am   BACKBONE|DICT|INTERRES
    31   18   23 1    
    32   18   19 1    
    33   19   20 1    
    34   19   21 1    
    35   19   29 1    
    36   21   22 1    
    37   21   45 1    
    38   21   46 1    
    39   22   23 2    
    40   22   24 1    
    41   24   28 1    
    42   24   25 2    
    43   25   26 1    
    44   25   47 1    
    45   26   27 2    
    46   26   48 1    
    47   27   28 1    
    48   27   49 1    
    49   29   33 1    
    50   29   30 2    
    51   30   31 1    
    52   30   50 1    
    53   31   32 2    
    54   31   51 1    
    55   32   33 1    
    56   32   52 1    
@<TRIPOS>SUBSTRUCTURE
     1 UNK         1 GROUP             0       ****    0 ROOT    
