ZINC36213890_2673
                    3D
 Schrodinger Suite 2024-2.
 61 63  0  0  1  0            999 V2000
    4.4033   53.0875   28.4774 C   0  0  0  0  0  0
    5.5553   53.8743   27.8298 C   0  0  0  0  0  0
    5.4737   55.2866   28.4096 C   0  0  0  0  0  0
    6.9109   53.2595   28.2113 C   0  0  0  0  0  0
    5.3691   53.8832   26.3666 N   0  0  0  0  0  0
    6.0678   54.5928   25.4496 C   0  0  0  0  0  0
    7.1043   55.1812   25.7629 O   0  0  0  0  0  0
    5.6171   54.5555   24.1623 N   0  0  0  0  0  0
    4.2044   54.2659   23.8510 C   0  0  0  0  0  0
    4.2096   53.5349   22.5079 C   0  0  0  0  0  0
    4.6427   54.4285   21.3299 C   0  0  0  0  0  0
    5.9638   55.1579   21.6831 C   0  0  0  0  0  0
    6.4181   55.3102   23.1659 C   0  0  0  0  0  0
    4.6166   53.7629   19.8954 C   0  0  2  0  0  0
    5.4977   53.1188   19.8553 H   0  0  0  0  0  0
    4.7763   54.7442   18.6839 C   0  0  0  0  0  0
    4.6986   55.9560   18.8803 O   0  0  0  0  0  0
    4.9667   54.2674   17.4293 N   0  0  0  0  0  0
    5.1970   52.8645   17.0843 C   0  0  0  0  0  0
    5.4107   52.8923   15.5735 C   0  0  0  0  0  0
    5.9336   54.2890   15.3022 C   0  0  0  0  0  0
    5.1492   55.1627   16.2771 C   0  0  0  0  0  0
    3.4466   52.9005   19.6760 N   0  0  0  0  0  0
    3.3095   51.6234   20.0793 C   0  0  0  0  0  0
    4.1646   51.0121   20.7216 O   0  0  0  0  0  0
    2.0646   51.0088   19.6973 C   0  0  0  0  0  0
    0.8520   51.6143   19.3536 C   0  0  0  0  0  0
   -0.1649   50.6909   19.0911 C   0  0  0  0  0  0
    0.2487   49.3788   19.2624 C   0  0  0  0  0  0
    1.9054   49.2735   19.7607 S   0  0  0  0  0  0
    4.5309   52.9880   29.5558 H   0  0  0  0  0  0
    4.3322   52.0952   28.0685 H   0  0  0  0  0  0
    3.4382   53.5638   28.3028 H   0  0  0  0  0  0
    6.2981   55.9135   28.0609 H   0  0  0  0  0  0
    4.5111   55.6947   28.1056 H   0  0  0  0  0  0
    5.5064   55.2901   29.5003 H   0  0  0  0  0  0
    7.7149   53.8088   27.7383 H   0  0  0  0  0  0
    7.0928   53.3109   29.2806 H   0  0  0  0  0  0
    6.9945   52.2186   27.9127 H   0  0  0  0  0  0
    4.6378   53.2789   26.0251 H   0  0  0  0  0  0
    3.7327   53.5871   24.5612 H   0  0  0  0  0  0
    3.6363   55.1971   23.7796 H   0  0  0  0  0  0
    4.8436   52.6470   22.5388 H   0  0  0  0  0  0
    3.2134   53.1351   22.3232 H   0  0  0  0  0  0
    3.8571   55.1786   21.3458 H   0  0  0  0  0  0
    6.1624   56.0282   21.0577 H   0  0  0  0  0  0
    6.7293   54.4939   21.2938 H   0  0  0  0  0  0
    6.4049   56.3631   23.4408 H   0  0  0  0  0  0
    7.4552   54.9662   23.2106 H   0  0  0  0  0  0
    6.1057   52.4985   17.5628 H   0  0  0  0  0  0
    4.3524   52.2182   17.3236 H   0  0  0  0  0  0
    6.0777   52.0992   15.2340 H   0  0  0  0  0  0
    4.4556   52.7499   15.0659 H   0  0  0  0  0  0
    5.8163   54.6067   14.2652 H   0  0  0  0  0  0
    6.9977   54.3412   15.5360 H   0  0  0  0  0  0
    4.1786   55.3984   15.8390 H   0  0  0  0  0  0
    5.7224   56.0610   16.5127 H   0  0  0  0  0  0
    2.6900   53.3369   19.1721 H   0  0  0  0  0  0
    0.7061   52.6825   19.2859 H   0  0  0  0  0  0
   -1.1646   50.9689   18.7874 H   0  0  0  0  0  0
   -0.3348   48.4811   19.1269 H   0  0  0  0  0  0
  1  2  1  0  0  0
  1 31  1  0  0  0
  1 32  1  0  0  0
  1 33  1  0  0  0
  2  3  1  0  0  0
  2  4  1  0  0  0
  2  5  1  0  0  0
  3 34  1  0  0  0
  3 35  1  0  0  0
  3 36  1  0  0  0
  4 37  1  0  0  0
  4 38  1  0  0  0
  4 39  1  0  0  0
  5  6  1  0  0  0
  5 40  1  0  0  0
  6  7  2  0  0  0
  6  8  1  0  0  0
  8 13  1  0  0  0
  8  9  1  0  0  0
  9 10  1  0  0  0
  9 41  1  0  0  0
  9 42  1  0  0  0
 10 11  1  0  0  0
 10 43  1  0  0  0
 10 44  1  0  0  0
 11 12  1  0  0  0
 11 14  1  0  0  0
 11 45  1  0  0  0
 12 13  1  0  0  0
 12 46  1  0  0  0
 12 47  1  0  0  0
 13 48  1  0  0  0
 13 49  1  0  0  0
 14 15  1  0  0  0
 14 16  1  0  0  0
 14 23  1  0  0  0
 16 17  2  0  0  0
 16 18  1  0  0  0
 18 22  1  0  0  0
 18 19  1  0  0  0
 19 20  1  0  0  0
 19 50  1  0  0  0
 19 51  1  0  0  0
 20 21  1  0  0  0
 20 52  1  0  0  0
 20 53  1  0  0  0
 21 22  1  0  0  0
 21 54  1  0  0  0
 21 55  1  0  0  0
 22 56  1  0  0  0
 22 57  1  0  0  0
 23 24  1  0  0  0
 23 58  1  0  0  0
 24 25  2  0  0  0
 24 26  1  0  0  0
 26 30  1  0  0  0
 26 27  2  0  0  0
 27 28  1  0  0  0
 27 59  1  0  0  0
 28 29  2  0  0  0
 28 60  1  0  0  0
 29 30  1  0  0  0
 29 61  1  0  0  0
M  END
> <i_i_glide_confnum>
155

> <i_i_glide_lignum>
2674

> <i_i_glide_posenum>
177

> <i_i_glide_rotatable_bonds>
9

> <i_m_Source_File_Index>
4561

> <b_m_subgroup_collapsed>
0

> <r_i_docking_score>
-5.34356

> <r_i_glide_ecoul>
-8.18401

> <r_i_glide_eff_state_penalty>
0

> <r_i_glide_einternal>
14.8101

> <r_i_glide_emodel>
-38.3964

> <r_i_glide_energy>
-34.7972

> <r_i_glide_erotb>
0.783334

> <r_i_glide_esite>
-0.0692485

> <r_i_glide_evdw>
-26.6132

> <r_i_glide_gscore>
-5.34356

> <r_i_glide_hbond>
-0.399033

> <r_i_glide_ligand_efficiency>
-0.184261

> <r_i_glide_ligand_efficiency_ln>
-1.22354

> <r_i_glide_ligand_efficiency_sa>
-0.566107

> <r_i_glide_lipo>
-1.67232

> <r_i_glide_metal>
0

> <r_i_glide_rewards>
-1.42803

> <s_i_glide_gridfile>
wee1_glide-grid

> <s_m_Source_File>
wee1_decoys_glide_SP.sdf

> <s_m_Source_Path>
/Users/zhangxujun/Desktop

> <s_m_entry_id>
4836

> <s_m_entry_name>
wee1_decoys_glide_SP.4561

> <s_m_subgroup_title>
wee1_decoys_glide_SP

> <s_m_subgroupid>
wee1_decoys_glide_SP


$$$$
