@<TRIPOS>MOLECULE
ZINC02275208_2566
53   55    1
SMALL
USER_CHARGES


@<TRIPOS>ATOM
      1 C1          7.1137   53.6968   23.3203 C.3       1 UNK         0.0000 
      2 C2          5.7894   53.2065   22.7071 C.3       1 UNK         0.0000 
      3 C3          4.4878   53.9873   23.0724 C.3       1 UNK         0.0000 
      4 H4          4.5267   54.9165   22.5139 H         1 UNK         0.0000 
      5 C5          4.3645   54.3690   24.5737 C.2       1 UNK         0.0000 
      6 C6          3.2818   54.0299   25.3067 C.2       1 UNK         0.0000 
      7 N7          2.2442   53.3195   24.7575 N.pl3     1 UNK         0.0000 
      8 C8          2.1679   52.9763   23.4261 C.2       1 UNK         0.0000 
      9 C9          3.2042   53.2468   22.5813 C.2       1 UNK         0.0000 
     10 C10         3.1042   52.8956   21.1450 C.2       1 UNK         0.0000 
     11 O11         3.8685   53.3595   20.3010 O.2       1 UNK         0.0000 
     12 C12         1.8652   52.0982   20.6976 C.3       1 UNK         0.0000 
     13 C13         1.2071   51.2418   21.8149 C.3       1 UNK         0.0000 
     14 C14         0.9226   52.1800   23.0239 C.3       1 UNK         0.0000 
     15 C15        -0.1434   50.7296   21.2755 C.3       1 UNK         0.0000 
     16 C16         2.1475   50.0770   22.2217 C.3       1 UNK         0.0000 
     17 S17         2.9589   54.4980   26.9987 S.3       1 UNK         0.0000 
     18 C18         2.9911   52.9161   27.8865 C.3       1 UNK         0.0000 
     19 H19         3.2722   52.1471   27.1792 H         1 UNK         0.0000 
     20 C20         1.5917   52.5448   28.3986 C.ar      1 UNK         0.0000 
     21 C21         0.7958   51.7011   27.6159 C.ar      1 UNK         0.0000 
     22 C22        -0.4534   51.2966   28.0683 C.ar      1 UNK         0.0000 
     23 C23        -0.8958   51.7019   29.3219 C.ar      1 UNK         0.0000 
     24 C24        -0.1378   52.5793   30.0929 C.ar      1 UNK         0.0000 
     25 C25         1.0907   53.0263   29.6166 C.ar      1 UNK         0.0000 
     26 C26         4.1321   52.8967   28.9272 C.2       1 UNK         0.0000 
     27 O27         3.9365   52.6091   30.1059 O.2       1 UNK         0.0000 
     28 N28         5.3589   53.1829   28.4821 N.am      1 UNK         0.0000 
     29 C29         5.4108   55.1286   25.1920 C.1       1 UNK         0.0000 
     30 N30         6.2960   55.6966   25.6816 N.1       1 UNK         0.0000 
     31 H31         7.9766   53.2038   22.8817 H         1 UNK         0.0000 
     32 H32         7.2505   54.7690   23.1725 H         1 UNK         0.0000 
     33 H33         7.1699   53.4738   24.3845 H         1 UNK         0.0000 
     34 H34         5.6760   52.1392   22.8817 H         1 UNK         0.0000 
     35 H35         5.9044   53.2770   21.6286 H         1 UNK         0.0000 
     36 H36         1.4376   53.1442   25.3383 H         1 UNK         0.0000 
     37 H37         1.1522   52.8603   20.3812 H         1 UNK         0.0000 
     38 H38         2.1175   51.5157   19.8101 H         1 UNK         0.0000 
     39 H39         0.1229   52.8963   22.8343 H         1 UNK         0.0000 
     40 H40         0.6076   51.5303   23.8437 H         1 UNK         0.0000 
     41 H41        -0.6756   50.1486   22.0295 H         1 UNK         0.0000 
     42 H42        -0.7987   51.5450   20.9672 H         1 UNK         0.0000 
     43 H43        -0.0031   50.0805   20.4101 H         1 UNK         0.0000 
     44 H44         1.6963   49.4526   22.9956 H         1 UNK         0.0000 
     45 H45         2.3610   49.4272   21.3712 H         1 UNK         0.0000 
     46 H46         3.1041   50.4198   22.6055 H         1 UNK         0.0000 
     47 H47         1.1462   51.3316   26.6645 H         1 UNK         0.0000 
     48 H48        -1.0527   50.6128   27.4822 H         1 UNK         0.0000 
     49 H49        -1.8361   51.3237   29.6984 H         1 UNK         0.0000 
     50 H50        -0.4970   52.8918   31.0641 H         1 UNK         0.0000 
     51 H51         1.6674   53.7103   30.2210 H         1 UNK         0.0000 
     52 H52         5.5137   53.4249   27.5144 H         1 UNK         0.0000 
     53 H53         6.1312   53.1834   29.1305 H         1 UNK         0.0000 
@<TRIPOS>BOND
     1    1    2 1    
     2    1   31 1    
     3    1   32 1    
     4    1   33 1    
     5    2    3 1    
     6    2   34 1    
     7    2   35 1    
     8    3    4 1    
     9    3    9 1    
    10    3    5 1    
    11    5    6 2    
    12    5   29 1    
    13    6    7 1    
    14    6   17 1    
    15    7    8 1    
    16    7   36 1    
    17    8   14 1    
    18    8    9 2    
    19    9   10 1    
    20   10   11 2    
    21   10   12 1    
    22   12   13 1    
    23   12   37 1    
    24   12   38 1    
    25   13   14 1    
    26   13   15 1    
    27   13   16 1    
    28   14   39 1    
    29   14   40 1    
    30   15   41 1    
    31   15   42 1    
    32   15   43 1    
    33   16   44 1    
    34   16   45 1    
    35   16   46 1    
    36   17   18 1    
    37   18   19 1    
    38   18   20 1    
    39   18   26 1    
    40   20   25 ar   
    41   20   21 ar   
    42   21   22 ar   
    43   21   47 1    
    44   22   23 ar   
    45   22   48 1    
    46   23   24 ar   
    47   23   49 1    
    48   24   25 ar   
    49   24   50 1    
    50   25   51 1    
    51   26   27 2    
    52   26   28 am   BACKBONE|DICT|INTERRES
    53   28   52 1    
    54   28   53 1    
    55   29   30 3    
@<TRIPOS>SUBSTRUCTURE
     1 UNK         1 GROUP             0       ****    0 ROOT    
