@<TRIPOS>MOLECULE
ZINC39723554_4403
48   50    1
SMALL
USER_CHARGES


@<TRIPOS>ATOM
      1 C1          0.8531   47.9089   19.6348 C.3       1 UNK         0.0000 
      2 C2          1.4478   49.2651   19.9650 C.ar      1 UNK         0.0000 
      3 C3          1.4865   49.7285   21.2806 C.ar      1 UNK         0.0000 
      4 C4          2.0347   50.9787   21.5847 C.ar      1 UNK         0.0000 
      5 C5          2.5734   51.7705   20.5465 C.ar      1 UNK         0.0000 
      6 C6          2.5079   51.3144   19.2160 C.ar      1 UNK         0.0000 
      7 C7          1.9499   50.0639   18.9398 C.ar      1 UNK         0.0000 
      8 C8          3.0737   52.1294   18.0569 C.3       1 UNK         0.0000 
      9 N9          3.1652   53.0219   20.7949 N.am      1 UNK         0.0000 
     10 C10         4.4030   53.1823   21.3063 C.2       1 UNK         0.0000 
     11 O11         5.1045   52.2411   21.6764 O.2       1 UNK         0.0000 
     12 C12         4.9145   54.6315   21.4078 C.3       1 UNK         0.0000 
     13 S13         6.4536   54.8962   22.3817 S.3       1 UNK         0.0000 
     14 C14         5.9016   54.6704   24.0478 C.2       1 UNK         0.0000 
     15 N15         6.6938   54.6782   25.0961 N.2       1 UNK         0.0000 
     16 N16         6.0251   54.4719   26.3007 N.2       1 UNK         0.0000 
     17 C17         4.7368   54.3016   26.1328 C.2       1 UNK         0.0000 
     18 S18         4.2324   54.4436   24.4743 S.3       1 UNK         0.0000 
     19 N19         3.8555   54.1273   27.1880 N.am      1 UNK         0.0000 
     20 C20         2.5750   53.6979   27.1021 C.2       1 UNK         0.0000 
     21 O21         2.0200   53.2923   26.0799 O.2       1 UNK         0.0000 
     22 C22         1.8148   53.7382   28.3979 C.ar      1 UNK         0.0000 
     23 C23         1.8085   54.9265   29.1390 C.ar      1 UNK         0.0000 
     24 C24         1.1030   55.0117   30.3323 C.ar      1 UNK         0.0000 
     25 C25         0.4048   53.9066   30.8171 C.ar      1 UNK         0.0000 
     26 C26         0.4063   52.7160   30.0927 C.ar      1 UNK         0.0000 
     27 C27         1.1059   52.6224   28.8867 C.ar      1 UNK         0.0000 
     28 Cl28        1.0680   51.1098   28.0448 Cl        1 UNK         0.0000 
     29 Cl29        1.1048   56.4970   31.1973 Cl        1 UNK         0.0000 
     30 C30         2.0067   51.4198   23.0429 C.3       1 UNK         0.0000 
     31 H31         0.3255   47.4707   20.4819 H         1 UNK         0.0000 
     32 H32         1.6354   47.2245   19.3026 H         1 UNK         0.0000 
     33 H33         0.1339   48.0067   18.8203 H         1 UNK         0.0000 
     34 H34         1.0844   49.1162   22.0747 H         1 UNK         0.0000 
     35 H35         1.9329   49.6982   17.9220 H         1 UNK         0.0000 
     36 H36         4.0982   52.4329   18.2739 H         1 UNK         0.0000 
     37 H37         3.1037   51.5564   17.1283 H         1 UNK         0.0000 
     38 H38         2.4835   53.0332   17.9016 H         1 UNK         0.0000 
     39 H39         2.6464   53.8335   20.4799 H         1 UNK         0.0000 
     40 H40         5.1278   54.9573   20.3901 H         1 UNK         0.0000 
     41 H41         4.1297   55.2900   21.7793 H         1 UNK         0.0000 
     42 H42         4.2516   54.2113   28.1117 H         1 UNK         0.0000 
     43 H43         2.3321   55.8041   28.7842 H         1 UNK         0.0000 
     44 H44        -0.1327   53.9637   31.7534 H         1 UNK         0.0000 
     45 H45        -0.1402   51.8624   30.4717 H         1 UNK         0.0000 
     46 H46         2.6822   52.2410   23.2648 H         1 UNK         0.0000 
     47 H47         0.9976   51.7068   23.3355 H         1 UNK         0.0000 
     48 H48         2.3070   50.5888   23.6809 H         1 UNK         0.0000 
@<TRIPOS>BOND
     1    1    2 1    
     2    1   31 1    
     3    1   32 1    
     4    1   33 1    
     5    2    7 ar   
     6    2    3 ar   
     7    3    4 ar   
     8    3   34 1    
     9    4    5 ar   
    10    4   30 1    
    11    5    6 ar   
    12    5    9 1    
    13    6    7 ar   
    14    6    8 1    
    15    7   35 1    
    16    8   36 1    
    17    8   37 1    
    18    8   38 1    
    19    9   10 am   BACKBONE|DICT|INTERRES
    20    9   39 1    
    21   10   11 2    
    22   10   12 1    
    23   12   13 1    
    24   12   40 1    
    25   12   41 1    
    26   13   14 1    
    27   14   18 1    
    28   14   15 2    
    29   15   16 1    
    30   16   17 2    
    31   17   18 1    
    32   17   19 am   BACKBONE|DICT|INTERRES
    33   19   20 am   BACKBONE|DICT|INTERRES
    34   19   42 1    
    35   20   21 2    
    36   20   22 1    
    37   22   27 ar   
    38   22   23 ar   
    39   23   24 ar   
    40   23   43 1    
    41   24   25 ar   
    42   24   29 1    
    43   25   26 ar   
    44   25   44 1    
    45   26   27 ar   
    46   26   45 1    
    47   27   28 1    
    48   30   46 1    
    49   30   47 1    
    50   30   48 1    
@<TRIPOS>SUBSTRUCTURE
     1 UNK         1 GROUP             0       ****    0 ROOT    
