@<TRIPOS>MOLECULE
ZINC14740636_4830
71   75    1
SMALL
USER_CHARGES


@<TRIPOS>ATOM
      1 C1          1.6190   60.2171   15.4046 C.3       1 UNK         0.0000 
      2 C2          2.8299   59.4682   14.8234 C.3       1 UNK         0.0000 
      3 C3          3.5441   58.5438   15.8273 C.3       1 UNK         0.0000 
      4 C4          2.7100   57.3235   16.2817 C.3       1 UNK         0.0000 
      5 C5          3.5066   56.3086   17.0847 C.ar      1 UNK         0.0000 
      6 N6          4.7413   56.4808   17.6681 N.pl3     1 UNK         0.0000 
      7 H7          5.2862   57.3323   17.6153 H         1 UNK         0.0000 
      8 C8          5.1266   55.3048   18.2932 C.ar      1 UNK         0.0000 
      9 C9          4.1031   54.3709   18.1316 C.ar      1 UNK         0.0000 
     10 N10         3.1286   55.0154   17.3784 N.pl3     1 UNK         0.0000 
     11 C11         3.9703   52.9202   18.5690 C.3       1 UNK         0.0000 
     12 N12         3.0758   52.8368   19.8333 N.4       1 UNK         0.0000 
     13 C13         3.7855   53.4052   21.0752 C.3       1 UNK         0.0000 
     14 C14         2.7349   53.5155   22.1917 C.3       1 UNK         0.0000 
     15 C15         1.8700   52.2552   22.3802 C.ar      1 UNK         0.0000 
     16 C16         1.8672   51.2746   21.4323 C.ar      1 UNK         0.0000 
     17 C17         1.0170   50.1202   21.7057 C.ar      1 UNK         0.0000 
     18 C18         0.2788   50.0185   22.8393 C.ar      1 UNK         0.0000 
     19 C19         0.2067   51.1508   23.7744 C.ar      1 UNK         0.0000 
     20 O20        -0.6104   51.1531   24.7014 O.2       1 UNK         0.0000 
     21 N21         1.0584   52.2113   23.5187 N.pl3     1 UNK         0.0000 
     22 C22         1.0023   53.3109   24.5108 C.3       1 UNK         0.0000 
     23 C23         2.0916   53.2045   25.5569 C.2       1 UNK         0.0000 
     24 C24         3.0830   54.0991   25.7092 C.2       1 UNK         0.0000 
     25 C25         4.1700   54.0124   26.6915 C.ar      1 UNK         0.0000 
     26 C26         4.0155   53.3005   27.8865 C.ar      1 UNK         0.0000 
     27 C27         5.0806   53.1842   28.7688 C.ar      1 UNK         0.0000 
     28 C28         6.3002   53.7785   28.4588 C.ar      1 UNK         0.0000 
     29 C29         6.4627   54.4933   27.2765 C.ar      1 UNK         0.0000 
     30 C30         5.3972   54.6101   26.3909 C.ar      1 UNK         0.0000 
     31 C31        -0.5306   48.7931   23.1306 C.ar      1 UNK         0.0000 
     32 C32        -1.2871   48.1649   22.1274 C.ar      1 UNK         0.0000 
     33 C33        -2.0510   47.0379   22.4446 C.ar      1 UNK         0.0000 
     34 N34        -2.0963   46.4990   23.6907 N.ar      1 UNK         0.0000 
     35 C35        -1.3544   47.0987   24.6582 C.ar      1 UNK         0.0000 
     36 C36        -0.5593   48.2208   24.4178 C.ar      1 UNK         0.0000 
     37 C37         2.6814   51.3664   20.1321 C.3       1 UNK         0.0000 
     38 H38         1.2086   60.9185   14.6764 H         1 UNK         0.0000 
     39 H39         0.8190   59.5308   15.6905 H         1 UNK         0.0000 
     40 H40         1.9040   60.7944   16.2880 H         1 UNK         0.0000 
     41 H41         2.5265   58.9070   13.9400 H         1 UNK         0.0000 
     42 H42         3.5502   60.2096   14.4719 H         1 UNK         0.0000 
     43 H43         4.4647   58.1971   15.3543 H         1 UNK         0.0000 
     44 H44         3.8522   59.1352   16.6918 H         1 UNK         0.0000 
     45 H45         1.8559   57.6736   16.8640 H         1 UNK         0.0000 
     46 H46         2.2892   56.8384   15.3998 H         1 UNK         0.0000 
     47 H47         6.0895   55.2298   18.7825 H         1 UNK         0.0000 
     48 H48         3.5328   52.2704   17.8072 H         1 UNK         0.0000 
     49 H49         4.9312   52.4951   18.8606 H         1 UNK         0.0000 
     50 H50         4.6190   52.7420   21.3192 H         1 UNK         0.0000 
     51 H51         4.1634   54.3976   20.8289 H         1 UNK         0.0000 
     52 H52         3.2895   53.7143   23.1051 H         1 UNK         0.0000 
     53 H53         2.0990   54.3941   22.0821 H         1 UNK         0.0000 
     54 H54         1.0432   49.2889   21.0141 H         1 UNK         0.0000 
     55 H55         1.0352   54.2780   24.0101 H         1 UNK         0.0000 
     56 H56         0.0535   53.2995   25.0515 H         1 UNK         0.0000 
     57 H57         2.0435   52.3319   26.1922 H         1 UNK         0.0000 
     58 H58         3.1017   54.9685   25.0679 H         1 UNK         0.0000 
     59 H59         3.0763   52.8294   28.1368 H         1 UNK         0.0000 
     60 H60         4.9616   52.6189   29.6814 H         1 UNK         0.0000 
     61 H61         7.1349   53.6960   29.1424 H         1 UNK         0.0000 
     62 H62         7.4152   54.9475   27.0560 H         1 UNK         0.0000 
     63 H63         5.5349   55.1566   25.4684 H         1 UNK         0.0000 
     64 H64        -1.3041   48.5583   21.1219 H         1 UNK         0.0000 
     65 H65        -2.6487   46.5493   21.6875 H         1 UNK         0.0000 
     66 H66        -1.3922   46.6717   25.6526 H         1 UNK         0.0000 
     67 H67         0.0149   48.6433   25.2318 H         1 UNK         0.0000 
     68 H68         2.1219   51.0093   19.2658 H         1 UNK         0.0000 
     69 H69         3.6087   50.7951   20.2145 H         1 UNK         0.0000 
     70 H70         2.2618   54.5953   17.0742 H         1 UNK         0.0000 
     71 H71         2.2469   53.4019   19.6759 H         1 UNK         0.0000 
@<TRIPOS>BOND
     1    1    2 1    
     2    1   38 1    
     3    1   39 1    
     4    1   40 1    
     5    2    3 1    
     6    2   41 1    
     7    2   42 1    
     8    3    4 1    
     9    3   43 1    
    10    3   44 1    
    11    4    5 1    
    12    4   45 1    
    13    4   46 1    
    14    5   10 ar   
    15    5    6 ar   
    16    6    7 1    
    17    6    8 ar   
    18    8    9 ar   
    19    8   47 1    
    20    9   10 ar   
    21    9   11 1    
    22   10   70 1    
    23   11   12 1    
    24   11   48 1    
    25   11   49 1    
    26   12   37 1    
    27   12   13 1    
    28   12   71 1    
    29   13   14 1    
    30   13   50 1    
    31   13   51 1    
    32   14   15 1    
    33   14   52 1    
    34   14   53 1    
    35   15   21 ar   
    36   15   16 ar   
    37   16   17 ar   
    38   16   37 1    
    39   17   18 ar   
    40   17   54 1    
    41   18   19 ar   
    42   18   31 1    
    43   19   20 2    
    44   19   21 ar   
    45   21   22 1    
    46   22   23 1    
    47   22   55 1    
    48   22   56 1    
    49   23   24 2    
    50   23   57 1    
    51   24   25 1    
    52   24   58 1    
    53   25   30 ar   
    54   25   26 ar   
    55   26   27 ar   
    56   26   59 1    
    57   27   28 ar   
    58   27   60 1    
    59   28   29 ar   
    60   28   61 1    
    61   29   30 ar   
    62   29   62 1    
    63   30   63 1    
    64   31   36 ar   
    65   31   32 ar   
    66   32   33 ar   
    67   32   64 1    
    68   33   34 ar   
    69   33   65 1    
    70   34   35 ar   
    71   35   36 ar   
    72   35   66 1    
    73   36   67 1    
    74   37   68 1    
    75   37   69 1    
@<TRIPOS>SUBSTRUCTURE
     1 UNK         1 GROUP             0       ****    0 ROOT    
