ZINC32669113_2669
                    3D
 Schrodinger Suite 2024-2.
 59 63  0  0  1  0            999 V2000
    6.1399   58.0951   17.0032 C   0  0  0  0  0  0
    5.8970   56.8053   17.7470 C   0  0  0  0  0  0
    5.3610   55.6070   17.2827 C   0  0  0  0  0  0
    5.3288   54.7316   18.3537 C   0  0  0  0  0  0
    5.8457   55.4629   19.4113 N   0  0  0  0  0  0
    6.2011   56.7064   19.0174 N   0  0  0  0  0  0
    6.0008   55.1042   20.7802 C   0  0  0  0  0  0
    5.0849   54.2625   21.4281 C   0  0  0  0  0  0
    5.1778   54.0962   22.8122 C   0  0  0  0  0  0
    6.1670   54.7815   23.5398 C   0  0  0  0  0  0
    7.0936   55.5240   22.7968 C   0  0  0  0  0  0
    7.0237   55.6963   21.4567 N   0  0  0  0  0  0
    6.1425   54.8947   25.0505 C   0  0  0  0  0  0
    6.8806   55.6983   25.6223 O   0  0  0  0  0  0
    5.2684   54.1031   25.7042 N   0  0  0  0  0  0
    4.8576   54.5046   26.9782 N   0  0  0  0  0  0
    5.2356   53.7891   28.0521 C   0  0  0  0  0  0
    6.2406   53.0809   28.0816 O   0  0  0  0  0  0
    4.3034   53.8688   29.2822 C   0  0  0  0  0  0
    2.8218   53.4117   29.0867 C   0  0  0  0  0  0
    2.7018   52.2307   28.0801 C   0  0  0  0  0  0
    1.2458   51.7779   27.8519 C   0  0  1  0  0  0
    0.6929   51.2975   29.1849 C   0  0  0  0  0  0
    0.7626   52.4098   30.2575 C   0  0  1  0  0  0
    2.2244   52.8765   30.4288 C   0  0  0  0  0  0
   -0.0849   53.5987   29.7840 C   0  0  0  0  0  0
    0.4785   54.0910   28.4305 C   0  0  2  0  0  0
    0.4070   52.9555   27.3711 C   0  0  0  0  0  0
    1.9326   54.5812   28.5946 C   0  0  0  0  0  0
    4.8626   53.2959   18.4212 C   0  0  0  0  0  0
    5.8128   58.0364   15.9658 H   0  0  0  0  0  0
    5.6024   58.9291   17.4548 H   0  0  0  0  0  0
    7.1956   58.3637   16.9910 H   0  0  0  0  0  0
    5.0297   55.4007   16.2763 H   0  0  0  0  0  0
    4.2574   53.8118   20.9035 H   0  0  0  0  0  0
    4.4177   53.5076   23.3046 H   0  0  0  0  0  0
    7.8653   56.0981   23.2857 H   0  0  0  0  0  0
    4.5165   53.6359   25.2206 H   0  0  0  0  0  0
    3.9967   55.0311   26.9555 H   0  0  0  0  0  0
    4.3582   54.8773   29.6930 H   0  0  0  0  0  0
    4.7044   53.2191   30.0536 H   0  0  0  0  0  0
    3.2854   51.3967   28.4744 H   0  0  0  0  0  0
    3.1149   52.4948   27.1075 H   0  0  0  0  0  0
    1.2066   50.9674   27.1233 H   0  0  0  0  0  0
    1.3564   50.4967   29.4546 H   0  0  0  0  0  0
   -0.3169   50.8968   29.0853 H   0  0  0  0  0  0
    0.3749   52.0409   31.2096 H   0  0  0  0  0  0
    2.2091   53.6665   31.1651 H   0  0  0  0  0  0
    2.8319   52.0695   30.8419 H   0  0  0  0  0  0
   -0.0860   54.4008   30.5240 H   0  0  0  0  0  0
   -1.1132   53.2659   29.6830 H   0  0  0  0  0  0
   -0.0958   54.9265   28.0804 H   0  0  0  0  0  0
   -0.6276   52.6494   27.2044 H   0  0  0  0  0  0
    0.7871   53.2962   26.4061 H   0  0  0  0  0  0
    2.2925   54.9785   27.6471 H   0  0  0  0  0  0
    1.9680   55.4137   29.3004 H   0  0  0  0  0  0
    4.8790   52.8281   17.4363 H   0  0  0  0  0  0
    5.4963   52.6801   19.0584 H   0  0  0  0  0  0
    3.8385   53.2121   18.7832 H   0  0  0  0  0  0
  1  2  1  0  0  0
  1 31  1  0  0  0
  1 32  1  0  0  0
  1 33  1  0  0  0
  2  6  2  0  0  0
  2  3  1  0  0  0
  3  4  2  0  0  0
  3 34  1  0  0  0
  4  5  1  0  0  0
  4 30  1  0  0  0
  5  6  1  0  0  0
  5  7  1  0  0  0
  7 12  2  0  0  0
  7  8  1  0  0  0
  8  9  2  0  0  0
  8 35  1  0  0  0
  9 10  1  0  0  0
  9 36  1  0  0  0
 10 11  2  0  0  0
 10 13  1  0  0  0
 11 12  1  0  0  0
 11 37  1  0  0  0
 13 14  2  0  0  0
 13 15  1  0  0  0
 15 16  1  0  0  0
 15 38  1  0  0  0
 16 17  1  0  0  0
 16 39  1  0  0  0
 17 18  2  0  0  0
 17 19  1  0  0  0
 19 20  1  0  0  0
 19 40  1  0  0  0
 19 41  1  0  0  0
 20 25  1  0  0  0
 20 29  1  0  0  0
 20 21  1  0  0  0
 21 22  1  0  0  0
 21 42  1  0  0  0
 21 43  1  0  0  0
 22 28  1  0  0  0
 22 23  1  0  0  0
 22 44  1  0  0  0
 23 24  1  0  0  0
 23 45  1  0  0  0
 23 46  1  0  0  0
 24 25  1  0  0  0
 24 26  1  0  0  0
 24 47  1  0  0  0
 25 48  1  0  0  0
 25 49  1  0  0  0
 26 27  1  0  0  0
 26 50  1  0  0  0
 26 51  1  0  0  0
 27 28  1  0  0  0
 27 29  1  0  0  0
 27 52  1  0  0  0
 28 53  1  0  0  0
 28 54  1  0  0  0
 29 55  1  0  0  0
 29 56  1  0  0  0
 30 57  1  0  0  0
 30 58  1  0  0  0
 30 59  1  0  0  0
M  END
> <i_i_glide_confnum>
103

> <i_i_glide_lignum>
2670

> <i_i_glide_posenum>
259

> <i_i_glide_rotatable_bonds>
7

> <i_m_Source_File_Index>
461

> <b_m_subgroup_collapsed>
0

> <r_i_docking_score>
-5.69807

> <r_i_glide_ecoul>
-3.8414

> <r_i_glide_eff_state_penalty>
0

> <r_i_glide_einternal>
11.6736

> <r_i_glide_emodel>
-49.4292

> <r_i_glide_energy>
-38.0307

> <r_i_glide_erotb>
0.710783

> <r_i_glide_esite>
0

> <r_i_glide_evdw>
-34.1893

> <r_i_glide_gscore>
-5.69807

> <r_i_glide_hbond>
-0.32

> <r_i_glide_ligand_efficiency>
-0.189936

> <r_i_glide_ligand_efficiency_ln>
-1.29466

> <r_i_glide_ligand_efficiency_sa>
-0.590175

> <r_i_glide_lipo>
-1.96573

> <r_i_glide_metal>
0

> <r_i_glide_rewards>
-1.83745

> <s_i_glide_gridfile>
wee1_glide-grid

> <s_m_Source_File>
wee1_decoys_glide_SP.sdf

> <s_m_Source_Path>
/Users/zhangxujun/Desktop

> <s_m_entry_id>
736

> <s_m_entry_name>
wee1_decoys_glide_SP.461

> <s_m_subgroup_title>
wee1_decoys_glide_SP

> <s_m_subgroupid>
wee1_decoys_glide_SP


$$$$
