@<TRIPOS>MOLECULE
ZINC36027399_4863
66   69    1
SMALL
USER_CHARGES


@<TRIPOS>ATOM
      1 C1          0.0770   51.5205   21.1919 C.3       1 UNK         0.0000 
      2 C2         -0.5644   51.8593   22.5473 C.3       1 UNK         0.0000 
      3 C3          0.3756   51.6500   23.7598 C.3       1 UNK         0.0000 
      4 H4          1.3577   52.0008   23.4359 H         1 UNK         0.0000 
      5 C5          0.5203   50.1525   24.1056 C.3       1 UNK         0.0000 
      6 C6          0.0209   52.5553   24.9774 C.3       1 UNK         0.0000 
      7 N7         -0.9546   52.0508   25.9626 N.am      1 UNK         0.0000 
      8 C8         -2.2638   51.8952   25.6611 C.2       1 UNK         0.0000 
      9 O9         -2.8311   52.1799   24.6080 O.2       1 UNK         0.0000 
     10 C10        -2.9725   51.2284   26.8529 C.3       1 UNK         0.0000 
     11 H11        -3.0434   50.1564   26.6560 H         1 UNK         0.0000 
     12 N12        -1.9437   51.2728   27.9278 N.4       1 UNK         0.0000 
     13 C13        -0.6706   51.9242   27.3991 C.3       1 UNK         0.0000 
     14 C14         0.4608   50.9383   27.7718 C.3       1 UNK         0.0000 
     15 C15         1.8698   51.5307   27.8840 C.3       1 UNK         0.0000 
     16 N16         1.8674   52.7778   28.6643 N.pl3     1 UNK         0.0000 
     17 C17         0.9477   53.8320   28.1782 C.3       1 UNK         0.0000 
     18 C18        -0.4955   53.2931   28.1272 C.3       1 UNK         0.0000 
     19 S19         3.4446   53.2803   29.2961 S.o2      1 UNK         0.0000 
     20 O20         3.2289   54.4969   30.0816 O.2       1 UNK         0.0000 
     21 O21         4.0731   52.1012   29.9042 O.2       1 UNK         0.0000 
     22 C22         4.5060   53.7666   27.9289 C.ar      1 UNK         0.0000 
     23 C23         5.8306   54.0980   28.2232 C.ar      1 UNK         0.0000 
     24 C24         6.7044   54.4840   27.2093 C.ar      1 UNK         0.0000 
     25 C25         6.2640   54.5430   25.8874 C.ar      1 UNK         0.0000 
     26 C26         4.9403   54.2234   25.5863 C.ar      1 UNK         0.0000 
     27 C27         4.0639   53.8415   26.6025 C.ar      1 UNK         0.0000 
     28 Cl28        4.3834   54.2827   23.9540 Cl        1 UNK         0.0000 
     29 C29        -4.3460   51.8107   27.2471 C.3       1 UNK         0.0000 
     30 C30        -5.5094   51.4065   26.3618 C.ar      1 UNK         0.0000 
     31 C31        -6.0822   50.1237   26.4943 C.ar      1 UNK         0.0000 
     32 C32        -7.1048   49.7284   25.6420 C.ar      1 UNK         0.0000 
     33 C33        -7.5503   50.5830   24.6423 C.ar      1 UNK         0.0000 
     34 C34        -6.9699   51.8348   24.4787 C.ar      1 UNK         0.0000 
     35 C35        -5.9431   52.2482   25.3164 C.ar      1 UNK         0.0000 
     36 H36        -0.6338   51.6655   20.3781 H         1 UNK         0.0000 
     37 H37         0.9364   52.1610   20.9911 H         1 UNK         0.0000 
     38 H38         0.4138   50.4851   21.1497 H         1 UNK         0.0000 
     39 H39        -1.4673   51.2599   22.6646 H         1 UNK         0.0000 
     40 H40        -0.9040   52.8936   22.5152 H         1 UNK         0.0000 
     41 H41        -0.4498   49.6841   24.2775 H         1 UNK         0.0000 
     42 H42         1.0221   49.6027   23.3071 H         1 UNK         0.0000 
     43 H43         1.1062   50.0030   25.0068 H         1 UNK         0.0000 
     44 H44        -0.2919   53.5396   24.6271 H         1 UNK         0.0000 
     45 H45         0.9462   52.7371   25.5144 H         1 UNK         0.0000 
     46 H46        -2.2643   51.7353   28.7640 H         1 UNK         0.0000 
     47 H47         0.2501   50.5151   28.7547 H         1 UNK         0.0000 
     48 H48         0.4503   50.0920   27.0953 H         1 UNK         0.0000 
     49 H49         2.5301   50.8130   28.3631 H         1 UNK         0.0000 
     50 H50         2.1915   51.7542   26.8759 H         1 UNK         0.0000 
     51 H51         1.0062   54.7081   28.8273 H         1 UNK         0.0000 
     52 H52         1.2027   54.0990   27.1555 H         1 UNK         0.0000 
     53 H53        -1.1427   54.0446   27.6816 H         1 UNK         0.0000 
     54 H54        -0.8258   53.2028   29.1651 H         1 UNK         0.0000 
     55 H55         6.1882   54.0721   29.2426 H         1 UNK         0.0000 
     56 H56         7.7226   54.7331   27.4642 H         1 UNK         0.0000 
     57 H57         6.9430   54.8323   25.0978 H         1 UNK         0.0000 
     58 H58         3.0536   53.6026   26.3277 H         1 UNK         0.0000 
     59 H59        -4.2985   52.8969   27.2802 H         1 UNK         0.0000 
     60 H60        -4.5978   51.4863   28.2579 H         1 UNK         0.0000 
     61 H61        -5.7323   49.4472   27.2609 H         1 UNK         0.0000 
     62 H62        -7.5507   48.7505   25.7537 H         1 UNK         0.0000 
     63 H63        -8.3434   50.2678   23.9800 H         1 UNK         0.0000 
     64 H64        -7.3081   52.4827   23.6823 H         1 UNK         0.0000 
     65 H65        -5.4846   53.2146   25.1640 H         1 UNK         0.0000 
     66 H66        -1.7186   50.3183   28.2077 H         1 UNK         0.0000 
@<TRIPOS>BOND
     1    1    2 1    
     2    1   36 1    
     3    1   37 1    
     4    1   38 1    
     5    2    3 1    
     6    2   39 1    
     7    2   40 1    
     8    3    4 1    
     9    3    5 1    
    10    3    6 1    
    11    5   41 1    
    12    5   42 1    
    13    5   43 1    
    14    6    7 1    
    15    6   44 1    
    16    6   45 1    
    17    7   13 1    
    18    7    8 am   BACKBONE|DICT|INTERRES
    19    8    9 2    
    20    8   10 1    
    21   10   11 1    
    22   10   12 1    
    23   10   29 1    
    24   12   13 1    
    25   12   46 1    
    26   12   66 1    
    27   13   18 1    
    28   13   14 1    
    29   14   15 1    
    30   14   47 1    
    31   14   48 1    
    32   15   16 1    
    33   15   49 1    
    34   15   50 1    
    35   16   17 1    
    36   16   19 1    
    37   17   18 1    
    38   17   51 1    
    39   17   52 1    
    40   18   53 1    
    41   18   54 1    
    42   19   20 2    
    43   19   21 2    
    44   19   22 1    
    45   22   27 ar   
    46   22   23 ar   
    47   23   24 ar   
    48   23   55 1    
    49   24   25 ar   
    50   24   56 1    
    51   25   26 ar   
    52   25   57 1    
    53   26   27 ar   
    54   26   28 1    
    55   27   58 1    
    56   29   30 1    
    57   29   59 1    
    58   29   60 1    
    59   30   35 ar   
    60   30   31 ar   
    61   31   32 ar   
    62   31   61 1    
    63   32   33 ar   
    64   32   62 1    
    65   33   34 ar   
    66   33   63 1    
    67   34   35 ar   
    68   34   64 1    
    69   35   65 1    
@<TRIPOS>SUBSTRUCTURE
     1 UNK         1 GROUP             0       ****    0 ROOT    
