@<TRIPOS>MOLECULE
ZINC20437310_3446
52   56    1
SMALL
USER_CHARGES


@<TRIPOS>ATOM
      1 C1          3.1070   52.4966   28.8654 C.ar      1 UNK         0.0000 
      2 C2          2.0000   51.7380   28.4810 C.ar      1 UNK         0.0000 
      3 C3          0.7307   52.3192   28.4099 C.ar      1 UNK         0.0000 
      4 C4          0.5801   53.6688   28.7508 C.ar      1 UNK         0.0000 
      5 C5          1.6874   54.4306   29.1373 C.ar      1 UNK         0.0000 
      6 C6          2.9515   53.8436   29.1888 C.ar      1 UNK         0.0000 
      7 Cl7         1.5044   56.0962   29.5545 Cl        1 UNK         0.0000 
      8 C8         -0.4778   51.4795   27.9904 C.3       1 UNK         0.0000 
      9 O9         -0.1611   50.5710   26.9236 O.3       1 UNK         0.0000 
     10 C10         0.0760   51.0479   25.6492 C.ar      1 UNK         0.0000 
     11 C11        -0.2669   52.3356   25.2319 C.ar      1 UNK         0.0000 
     12 C12         0.1026   52.7919   23.9742 C.ar      1 UNK         0.0000 
     13 C13         0.8336   51.9681   23.1131 C.ar      1 UNK         0.0000 
     14 C14         1.1110   50.6517   23.4952 C.ar      1 UNK         0.0000 
     15 C15         0.7050   50.1899   24.7481 C.ar      1 UNK         0.0000 
     16 C16         1.2513   52.5009   21.7394 C.3       1 UNK         0.0000 
     17 H17         1.0150   53.5646   21.7459 H         1 UNK         0.0000 
     18 C18         2.7463   52.4015   21.3623 C.ar      1 UNK         0.0000 
     19 C19         4.0167   52.8908   21.8230 C.ar      1 UNK         0.0000 
     20 N20         4.9900   52.4798   21.0149 N.2       1 UNK         0.0000 
     21 N21         4.4262   51.7206   20.0820 N.pl3     1 UNK         0.0000 
     22 H22         4.9377   51.2655   19.3178 H         1 UNK         0.0000 
     23 C23         3.0944   51.6486   20.2556 C.ar      1 UNK         0.0000 
     24 O24         2.3006   50.9560   19.3844 O.3       1 UNK         0.0000 
     25 C25         0.9760   51.1403   19.5989 C.2       1 UNK         0.0000 
     26 C26         0.4188   51.8461   20.6137 C.2       1 UNK         0.0000 
     27 C27        -0.9967   51.9759   20.6642 C.1       1 UNK         0.0000 
     28 N28        -2.1452   52.0920   20.6589 N.1       1 UNK         0.0000 
     29 N29         0.3180   50.5061   18.5816 N.pl3     1 UNK         0.0000 
     30 C30         4.4167   53.6953   23.0479 C.ar      1 UNK         0.0000 
     31 C31         3.5067   53.9567   24.0775 C.ar      1 UNK         0.0000 
     32 C32         3.9506   54.3807   25.3296 C.ar      1 UNK         0.0000 
     33 C33         5.3118   54.5839   25.5456 C.ar      1 UNK         0.0000 
     34 C34         6.2136   54.4754   24.4941 C.ar      1 UNK         0.0000 
     35 C35         5.7659   54.0373   23.2535 C.ar      1 UNK         0.0000 
     36 Cl36        5.9047   54.8964   27.1338 Cl        1 UNK         0.0000 
     37 H37         4.0880   52.0452   28.8992 H         1 UNK         0.0000 
     38 H38         2.1287   50.6967   28.2243 H         1 UNK         0.0000 
     39 H39        -0.3968   54.1244   28.7133 H         1 UNK         0.0000 
     40 H40         3.8128   54.4305   29.4730 H         1 UNK         0.0000 
     41 H41        -1.3439   52.0968   27.7497 H         1 UNK         0.0000 
     42 H42        -0.7827   50.8968   28.8583 H         1 UNK         0.0000 
     43 H43        -0.8191   52.9891   25.8804 H         1 UNK         0.0000 
     44 H44        -0.1621   53.7986   23.6870 H         1 UNK         0.0000 
     45 H45         1.6446   49.9904   22.8276 H         1 UNK         0.0000 
     46 H46         0.9474   49.1810   25.0515 H         1 UNK         0.0000 
     47 H47        -0.6897   50.4719   18.5508 H         1 UNK         0.0000 
     48 H48         0.8272   50.2302   17.7540 H         1 UNK         0.0000 
     49 H49         2.4641   53.7467   23.9507 H         1 UNK         0.0000 
     50 H50         3.2473   54.4853   26.1428 H         1 UNK         0.0000 
     51 H51         7.2675   54.6535   24.6518 H         1 UNK         0.0000 
     52 H52         6.5057   53.8778   22.4852 H         1 UNK         0.0000 
@<TRIPOS>BOND
     1    1    6 ar   
     2    1    2 ar   
     3    1   37 1    
     4    2    3 ar   
     5    2   38 1    
     6    3    4 ar   
     7    3    8 1    
     8    4    5 ar   
     9    4   39 1    
    10    5    6 ar   
    11    5    7 1    
    12    6   40 1    
    13    8    9 1    
    14    8   41 1    
    15    8   42 1    
    16    9   10 1    
    17   10   15 ar   
    18   10   11 ar   
    19   11   12 ar   
    20   11   43 1    
    21   12   13 ar   
    22   12   44 1    
    23   13   14 ar   
    24   13   16 1    
    25   14   15 ar   
    26   14   45 1    
    27   15   46 1    
    28   16   17 1    
    29   16   26 1    
    30   16   18 1    
    31   18   23 ar   
    32   18   19 ar   
    33   19   20 ar   
    34   19   30 1    
    35   20   21 ar   
    36   21   22 1    
    37   21   23 ar   
    38   23   24 1    
    39   24   25 1    
    40   25   26 2    
    41   25   29 1    
    42   26   27 1    
    43   27   28 3    
    44   29   47 1    
    45   29   48 1    
    46   30   35 ar   
    47   30   31 ar   
    48   31   32 ar   
    49   31   49 1    
    50   32   33 ar   
    51   32   50 1    
    52   33   34 ar   
    53   33   36 1    
    54   34   35 ar   
    55   34   51 1    
    56   35   52 1    
@<TRIPOS>SUBSTRUCTURE
     1 UNK         1 GROUP             0       ****    0 ROOT    
