@<TRIPOS>MOLECULE
ZINC65021468_1976
49   52    1
SMALL
USER_CHARGES


@<TRIPOS>ATOM
      1 C1          1.8017   52.4960   31.0678 C.3       1 UNK         0.0000 
      2 C2          2.5928   53.0797   29.9152 C.ar      1 UNK         0.0000 
      3 C3          2.0136   54.0309   29.0815 C.ar      1 UNK         0.0000 
      4 C4          2.7563   54.5725   28.0376 C.ar      1 UNK         0.0000 
      5 C5          4.0873   54.2164   27.8005 C.ar      1 UNK         0.0000 
      6 C6          4.6495   53.2475   28.6475 C.ar      1 UNK         0.0000 
      7 C7          3.9061   52.6729   29.6816 C.ar      1 UNK         0.0000 
      8 F8          4.4590   51.7210   30.4666 F         1 UNK         0.0000 
      9 N9          4.7113   54.8966   26.7837 N.2       1 UNK         0.0000 
     10 S10         6.1056   54.5830   26.1405 S.o2      1 UNK         0.0000 
     11 O11         6.6997   53.2968   26.4818 O.2       1 UNK         0.0000 
     12 O12         7.0303   55.7108   26.1458 O.2       1 UNK         0.0000 
     13 C13         5.6421   54.4650   24.4031 C.ar      1 UNK         0.0000 
     14 C14         4.4087   53.9509   23.9854 C.ar      1 UNK         0.0000 
     15 C15         4.1092   53.8621   22.6262 C.ar      1 UNK         0.0000 
     16 C16         5.0292   54.3051   21.6754 C.ar      1 UNK         0.0000 
     17 C17         6.2554   54.8454   22.0829 C.ar      1 UNK         0.0000 
     18 C18         6.5601   54.8969   23.4416 C.ar      1 UNK         0.0000 
     19 N19         7.1985   55.3330   21.1758 N.am      1 UNK         0.0000 
     20 C20         7.0729   55.6676   19.8784 C.2       1 UNK         0.0000 
     21 O21         8.0396   56.1200   19.2696 O.2       1 UNK         0.0000 
     22 C22         5.6384   55.4903   19.2971 C.3       1 UNK         0.0000 
     23 H23         5.1052   56.4120   19.5247 H         1 UNK         0.0000 
     24 S24         4.7041   54.0602   19.9637 S.3       1 UNK         0.0000 
     25 C25         5.6102   55.3570   17.7501 C.2       1 UNK         0.0000 
     26 O26         4.8466   56.1125   17.1435 O.2       1 UNK         0.0000 
     27 N27         6.3727   54.4435   17.0840 N.am      1 UNK         0.0000 
     28 C28         6.2780   54.2827   15.6252 C.3       1 UNK         0.0000 
     29 C29         6.5785   52.7965   15.4432 C.3       1 UNK         0.0000 
     30 C30         7.5963   52.5032   16.5261 C.3       1 UNK         0.0000 
     31 C31         7.1275   53.3443   17.7112 C.3       1 UNK         0.0000 
     32 H32         1.5042   51.4874   30.8052 H         1 UNK         0.0000 
     33 H33         2.4112   52.4410   31.9704 H         1 UNK         0.0000 
     34 H34         0.9153   53.0857   31.3055 H         1 UNK         0.0000 
     35 H35         0.9923   54.3500   29.2331 H         1 UNK         0.0000 
     36 H36         2.2847   55.2965   27.3970 H         1 UNK         0.0000 
     37 H37         5.6721   52.9300   28.5363 H         1 UNK         0.0000 
     38 H38         3.6908   53.5971   24.7115 H         1 UNK         0.0000 
     39 H39         3.1686   53.4344   22.3101 H         1 UNK         0.0000 
     40 H40         7.5042   55.3091   23.7608 H         1 UNK         0.0000 
     41 H41         8.1235   55.5327   21.5274 H         1 UNK         0.0000 
     42 H42         7.0741   54.8485   15.1393 H         1 UNK         0.0000 
     43 H43         5.2898   54.5045   15.2184 H         1 UNK         0.0000 
     44 H44         6.9320   52.5596   14.4388 H         1 UNK         0.0000 
     45 H45         5.6735   52.2087   15.6134 H         1 UNK         0.0000 
     46 H46         7.6761   51.4440   16.7752 H         1 UNK         0.0000 
     47 H47         8.5841   52.8367   16.2028 H         1 UNK         0.0000 
     48 H48         6.4738   52.7235   18.3256 H         1 UNK         0.0000 
     49 H49         7.9924   53.6908   18.2772 H         1 UNK         0.0000 
@<TRIPOS>BOND
     1    1    2 1    
     2    1   32 1    
     3    1   33 1    
     4    1   34 1    
     5    2    7 ar   
     6    2    3 ar   
     7    3    4 ar   
     8    3   35 1    
     9    4    5 ar   
    10    4   36 1    
    11    5    6 ar   
    12    5    9 1    
    13    6    7 ar   
    14    6   37 1    
    15    7    8 1    
    16    9   10 1    
    17   10   11 2    
    18   10   12 2    
    19   10   13 1    
    20   13   18 ar   
    21   13   14 ar   
    22   14   15 ar   
    23   14   38 1    
    24   15   16 ar   
    25   15   39 1    
    26   16   24 1    
    27   16   17 ar   
    28   17   18 ar   
    29   17   19 1    
    30   18   40 1    
    31   19   20 am   BACKBONE|DICT|INTERRES
    32   19   41 1    
    33   20   21 2    
    34   20   22 1    
    35   22   23 1    
    36   22   24 1    
    37   22   25 1    
    38   25   26 2    
    39   25   27 am   BACKBONE|DICT|INTERRES
    40   27   31 1    
    41   27   28 1    
    42   28   29 1    
    43   28   42 1    
    44   28   43 1    
    45   29   30 1    
    46   29   44 1    
    47   29   45 1    
    48   30   31 1    
    49   30   46 1    
    50   30   47 1    
    51   31   48 1    
    52   31   49 1    
@<TRIPOS>SUBSTRUCTURE
     1 UNK         1 GROUP             0       ****    0 ROOT    
