@<TRIPOS>MOLECULE
ZINC39690580_1303
63   66    1
SMALL
USER_CHARGES


@<TRIPOS>ATOM
      1 C1          3.5078   52.6848   29.3744 C.3       1 UNK         0.0000 
      2 C2          2.8054   53.7528   28.4971 C.3       1 UNK         0.0000 
      3 H3          3.0587   54.7590   28.8402 H         1 UNK         0.0000 
      4 C4          1.2576   53.6419   28.5882 C.2       1 UNK         0.0000 
      5 O5          0.6867   54.2899   29.4682 O.2       1 UNK         0.0000 
      6 N6          0.5625   52.8797   27.6971 N.am      1 UNK         0.0000 
      7 C7          1.1703   51.8725   26.8426 C.3       1 UNK         0.0000 
      8 C8          0.0699   50.8156   26.7253 C.3       1 UNK         0.0000 
      9 H9          0.1228   50.1494   27.5869 H         1 UNK         0.0000 
     10 C10        -1.2648   51.6091   26.7526 C.3       1 UNK         0.0000 
     11 C11        -0.8970   52.7951   27.6727 C.3       1 UNK         0.0000 
     12 C12        -2.4117   50.7124   27.2984 C.3       1 UNK         0.0000 
     13 C13        -3.8283   51.3099   27.2758 C.3       1 UNK         0.0000 
     14 N14        -4.1362   51.8745   25.8762 N.4       1 UNK         0.0000 
     15 C15        -3.0744   52.8760   25.3887 C.3       1 UNK         0.0000 
     16 C16        -1.7190   52.1435   25.3509 C.3       1 UNK         0.0000 
     17 C17         0.3015   49.9945   25.4416 C.2       1 UNK         0.0000 
     18 O18         0.8186   50.4871   24.4374 O.2       1 UNK         0.0000 
     19 N19        -0.1011   48.7229   25.5111 N.am      1 UNK         0.0000 
     20 C20        -0.0887   47.7968   24.3929 C.3       1 UNK         0.0000 
     21 C21        -1.4593   47.6582   23.7425 C.ar      1 UNK         0.0000 
     22 C22        -1.6824   48.2417   22.4889 C.ar      1 UNK         0.0000 
     23 C23        -2.9231   48.1197   21.8640 C.ar      1 UNK         0.0000 
     24 C24        -3.9527   47.4163   22.4856 C.ar      1 UNK         0.0000 
     25 C25        -3.7391   46.8282   23.7320 C.ar      1 UNK         0.0000 
     26 C26        -2.4971   46.9401   24.3618 C.ar      1 UNK         0.0000 
     27 Br27       -2.2589   46.0968   26.0577 Br        1 UNK         0.0000 
     28 O28         3.1529   53.6859   27.1108 O.3       1 UNK         0.0000 
     29 C29         4.3684   54.0969   26.6164 C.ar      1 UNK         0.0000 
     30 C30         5.4641   54.4983   27.3934 C.ar      1 UNK         0.0000 
     31 C31         6.6434   54.8908   26.7695 C.ar      1 UNK         0.0000 
     32 C32         6.7178   54.8952   25.3773 C.ar      1 UNK         0.0000 
     33 C33         5.6377   54.4969   24.6013 C.ar      1 UNK         0.0000 
     34 C34         4.4635   54.0977   25.2266 C.ar      1 UNK         0.0000 
     35 H35         3.2129   52.7818   30.4188 H         1 UNK         0.0000 
     36 H36         3.2525   51.6731   29.0585 H         1 UNK         0.0000 
     37 H37         4.5926   52.7609   29.3421 H         1 UNK         0.0000 
     38 H38         1.3425   52.3512   25.8768 H         1 UNK         0.0000 
     39 H39         2.0684   51.4257   27.2668 H         1 UNK         0.0000 
     40 H40        -1.2234   52.5393   28.6828 H         1 UNK         0.0000 
     41 H41        -1.3610   53.6985   27.2861 H         1 UNK         0.0000 
     42 H42        -2.4318   49.7557   26.7701 H         1 UNK         0.0000 
     43 H43        -2.1757   50.4673   28.3323 H         1 UNK         0.0000 
     44 H44        -4.5872   50.5514   27.4800 H         1 UNK         0.0000 
     45 H45        -3.9471   52.1109   27.9986 H         1 UNK         0.0000 
     46 H46        -4.1832   51.1040   25.2202 H         1 UNK         0.0000 
     47 H47        -3.3938   53.2105   24.4018 H         1 UNK         0.0000 
     48 H48        -3.1169   53.7139   26.0833 H         1 UNK         0.0000 
     49 H49        -0.9527   52.8022   24.9372 H         1 UNK         0.0000 
     50 H50        -1.8096   51.3289   24.6299 H         1 UNK         0.0000 
     51 H51        -0.4839   48.3725   26.3846 H         1 UNK         0.0000 
     52 H52         0.6541   48.0971   23.6505 H         1 UNK         0.0000 
     53 H53         0.2354   46.8346   24.7688 H         1 UNK         0.0000 
     54 H54        -0.8971   48.7964   21.9972 H         1 UNK         0.0000 
     55 H55        -3.0893   48.5769   20.8988 H         1 UNK         0.0000 
     56 H56        -4.9158   47.3239   22.0042 H         1 UNK         0.0000 
     57 H57        -4.5383   46.2845   24.2133 H         1 UNK         0.0000 
     58 H58         5.4176   54.5320   28.4700 H         1 UNK         0.0000 
     59 H59         7.4924   55.1951   27.3664 H         1 UNK         0.0000 
     60 H60         7.6236   55.2033   24.8811 H         1 UNK         0.0000 
     61 H61         5.7091   54.4953   23.5226 H         1 UNK         0.0000 
     62 H62         3.6185   53.7881   24.6311 H         1 UNK         0.0000 
     63 H63        -5.0504   52.3064   25.8763 H         1 UNK         0.0000 
@<TRIPOS>BOND
     1    1    2 1    
     2    1   35 1    
     3    1   36 1    
     4    1   37 1    
     5    2    3 1    
     6    2    4 1    
     7    2   28 1    
     8    4    5 2    
     9    4    6 am   BACKBONE|DICT|INTERRES
    10    6   11 1    
    11    6    7 1    
    12    7    8 1    
    13    7   38 1    
    14    7   39 1    
    15    8    9 1    
    16    8   10 1    
    17    8   17 1    
    18   10   16 1    
    19   10   11 1    
    20   10   12 1    
    21   11   40 1    
    22   11   41 1    
    23   12   13 1    
    24   12   42 1    
    25   12   43 1    
    26   13   14 1    
    27   13   44 1    
    28   13   45 1    
    29   14   15 1    
    30   14   46 1    
    31   14   63 1    
    32   15   16 1    
    33   15   47 1    
    34   15   48 1    
    35   16   49 1    
    36   16   50 1    
    37   17   18 2    
    38   17   19 am   BACKBONE|DICT|INTERRES
    39   19   20 1    
    40   19   51 1    
    41   20   21 1    
    42   20   52 1    
    43   20   53 1    
    44   21   26 ar   
    45   21   22 ar   
    46   22   23 ar   
    47   22   54 1    
    48   23   24 ar   
    49   23   55 1    
    50   24   25 ar   
    51   24   56 1    
    52   25   26 ar   
    53   25   57 1    
    54   26   27 1    
    55   28   29 1    
    56   29   34 ar   
    57   29   30 ar   
    58   30   31 ar   
    59   30   58 1    
    60   31   32 ar   
    61   31   59 1    
    62   32   33 ar   
    63   32   60 1    
    64   33   34 ar   
    65   33   61 1    
    66   34   62 1    
@<TRIPOS>SUBSTRUCTURE
     1 UNK         1 GROUP             0       ****    0 ROOT    
