@<TRIPOS>MOLECULE
ZINC03764216_5732
67   71    1
SMALL
USER_CHARGES


@<TRIPOS>ATOM
      1 C1          2.0906   41.6279   16.5945 C.3       1 UNK         0.0000 
      2 C2          1.5934   41.9399   17.9955 C.ar      1 UNK         0.0000 
      3 C3          2.2369   41.3907   19.1068 C.ar      1 UNK         0.0000 
      4 C4          1.7944   41.7005   20.3922 C.ar      1 UNK         0.0000 
      5 C5          0.7134   42.5589   20.5739 C.ar      1 UNK         0.0000 
      6 C6          0.0533   43.1180   19.4659 C.ar      1 UNK         0.0000 
      7 C7          0.5084   42.8027   18.1790 C.ar      1 UNK         0.0000 
      8 N8         -1.0357   44.0078   19.5483 N.am      1 UNK         0.0000 
      9 C9         -1.8520   44.2583   20.5926 C.2       1 UNK         0.0000 
     10 O10        -1.7683   43.6957   21.6820 O.2       1 UNK         0.0000 
     11 C11        -2.9686   45.2850   20.3390 C.3       1 UNK         0.0000 
     12 S12        -4.0867   45.5836   21.7595 S.3       1 UNK         0.0000 
     13 C13        -3.5179   47.1976   22.1777 C.ar      1 UNK         0.0000 
     14 N14        -3.8369   48.2681   21.4968 N.2       1 UNK         0.0000 
     15 N15        -3.1486   49.3344   22.0571 N.2       1 UNK         0.0000 
     16 C16        -2.4384   48.8731   23.0598 C.ar      1 UNK         0.0000 
     17 N17        -2.6478   47.5123   23.2028 N.pl3     1 UNK         0.0000 
     18 C18        -2.0665   46.5850   24.1695 C.3       1 UNK         0.0000 
     19 C19        -3.0714   46.1276   25.2156 C.2       1 UNK         0.0000 
     20 C20        -2.8335   46.0968   26.5330 C.2       1 UNK         0.0000 
     21 C21        -1.5073   49.7346   23.8525 C.ar      1 UNK         0.0000 
     22 C22        -0.7343   50.6600   23.1433 C.ar      1 UNK         0.0000 
     23 C23         0.1477   51.4985   23.8068 C.ar      1 UNK         0.0000 
     24 C24         0.2666   51.4332   25.2046 C.ar      1 UNK         0.0000 
     25 C25        -0.4978   50.5022   25.9154 C.ar      1 UNK         0.0000 
     26 C26        -1.3881   49.6634   25.2458 C.ar      1 UNK         0.0000 
     27 N27         1.1823   52.2125   25.9400 N.am      1 UNK         0.0000 
     28 C28         1.8793   53.2971   25.5202 C.2       1 UNK         0.0000 
     29 O29         1.6187   53.9437   24.5043 O.2       1 UNK         0.0000 
     30 C30         3.0211   53.6411   26.3404 C.2       1 UNK         0.0000 
     31 C31         3.0493   53.5796   27.7362 C.2       1 UNK         0.0000 
     32 S32         4.5626   54.0828   28.4079 S.3       1 UNK         0.0000 
     33 C33         5.1679   54.4549   26.8282 C.2       1 UNK         0.0000 
     34 C34         4.2235   54.1894   25.8238 C.2       1 UNK         0.0000 
     35 C35         4.5444   54.4078   24.3409 C.3       1 UNK         0.0000 
     36 C36         6.0611   54.5857   24.1192 C.3       1 UNK         0.0000 
     37 C37         6.6837   55.5321   25.1560 C.3       1 UNK         0.0000 
     38 C38         6.5881   54.9499   26.5824 C.3       1 UNK         0.0000 
     39 H39         3.1648   41.4360   16.5962 H         1 UNK         0.0000 
     40 H40         1.9291   42.4751   15.9272 H         1 UNK         0.0000 
     41 H41         1.5784   40.7572   16.1842 H         1 UNK         0.0000 
     42 H42         3.0858   40.7341   18.9782 H         1 UNK         0.0000 
     43 H43         2.3084   41.2968   21.2493 H         1 UNK         0.0000 
     44 H44         0.4357   42.8145   21.5863 H         1 UNK         0.0000 
     45 H45         0.0231   43.2305   17.3142 H         1 UNK         0.0000 
     46 H46        -1.2451   44.4960   18.6907 H         1 UNK         0.0000 
     47 H47        -2.5288   46.2207   19.9965 H         1 UNK         0.0000 
     48 H48        -3.5858   44.9141   19.5227 H         1 UNK         0.0000 
     49 H49        -1.6952   45.7227   23.6149 H         1 UNK         0.0000 
     50 H50        -1.1936   47.0394   24.6406 H         1 UNK         0.0000 
     51 H51        -4.0373   45.8088   24.8472 H         1 UNK         0.0000 
     52 H52        -3.5827   45.7576   27.2330 H         1 UNK         0.0000 
     53 H53        -1.8844   46.4132   26.9458 H         1 UNK         0.0000 
     54 H54        -0.8076   50.7238   22.0679 H         1 UNK         0.0000 
     55 H55         0.7401   52.1715   23.2114 H         1 UNK         0.0000 
     56 H56        -0.4129   50.4160   26.9901 H         1 UNK         0.0000 
     57 H57        -1.9757   48.9622   25.8205 H         1 UNK         0.0000 
     58 H58         1.4190   51.8450   26.8499 H         1 UNK         0.0000 
     59 H59         2.2624   53.2502   28.4012 H         1 UNK         0.0000 
     60 H60         4.1812   53.5831   23.7286 H         1 UNK         0.0000 
     61 H61         4.0058   55.2920   24.0010 H         1 UNK         0.0000 
     62 H62         6.2399   54.9626   23.1107 H         1 UNK         0.0000 
     63 H63         6.5567   53.6156   24.1692 H         1 UNK         0.0000 
     64 H64         6.1744   56.4965   25.1134 H         1 UNK         0.0000 
     65 H65         7.7191   55.7324   24.8842 H         1 UNK         0.0000 
     66 H66         6.8744   55.6968   27.3189 H         1 UNK         0.0000 
     67 H67         7.2862   54.1188   26.6867 H         1 UNK         0.0000 
@<TRIPOS>BOND
     1    1    2 1    
     2    1   39 1    
     3    1   40 1    
     4    1   41 1    
     5    2    7 ar   
     6    2    3 ar   
     7    3    4 ar   
     8    3   42 1    
     9    4    5 ar   
    10    4   43 1    
    11    5    6 ar   
    12    5   44 1    
    13    6    7 ar   
    14    6    8 1    
    15    7   45 1    
    16    8    9 am   BACKBONE|DICT|INTERRES
    17    8   46 1    
    18    9   10 2    
    19    9   11 1    
    20   11   12 1    
    21   11   47 1    
    22   11   48 1    
    23   12   13 1    
    24   13   17 ar   
    25   13   14 ar   
    26   14   15 ar   
    27   15   16 ar   
    28   16   17 ar   
    29   16   21 1    
    30   17   18 1    
    31   18   19 1    
    32   18   49 1    
    33   18   50 1    
    34   19   20 2    
    35   19   51 1    
    36   20   52 1    
    37   20   53 1    
    38   21   26 ar   
    39   21   22 ar   
    40   22   23 ar   
    41   22   54 1    
    42   23   24 ar   
    43   23   55 1    
    44   24   25 ar   
    45   24   27 1    
    46   25   26 ar   
    47   25   56 1    
    48   26   57 1    
    49   27   28 am   BACKBONE|DICT|INTERRES
    50   27   58 1    
    51   28   29 2    
    52   28   30 1    
    53   30   34 1    
    54   30   31 2    
    55   31   32 1    
    56   31   59 1    
    57   32   33 1    
    58   33   38 1    
    59   33   34 2    
    60   34   35 1    
    61   35   36 1    
    62   35   60 1    
    63   35   61 1    
    64   36   37 1    
    65   36   62 1    
    66   36   63 1    
    67   37   38 1    
    68   37   64 1    
    69   37   65 1    
    70   38   66 1    
    71   38   67 1    
@<TRIPOS>SUBSTRUCTURE
     1 UNK         1 GROUP             0       ****    0 ROOT    
