@<TRIPOS>MOLECULE
ZINC14254139_5080
65   68    1
SMALL
USER_CHARGES


@<TRIPOS>ATOM
      1 C1         10.0641   55.2552   17.0671 C.3       1 UNK         0.0000 
      2 C2          8.7190   55.8942   16.6850 C.3       1 UNK         0.0000 
      3 O3          7.6474   55.3393   17.4450 O.3       1 UNK         0.0000 
      4 C4          7.3775   55.7617   18.7122 C.2       1 UNK         0.0000 
      5 O5          7.9762   56.6819   19.2724 O.2       1 UNK         0.0000 
      6 C6          6.2807   54.9955   19.3445 C.2       1 UNK         0.0000 
      7 C7          6.0990   54.8973   20.7637 C.2       1 UNK         0.0000 
      8 C8          4.9546   54.1398   21.1015 C.2       1 UNK         0.0000 
      9 S9          4.1667   53.4877   19.7105 S.3       1 UNK         0.0000 
     10 C10         5.2772   54.2838   18.6490 C.2       1 UNK         0.0000 
     11 N11         5.1668   54.1653   17.2642 N.am      1 UNK         0.0000 
     12 C12         4.1672   53.6376   16.5219 C.2       1 UNK         0.0000 
     13 O13         3.0743   53.2858   16.9603 O.2       1 UNK         0.0000 
     14 C14         4.3941   53.5134   15.0061 C.3       1 UNK         0.0000 
     15 C15         6.2591   53.2033   13.1604 C.3       1 UNK         0.0000 
     16 C16         7.7925   53.0978   13.2968 C.3       1 UNK         0.0000 
     17 C17         7.9743   52.2235   14.5552 C.3       1 UNK         0.0000 
     18 C18         6.5238   51.9307   14.9812 C.3       1 UNK         0.0000 
     19 C19         5.8315   50.9749   13.9835 C.3       1 UNK         0.0000 
     20 C20         5.6379   51.8549   12.7357 C.3       1 UNK         0.0000 
     21 C21         4.4073   53.7431   22.3845 C.2       1 UNK         0.0000 
     22 O22         3.6270   52.7959   22.4727 O.2       1 UNK         0.0000 
     23 N23         4.8000   54.4964   23.4317 N.am      1 UNK         0.0000 
     24 C24         4.5283   54.2825   24.7904 C.ar      1 UNK         0.0000 
     25 C25         5.6373   54.3144   25.6417 C.ar      1 UNK         0.0000 
     26 C26         5.4829   54.1338   27.0140 C.ar      1 UNK         0.0000 
     27 C27         4.2138   53.9343   27.5563 C.ar      1 UNK         0.0000 
     28 C28         3.0993   53.9171   26.7149 C.ar      1 UNK         0.0000 
     29 C29         3.2354   54.0964   25.3335 C.ar      1 UNK         0.0000 
     30 C30         1.9665   54.1344   24.4910 C.3       1 UNK         0.0000 
     31 C31         4.0521   53.7337   29.0519 C.3       1 UNK         0.0000 
     32 C32         7.1030   55.4480   21.7819 C.3       1 UNK         0.0000 
     33 H33        10.8676   55.6402   16.4402 H         1 UNK         0.0000 
     34 H34        10.3263   55.4725   18.1023 H         1 UNK         0.0000 
     35 H35        10.0389   54.1711   16.9515 H         1 UNK         0.0000 
     36 H36         8.5178   55.6985   15.6313 H         1 UNK         0.0000 
     37 H37         8.7592   56.9799   16.7980 H         1 UNK         0.0000 
     38 H38         5.9341   54.5931   16.7710 H         1 UNK         0.0000 
     39 H39         4.0842   54.4231   14.4891 H         1 UNK         0.0000 
     40 H40         3.8232   52.6737   14.6078 H         1 UNK         0.0000 
     41 H41         5.9059   54.0808   12.6147 H         1 UNK         0.0000 
     42 H42         8.2441   54.0831   13.4394 H         1 UNK         0.0000 
     43 H43         8.2569   52.6542   12.4135 H         1 UNK         0.0000 
     44 H44         8.5105   52.7658   15.3380 H         1 UNK         0.0000 
     45 H45         8.5370   51.3079   14.3513 H         1 UNK         0.0000 
     46 H46         6.3940   51.6964   16.0416 H         1 UNK         0.0000 
     47 H47         6.4403   50.0960   13.7621 H         1 UNK         0.0000 
     48 H48         4.8786   50.6166   14.3783 H         1 UNK         0.0000 
     49 H49         4.5797   51.9641   12.4912 H         1 UNK         0.0000 
     50 H50         6.1311   51.4372   11.8563 H         1 UNK         0.0000 
     51 H51         5.4907   55.2025   23.2343 H         1 UNK         0.0000 
     52 H52         6.6281   54.4625   25.2416 H         1 UNK         0.0000 
     53 H53         6.3512   54.1489   27.6576 H         1 UNK         0.0000 
     54 H54         2.1153   53.7721   27.1373 H         1 UNK         0.0000 
     55 H55         1.1147   54.4723   25.0727 H         1 UNK         0.0000 
     56 H56         2.0610   54.8346   23.6597 H         1 UNK         0.0000 
     57 H57         1.7293   53.1429   24.1028 H         1 UNK         0.0000 
     58 H58         3.0304   53.4628   29.3194 H         1 UNK         0.0000 
     59 H59         4.7069   52.9270   29.3880 H         1 UNK         0.0000 
     60 H60         4.3383   54.6406   29.5870 H         1 UNK         0.0000 
     61 H61         6.9085   56.4945   22.0201 H         1 UNK         0.0000 
     62 H62         7.1662   54.8739   22.7044 H         1 UNK         0.0000 
     63 H63         8.1282   55.3938   21.4115 H         1 UNK         0.0000 
     64 N64         5.8920   53.2929   14.6483 N.4       1 UNK         0.0000 
     65 H65         6.4565   54.0193   15.0617 H         1 UNK         0.0000 
@<TRIPOS>BOND
     1    1    2 1    
     2    1   33 1    
     3    1   34 1    
     4    1   35 1    
     5    2    3 1    
     6    2   36 1    
     7    2   37 1    
     8    3    4 1    
     9    4    5 2    
    10    4    6 1    
    11    6   10 2    
    12    6    7 1    
    13    7    8 2    
    14    7   32 1    
    15    8    9 1    
    16    8   21 1    
    17    9   10 1    
    18   10   11 am   BACKBONE|DICT|INTERRES
    19   11   12 am   BACKBONE|DICT|INTERRES
    20   11   38 1    
    21   12   13 2    
    22   12   14 1    
    23   14   39 1    
    24   14   40 1    
    25   14   64 1    
    26   15   20 1    
    27   15   16 1    
    28   15   41 1    
    29   15   64 1    
    30   16   17 1    
    31   16   42 1    
    32   16   43 1    
    33   17   18 1    
    34   17   44 1    
    35   17   45 1    
    36   18   19 1    
    37   18   46 1    
    38   18   64 1    
    39   19   20 1    
    40   19   47 1    
    41   19   48 1    
    42   20   49 1    
    43   20   50 1    
    44   21   22 2    
    45   21   23 am   BACKBONE|DICT|INTERRES
    46   23   24 1    
    47   23   51 1    
    48   24   29 ar   
    49   24   25 ar   
    50   25   26 ar   
    51   25   52 1    
    52   26   27 ar   
    53   26   53 1    
    54   27   28 ar   
    55   27   31 1    
    56   28   29 ar   
    57   28   54 1    
    58   29   30 1    
    59   30   55 1    
    60   30   56 1    
    61   30   57 1    
    62   31   58 1    
    63   31   59 1    
    64   31   60 1    
    65   32   61 1    
    66   32   62 1    
    67   32   63 1    
    68   64   65 1    
@<TRIPOS>SUBSTRUCTURE
     1 UNK         1 GROUP             0       ****    0 ROOT    
