@<TRIPOS>MOLECULE
ZINC08437641_3995
58   62    1
SMALL
USER_CHARGES


@<TRIPOS>ATOM
      1 C1         -0.4406   52.4235   30.1681 C.3       1 UNK         0.0000 
      2 O2          0.5269   53.4614   30.0220 O.3       1 UNK         0.0000 
      3 C3          1.2768   53.5143   28.8638 C.ar      1 UNK         0.0000 
      4 C4          2.2840   54.4768   28.8043 C.ar      1 UNK         0.0000 
      5 C5          3.0933   54.5810   27.6740 C.ar      1 UNK         0.0000 
      6 C6          2.8850   53.7660   26.5546 C.ar      1 UNK         0.0000 
      7 C7          1.9047   52.7827   26.6485 C.ar      1 UNK         0.0000 
      8 C8          1.1003   52.6538   27.7744 C.ar      1 UNK         0.0000 
      9 C9          3.7591   53.8966   25.3280 C.ar      1 UNK         0.0000 
     10 C10         3.4936   53.6993   23.9271 C.ar      1 UNK         0.0000 
     11 C11         4.7538   53.8583   23.3694 C.ar      1 UNK         0.0000 
     12 N12         5.6221   54.2231   24.3424 N.pl3     1 UNK         0.0000 
     13 H13         6.6047   54.4163   24.2119 H         1 UNK         0.0000 
     14 N14         5.0217   54.2584   25.5294 N.2       1 UNK         0.0000 
     15 O15         5.1592   53.6732   22.0741 O.3       1 UNK         0.0000 
     16 C16         4.1890   53.1714   21.2641 C.2       1 UNK         0.0000 
     17 C17         2.8843   52.9957   21.5882 C.2       1 UNK         0.0000 
     18 C18         2.3094   53.3392   22.9856 C.3       1 UNK         0.0000 
     19 H19         1.7170   54.2440   22.8374 H         1 UNK         0.0000 
     20 C20         1.3164   52.2805   23.4725 C.ar      1 UNK         0.0000 
     21 C21         1.6027   50.9196   23.3273 C.ar      1 UNK         0.0000 
     22 C22         0.7059   49.9541   23.7702 C.ar      1 UNK         0.0000 
     23 C23        -0.4955   50.3238   24.3938 C.ar      1 UNK         0.0000 
     24 C24        -0.7836   51.6908   24.5529 C.ar      1 UNK         0.0000 
     25 C25         0.1056   52.6569   24.0651 C.ar      1 UNK         0.0000 
     26 C26        -2.0220   52.1483   25.3170 C.3       1 UNK         0.0000 
     27 S27        -3.2614   52.8917   24.2104 S.3       1 UNK         0.0000 
     28 C28        -4.7142   52.9962   25.2798 C.2       1 UNK         0.0000 
     29 N29        -5.7037   53.7057   24.9310 N.2       1 UNK         0.0000 
     30 C30        -6.8059   53.6647   25.8592 C.3       1 UNK         0.0000 
     31 C31        -6.5104   52.7623   27.0613 C.3       1 UNK         0.0000 
     32 S32        -4.8569   52.0974   26.8256 S.3       1 UNK         0.0000 
     33 O33        -1.4082   49.4065   24.8824 O.3       1 UNK         0.0000 
     34 C34        -1.1062   48.0152   24.8280 C.3       1 UNK         0.0000 
     35 C35         1.9797   52.4964   20.5992 C.1       1 UNK         0.0000 
     36 N36         1.2229   52.0950   19.8204 N.1       1 UNK         0.0000 
     37 N37         4.7691   52.9007   20.0541 N.pl3     1 UNK         0.0000 
     38 H38        -0.8934   52.4975   31.1546 H         1 UNK         0.0000 
     39 H39        -1.2383   52.4967   29.4289 H         1 UNK         0.0000 
     40 H40         0.0103   51.4358   30.0815 H         1 UNK         0.0000 
     41 H41         2.4495   55.1330   29.6452 H         1 UNK         0.0000 
     42 H42         3.8947   55.2973   27.6699 H         1 UNK         0.0000 
     43 H43         1.7932   52.0638   25.8662 H         1 UNK         0.0000 
     44 H44         0.3578   51.8695   27.7871 H         1 UNK         0.0000 
     45 H45         2.5295   50.6009   22.8718 H         1 UNK         0.0000 
     46 H46         0.9773   48.9186   23.6371 H         1 UNK         0.0000 
     47 H47        -0.1236   53.7043   24.1945 H         1 UNK         0.0000 
     48 H48        -1.7228   52.8952   26.0525 H         1 UNK         0.0000 
     49 H49        -2.4342   51.3180   25.8880 H         1 UNK         0.0000 
     50 H50        -7.6696   53.2919   25.3056 H         1 UNK         0.0000 
     51 H51        -6.9917   54.6906   26.1797 H         1 UNK         0.0000 
     52 H52        -6.5070   53.3099   28.0048 H         1 UNK         0.0000 
     53 H53        -7.1898   51.9100   27.1195 H         1 UNK         0.0000 
     54 H54        -1.8688   47.4598   25.3765 H         1 UNK         0.0000 
     55 H55        -1.1039   47.6541   23.7987 H         1 UNK         0.0000 
     56 H56        -0.1415   47.7842   25.2818 H         1 UNK         0.0000 
     57 H57         4.3149   52.3091   19.3691 H         1 UNK         0.0000 
     58 H58         5.5996   53.3899   19.7605 H         1 UNK         0.0000 
@<TRIPOS>BOND
     1    1    2 1    
     2    1   38 1    
     3    1   39 1    
     4    1   40 1    
     5    2    3 1    
     6    3    8 ar   
     7    3    4 ar   
     8    4    5 ar   
     9    4   41 1    
    10    5    6 ar   
    11    5   42 1    
    12    6    7 ar   
    13    6    9 1    
    14    7    8 ar   
    15    7   43 1    
    16    8   44 1    
    17    9   14 ar   
    18    9   10 ar   
    19   10   18 1    
    20   10   11 ar   
    21   11   12 ar   
    22   11   15 1    
    23   12   13 1    
    24   12   14 ar   
    25   15   16 1    
    26   16   17 2    
    27   16   37 1    
    28   17   18 1    
    29   17   35 1    
    30   18   19 1    
    31   18   20 1    
    32   20   25 ar   
    33   20   21 ar   
    34   21   22 ar   
    35   21   45 1    
    36   22   23 ar   
    37   22   46 1    
    38   23   24 ar   
    39   23   33 1    
    40   24   25 ar   
    41   24   26 1    
    42   25   47 1    
    43   26   27 1    
    44   26   48 1    
    45   26   49 1    
    46   27   28 1    
    47   28   32 1    
    48   28   29 2    
    49   29   30 1    
    50   30   31 1    
    51   30   50 1    
    52   30   51 1    
    53   31   32 1    
    54   31   52 1    
    55   31   53 1    
    56   33   34 1    
    57   34   54 1    
    58   34   55 1    
    59   34   56 1    
    60   35   36 3    
    61   37   57 1    
    62   37   58 1    
@<TRIPOS>SUBSTRUCTURE
     1 UNK         1 GROUP             0       ****    0 ROOT    
