@<TRIPOS>MOLECULE
ZINC12042994_1121
71   75    1
SMALL
USER_CHARGES


@<TRIPOS>ATOM
      1 C1          2.1919   48.7241   19.4164 C.3       1 UNK         0.0000 
      2 C2          0.9563   49.5888   19.2113 C.2       1 UNK         0.0000 
      3 C3         -0.3442   49.1042   19.4146 C.2       1 UNK         0.0000 
      4 S4         -1.5238   50.2968   19.0016 S.3       1 UNK         0.0000 
      5 C5         -0.3025   51.4364   18.5272 C.2       1 UNK         0.0000 
      6 C6          0.9897   50.9330   18.7382 C.2       1 UNK         0.0000 
      7 C7          2.2908   51.7235   18.4903 C.3       1 UNK         0.0000 
      8 H8          3.1195   51.0205   18.4403 H         1 UNK         0.0000 
      9 C9          2.3026   52.4569   17.1392 C.ar      1 UNK         0.0000 
     10 C10         2.2985   53.8546   17.0455 C.ar      1 UNK         0.0000 
     11 C11         2.2837   54.4737   15.7994 C.ar      1 UNK         0.0000 
     12 C12         2.2725   53.7161   14.6298 C.ar      1 UNK         0.0000 
     13 C13         2.2867   52.3167   14.7214 C.ar      1 UNK         0.0000 
     14 C14         2.3037   51.6970   15.9673 C.ar      1 UNK         0.0000 
     15 O15         2.2479   54.4213   13.4427 O.3       1 UNK         0.0000 
     16 C16         2.2230   53.7068   12.2115 C.3       1 UNK         0.0000 
     17 C17         2.3180   52.0091   21.1064 C.3       1 UNK         0.0000 
     18 C18         2.6575   53.0211   22.2194 C.3       1 UNK         0.0000 
     19 N19         4.0401   53.5312   22.1975 N.pl3     1 UNK         0.0000 
     20 C20         4.4556   53.9736   20.8521 C.3       1 UNK         0.0000 
     21 C21         4.1570   52.9698   19.7181 C.3       1 UNK         0.0000 
     22 C22         4.6601   54.0314   23.3432 C.ar      1 UNK         0.0000 
     23 C23         3.9257   54.4376   24.4706 C.ar      1 UNK         0.0000 
     24 C24         4.5739   54.8866   25.6215 C.ar      1 UNK         0.0000 
     25 C25         5.9643   54.9010   25.6659 C.ar      1 UNK         0.0000 
     26 C26         6.7050   54.5054   24.5602 C.ar      1 UNK         0.0000 
     27 C27         6.0580   54.0876   23.4031 C.ar      1 UNK         0.0000 
     28 F28         6.6044   55.2971   26.7884 F         1 UNK         0.0000 
     29 N29        -0.6057   52.6782   17.9679 N.am      1 UNK         0.0000 
     30 C30        -1.8045   53.2982   17.8827 C.2       1 UNK         0.0000 
     31 O31        -2.8515   52.8875   18.3853 O.2       1 UNK         0.0000 
     32 C32        -1.8038   54.6244   17.1614 C.ar      1 UNK         0.0000 
     33 C33        -0.7342   55.5232   17.2830 C.ar      1 UNK         0.0000 
     34 C34        -0.7707   56.7603   16.6463 C.ar      1 UNK         0.0000 
     35 C35        -1.8768   57.1034   15.8744 C.ar      1 UNK         0.0000 
     36 C36        -2.9463   56.2221   15.7396 C.ar      1 UNK         0.0000 
     37 C37        -2.9110   54.9880   16.3844 C.ar      1 UNK         0.0000 
     38 C38        -0.8184   47.7583   19.9234 C.3       1 UNK         0.0000 
     39 H39         2.9243   48.8690   18.6236 H         1 UNK         0.0000 
     40 H40         2.7027   48.9409   20.3530 H         1 UNK         0.0000 
     41 H41         1.9844   47.6566   19.3880 H         1 UNK         0.0000 
     42 H42         2.3023   54.4757   17.9285 H         1 UNK         0.0000 
     43 H43         2.2768   55.5518   15.7340 H         1 UNK         0.0000 
     44 H44         2.2862   51.6934   13.8407 H         1 UNK         0.0000 
     45 H45         2.3212   50.6161   16.0232 H         1 UNK         0.0000 
     46 H46         2.2010   54.4172   11.3852 H         1 UNK         0.0000 
     47 H47         3.1122   53.0870   12.0880 H         1 UNK         0.0000 
     48 H48         1.3336   53.0794   12.1315 H         1 UNK         0.0000 
     49 H49         1.2418   51.8357   21.1232 H         1 UNK         0.0000 
     50 H50         2.8593   51.0673   21.2052 H         1 UNK         0.0000 
     51 H51         2.0270   53.9011   22.0743 H         1 UNK         0.0000 
     52 H52         2.4096   52.5918   23.1913 H         1 UNK         0.0000 
     53 H53         5.5011   54.2792   20.8165 H         1 UNK         0.0000 
     54 H54         3.8673   54.8726   20.6596 H         1 UNK         0.0000 
     55 H55         4.7318   52.0450   19.7954 H         1 UNK         0.0000 
     56 H56         4.3664   53.4397   18.7575 H         1 UNK         0.0000 
     57 H57         2.8465   54.4185   24.4641 H         1 UNK         0.0000 
     58 H58         4.0033   55.1969   26.4839 H         1 UNK         0.0000 
     59 H59         7.7799   54.5035   24.6042 H         1 UNK         0.0000 
     60 H60         6.6583   53.7620   22.5681 H         1 UNK         0.0000 
     61 H61         0.1831   53.1695   17.5730 H         1 UNK         0.0000 
     62 H62         0.1176   55.2909   17.9034 H         1 UNK         0.0000 
     63 H63         0.0521   57.4533   16.7570 H         1 UNK         0.0000 
     64 H64        -1.9056   58.0624   15.3780 H         1 UNK         0.0000 
     65 H65        -3.8028   56.4952   15.1405 H         1 UNK         0.0000 
     66 H66        -3.7533   54.3179   16.2774 H         1 UNK         0.0000 
     67 H67        -1.2826   47.8487   20.9063 H         1 UNK         0.0000 
     68 H68        -1.5656   47.3240   19.2588 H         1 UNK         0.0000 
     69 H69        -0.0222   47.0209   20.0217 H         1 UNK         0.0000 
     70 N70         2.6530   52.6146   19.7251 N.4       1 UNK         0.0000 
     71 H71         2.1322   53.4806   19.6397 H         1 UNK         0.0000 
@<TRIPOS>BOND
     1    1    2 1    
     2    1   39 1    
     3    1   40 1    
     4    1   41 1    
     5    2    6 1    
     6    2    3 2    
     7    3    4 1    
     8    3   38 1    
     9    4    5 1    
    10    5    6 2    
    11    5   29 am   BACKBONE|DICT|INTERRES
    12    6    7 1    
    13    7    8 1    
    14    7    9 1    
    15    7   70 1    
    16    9   14 ar   
    17    9   10 ar   
    18   10   11 ar   
    19   10   42 1    
    20   11   12 ar   
    21   11   43 1    
    22   12   13 ar   
    23   12   15 1    
    24   13   14 ar   
    25   13   44 1    
    26   14   45 1    
    27   15   16 1    
    28   16   46 1    
    29   16   47 1    
    30   16   48 1    
    31   17   18 1    
    32   17   49 1    
    33   17   50 1    
    34   17   70 1    
    35   18   19 1    
    36   18   51 1    
    37   18   52 1    
    38   19   20 1    
    39   19   22 1    
    40   20   21 1    
    41   20   53 1    
    42   20   54 1    
    43   21   55 1    
    44   21   56 1    
    45   21   70 1    
    46   22   27 ar   
    47   22   23 ar   
    48   23   24 ar   
    49   23   57 1    
    50   24   25 ar   
    51   24   58 1    
    52   25   26 ar   
    53   25   28 1    
    54   26   27 ar   
    55   26   59 1    
    56   27   60 1    
    57   29   30 am   BACKBONE|DICT|INTERRES
    58   29   61 1    
    59   30   31 2    
    60   30   32 1    
    61   32   37 ar   
    62   32   33 ar   
    63   33   34 ar   
    64   33   62 1    
    65   34   35 ar   
    66   34   63 1    
    67   35   36 ar   
    68   35   64 1    
    69   36   37 ar   
    70   36   65 1    
    71   37   66 1    
    72   38   67 1    
    73   38   68 1    
    74   38   69 1    
    75   70   71 1    
@<TRIPOS>SUBSTRUCTURE
     1 UNK         1 GROUP             0       ****    0 ROOT    
