ZINC67527859_1364
                    3D
 Schrodinger Suite 2024-2.
 58 60  0  0  1  0            999 V2000
    3.0500   53.4802   22.5373 C   0  0  0  0  0  0
    4.4391   54.1016   22.4167 C   0  0  0  0  0  0
    4.8793   54.4960   21.1496 C   0  0  0  0  0  0
    6.1067   55.1508   20.9615 C   0  0  0  0  0  0
    6.9376   55.2966   22.0808 C   0  0  0  0  0  0
    6.5236   54.8964   23.3486 C   0  0  0  0  0  0
    5.2509   54.3395   23.5405 C   0  0  0  0  0  0
    4.7015   54.0629   24.8070 N   0  0  0  0  0  0
    5.2561   54.1011   26.0336 C   0  0  0  0  0  0
    6.4101   54.4432   26.2950 O   0  0  0  0  0  0
    4.3523   53.6968   26.9438 N   0  0  0  0  0  0
    4.5379   53.5659   28.3938 C   0  0  1  0  0  0
    5.3490   52.8520   28.5513 H   0  0  0  0  0  0
    4.9098   54.8967   29.0656 C   0  0  0  0  0  0
    3.2663   53.0368   29.0471 C   0  0  0  0  0  0
    1.9412   53.0874   28.5760 C   0  0  0  0  0  0
    1.1156   52.4976   29.5152 C   0  0  0  0  0  0
    1.8665   52.0967   30.5640 O   0  0  0  0  0  0
    3.1587   52.3910   30.2783 C   0  0  0  0  0  0
    4.1558   51.9921   31.3340 C   0  0  0  0  0  0
   -0.3637   52.2224   29.6027 C   0  0  0  0  0  0
    6.4564   55.7056   19.7268 N   0  0  0  0  0  0
    7.8494   55.8377   19.2536 C   0  0  0  0  0  0
    8.1397   57.1397   18.4710 C   0  0  0  0  0  0
    7.1310   57.2969   17.3166 N   0  3  0  0  0  0
    5.6918   57.2411   17.8601 C   0  0  0  0  0  0
    5.4837   55.9253   18.6355 C   0  0  0  0  0  0
    7.3612   58.6271   16.5637 C   0  0  0  0  0  0
    2.5690   53.3409   21.5668 H   0  0  0  0  0  0
    3.1053   52.5040   23.0217 H   0  0  0  0  0  0
    2.4015   54.1156   23.1426 H   0  0  0  0  0  0
    4.2228   54.3194   20.3112 H   0  0  0  0  0  0
    7.8971   55.7855   22.0093 H   0  0  0  0  0  0
    7.1939   55.0892   24.1708 H   0  0  0  0  0  0
    3.7404   53.7648   24.7687 H   0  0  0  0  0  0
    3.5859   53.1482   26.5863 H   0  0  0  0  0  0
    5.0949   54.7706   30.1274 H   0  0  0  0  0  0
    5.8242   55.3133   28.6469 H   0  0  0  0  0  0
    4.1003   55.6214   28.9641 H   0  0  0  0  0  0
    1.6137   53.5166   27.6407 H   0  0  0  0  0  0
    5.1034   51.6954   30.8853 H   0  0  0  0  0  0
    4.3389   52.8125   32.0249 H   0  0  0  0  0  0
    3.8115   51.1573   31.9426 H   0  0  0  0  0  0
   -0.8962   52.6028   28.7300 H   0  0  0  0  0  0
   -0.8093   52.6785   30.4867 H   0  0  0  0  0  0
   -0.5675   51.1533   29.6608 H   0  0  0  0  0  0
    8.5869   55.7002   20.0444 H   0  0  0  0  0  0
    7.9924   54.9870   18.5837 H   0  0  0  0  0  0
    9.1248   57.0854   18.0017 H   0  0  0  0  0  0
    8.0669   58.0306   19.0961 H   0  0  0  0  0  0
    5.0405   57.2707   16.9828 H   0  0  0  0  0  0
    5.5208   58.1244   18.4808 H   0  0  0  0  0  0
    5.6079   55.0769   17.9596 H   0  0  0  0  0  0
    4.4512   55.8957   18.9813 H   0  0  0  0  0  0
    7.2127   59.4543   17.2614 H   0  0  0  0  0  0
    8.3811   58.6154   16.1752 H   0  0  0  0  0  0
    6.6409   58.6769   15.7456 H   0  0  0  0  0  0
    7.2551   56.5167   16.6839 H   0  0  0  0  0  0
  1  2  1  0  0  0
  1 29  1  0  0  0
  1 30  1  0  0  0
  1 31  1  0  0  0
  2  7  2  0  0  0
  2  3  1  0  0  0
  3  4  2  0  0  0
  3 32  1  0  0  0
  4  5  1  0  0  0
  4 22  1  0  0  0
  5  6  2  0  0  0
  5 33  1  0  0  0
  6  7  1  0  0  0
  6 34  1  0  0  0
  7  8  1  0  0  0
  8  9  1  0  0  0
  8 35  1  0  0  0
  9 10  2  0  0  0
  9 11  1  0  0  0
 11 12  1  0  0  0
 11 36  1  0  0  0
 12 13  1  0  0  0
 12 14  1  0  0  0
 12 15  1  0  0  0
 14 37  1  0  0  0
 14 38  1  0  0  0
 14 39  1  0  0  0
 15 19  2  0  0  0
 15 16  1  0  0  0
 16 17  2  0  0  0
 16 40  1  0  0  0
 17 18  1  0  0  0
 17 21  1  0  0  0
 18 19  1  0  0  0
 19 20  1  0  0  0
 20 41  1  0  0  0
 20 42  1  0  0  0
 20 43  1  0  0  0
 21 44  1  0  0  0
 21 45  1  0  0  0
 21 46  1  0  0  0
 22 27  1  0  0  0
 22 23  1  0  0  0
 23 24  1  0  0  0
 23 47  1  0  0  0
 23 48  1  0  0  0
 24 25  1  0  0  0
 24 49  1  0  0  0
 24 50  1  0  0  0
 25 26  1  0  0  0
 25 28  1  0  0  0
 25 58  1  0  0  0
 26 27  1  0  0  0
 26 51  1  0  0  0
 26 52  1  0  0  0
 27 53  1  0  0  0
 27 54  1  0  0  0
 28 55  1  0  0  0
 28 56  1  0  0  0
 28 57  1  0  0  0
M  CHG  1  25   1
M  END
> <i_i_glide_confnum>
4

> <i_i_glide_lignum>
1365

> <i_i_glide_posenum>
25

> <i_i_glide_rotatable_bonds>
6

> <i_m_Source_File_Index>
5311

> <b_m_subgroup_collapsed>
0

> <r_i_docking_score>
-6.02239

> <r_i_glide_ecoul>
-4.61258

> <r_i_glide_eff_state_penalty>
0

> <r_i_glide_einternal>
4.07007

> <r_i_glide_emodel>
-61.7399

> <r_i_glide_energy>
-45.9469

> <r_i_glide_erotb>
0.839236

> <r_i_glide_esite>
-0.00591322

> <r_i_glide_evdw>
-41.3344

> <r_i_glide_gscore>
-6.02239

> <r_i_glide_hbond>
-0.182152

> <r_i_glide_ligand_efficiency>
-0.223051

> <r_i_glide_ligand_efficiency_ln>
-1.40191

> <r_i_glide_ligand_efficiency_sa>
-0.669154

> <r_i_glide_lipo>
-2.55257

> <r_i_glide_metal>
0

> <r_i_glide_rewards>
-1.36239

> <s_i_glide_gridfile>
wee1_glide-grid

> <s_m_Source_File>
wee1_decoys_glide_SP.sdf

> <s_m_Source_Path>
/Users/zhangxujun/Desktop

> <s_m_entry_id>
5586

> <s_m_entry_name>
wee1_decoys_glide_SP.5311

> <s_m_subgroup_title>
wee1_decoys_glide_SP

> <s_m_subgroupid>
wee1_decoys_glide_SP


$$$$
