@<TRIPOS>MOLECULE
ZINC09237408_4312
48   51    1
SMALL
USER_CHARGES


@<TRIPOS>ATOM
      1 C1          1.3402   53.6293   30.0802 C.3       1 UNK         0.0000 
      2 C2          0.7090   52.8180   28.9623 C.ar      1 UNK         0.0000 
      3 C3          1.2821   52.8107   27.6911 C.ar      1 UNK         0.0000 
      4 C4          0.6950   52.0736   26.6668 C.ar      1 UNK         0.0000 
      5 C5         -0.4912   51.3532   26.8778 C.ar      1 UNK         0.0000 
      6 C6         -1.0374   51.3562   28.1717 C.ar      1 UNK         0.0000 
      7 C7         -0.4481   52.0814   29.2013 C.ar      1 UNK         0.0000 
      8 C8         -1.1275   50.5294   25.7214 C.3       1 UNK         0.0000 
      9 H9         -0.3535   49.8109   25.4528 H         1 UNK         0.0000 
     10 C10        -1.5659   51.3187   24.4382 C.3       1 UNK         0.0000 
     11 H11        -2.0377   50.6368   23.7283 H         1 UNK         0.0000 
     12 S12        -2.8661   52.5871   24.6715 S.3       1 UNK         0.0000 
     13 C13        -3.8214   51.6703   25.8413 C.ar      1 UNK         0.0000 
     14 N14        -4.9637   52.0442   26.3607 N.2       1 UNK         0.0000 
     15 N15        -5.3728   51.0521   27.2478 N.2       1 UNK         0.0000 
     16 C16        -4.4557   50.1177   27.2284 C.ar      1 UNK         0.0000 
     17 N17        -3.4443   50.4455   26.3539 N.pl3     1 UNK         0.0000 
     18 N18        -2.2822   49.6944   26.0822 N.3       1 UNK         0.0000 
     19 C19        -4.4873   48.8620   28.0763 C.3       1 UNK         0.0000 
     20 C20        -0.3944   51.8976   23.6176 C.2       1 UNK         0.0000 
     21 O21        -0.1129   53.0964   23.6829 O.2       1 UNK         0.0000 
     22 N22         0.2770   51.0051   22.8542 N.am      1 UNK         0.0000 
     23 C23         1.4049   51.2247   22.0381 C.ar      1 UNK         0.0000 
     24 C24         2.3261   52.2546   22.2783 C.ar      1 UNK         0.0000 
     25 C25         3.4325   52.4473   21.4442 C.ar      1 UNK         0.0000 
     26 C26         3.6059   51.5982   20.3476 C.ar      1 UNK         0.0000 
     27 C27         2.7076   50.5623   20.1030 C.ar      1 UNK         0.0000 
     28 C28         1.6153   50.3618   20.9475 C.ar      1 UNK         0.0000 
     29 Cl29        0.5456   49.0425   20.6118 Cl        1 UNK         0.0000 
     30 C30         4.4419   53.5578   21.7263 C.3       1 UNK         0.0000 
     31 F31         3.9319   54.4953   22.5220 F         1 UNK         0.0000 
     32 F32         4.8433   54.1410   20.5965 F         1 UNK         0.0000 
     33 F33         5.5040   53.0310   22.3360 F         1 UNK         0.0000 
     34 H34         1.8455   54.5118   29.6848 H         1 UNK         0.0000 
     35 H35         0.5780   53.9869   30.7745 H         1 UNK         0.0000 
     36 H36         2.0592   53.0219   30.6309 H         1 UNK         0.0000 
     37 H37         2.1897   53.3645   27.4974 H         1 UNK         0.0000 
     38 H38         1.1910   52.0635   25.7086 H         1 UNK         0.0000 
     39 H39        -1.9234   50.7901   28.4147 H         1 UNK         0.0000 
     40 H40        -0.8903   52.0633   30.1883 H         1 UNK         0.0000 
     41 H41        -2.0372   49.1865   26.9415 H         1 UNK         0.0000 
     42 H42        -5.4309   48.7450   28.6133 H         1 UNK         0.0000 
     43 H43        -4.3455   47.9619   27.4787 H         1 UNK         0.0000 
     44 H44        -3.6958   48.8732   28.8277 H         1 UNK         0.0000 
     45 H45        -0.0984   50.0693   22.7987 H         1 UNK         0.0000 
     46 H46         2.2070   52.9073   23.1312 H         1 UNK         0.0000 
     47 H47         4.4491   51.7251   19.6817 H         1 UNK         0.0000 
     48 H48         2.8737   49.9122   19.2530 H         1 UNK         0.0000 
@<TRIPOS>BOND
     1    1    2 1    
     2    1   34 1    
     3    1   35 1    
     4    1   36 1    
     5    2    7 ar   
     6    2    3 ar   
     7    3    4 ar   
     8    3   37 1    
     9    4    5 ar   
    10    4   38 1    
    11    5    6 ar   
    12    5    8 1    
    13    6    7 ar   
    14    6   39 1    
    15    7   40 1    
    16    8    9 1    
    17    8   18 1    
    18    8   10 1    
    19   10   11 1    
    20   10   12 1    
    21   10   20 1    
    22   12   13 1    
    23   13   17 ar   
    24   13   14 ar   
    25   14   15 ar   
    26   15   16 ar   
    27   16   17 ar   
    28   16   19 1    
    29   17   18 1    
    30   18   41 1    
    31   19   42 1    
    32   19   43 1    
    33   19   44 1    
    34   20   21 2    
    35   20   22 am   BACKBONE|DICT|INTERRES
    36   22   23 1    
    37   22   45 1    
    38   23   28 ar   
    39   23   24 ar   
    40   24   25 ar   
    41   24   46 1    
    42   25   26 ar   
    43   25   30 1    
    44   26   27 ar   
    45   26   47 1    
    46   27   28 ar   
    47   27   48 1    
    48   28   29 1    
    49   30   31 1    
    50   30   32 1    
    51   30   33 1    
@<TRIPOS>SUBSTRUCTURE
     1 UNK         1 GROUP             0       ****    0 ROOT    
