@<TRIPOS>MOLECULE
ZINC57888136_2527
45   46    1
SMALL
USER_CHARGES


@<TRIPOS>ATOM
      1 C1          5.9786   58.6234   16.8885 C.3       1 UNK         0.0000 
      2 C2          7.4053   58.1558   17.2494 C.3       1 UNK         0.0000 
      3 H3          7.8921   57.8941   16.3081 H         1 UNK         0.0000 
      4 C4          8.2899   59.2656   17.8912 C.3       1 UNK         0.0000 
      5 O5          8.3044   60.4725   17.1517 O.3       1 UNK         0.0000 
      6 N6          7.3760   56.9011   18.0250 N.am      1 UNK         0.0000 
      7 C7          6.9243   56.7531   19.2828 C.2       1 UNK         0.0000 
      8 O8          6.7043   57.6966   20.0426 O.2       1 UNK         0.0000 
      9 N9          6.7332   55.4690   19.6391 N.am      1 UNK         0.0000 
     10 C10         6.3384   55.0864   20.9340 C.ar      1 UNK         0.0000 
     11 C11         7.1044   55.4985   22.0326 C.ar      1 UNK         0.0000 
     12 C12         6.7032   55.2061   23.3303 C.ar      1 UNK         0.0000 
     13 C13         5.5191   54.4961   23.5529 C.ar      1 UNK         0.0000 
     14 C14         4.7924   54.0215   22.4549 C.ar      1 UNK         0.0000 
     15 C15         5.1967   54.2889   21.1378 C.ar      1 UNK         0.0000 
     16 C16         4.4133   53.7022   19.9566 C.3       1 UNK         0.0000 
     17 F17         3.4169   52.9048   20.3473 F         1 UNK         0.0000 
     18 F18         3.9045   54.6754   19.2015 F         1 UNK         0.0000 
     19 F19         5.2469   52.9797   19.2102 F         1 UNK         0.0000 
     20 N20         4.9846   54.2174   24.8209 N.am      1 UNK         0.0000 
     21 C21         5.4637   54.4929   26.0530 C.2       1 UNK         0.0000 
     22 O22         6.5329   55.0559   26.3011 O.2       1 UNK         0.0000 
     23 C23         4.5883   53.9732   27.1664 C.ar      1 UNK         0.0000 
     24 C24         3.1873   54.0399   27.0834 C.ar      1 UNK         0.0000 
     25 C25         2.3952   53.5001   28.0944 C.ar      1 UNK         0.0000 
     26 C26         2.9969   52.8777   29.1837 C.ar      1 UNK         0.0000 
     27 C27         4.3818   52.8096   29.2763 C.ar      1 UNK         0.0000 
     28 C28         5.1787   53.3729   28.2835 C.ar      1 UNK         0.0000 
     29 F29         2.2356   52.3263   30.1551 F         1 UNK         0.0000 
     30 H30         5.9976   59.5125   16.2570 H         1 UNK         0.0000 
     31 H31         5.4274   57.8587   16.3399 H         1 UNK         0.0000 
     32 H32         5.4132   58.8958   17.7791 H         1 UNK         0.0000 
     33 H33         9.3128   58.9076   18.0111 H         1 UNK         0.0000 
     34 H34         7.9409   59.5181   18.8903 H         1 UNK         0.0000 
     35 H35         7.4241   60.9015   17.2811 H         1 UNK         0.0000 
     36 H36         7.6853   56.0748   17.5358 H         1 UNK         0.0000 
     37 H37         6.7378   54.7547   18.9266 H         1 UNK         0.0000 
     38 H38         8.0091   56.0724   21.8878 H         1 UNK         0.0000 
     39 H39         7.3184   55.5758   24.1343 H         1 UNK         0.0000 
     40 H40         3.8967   53.4410   22.6260 H         1 UNK         0.0000 
     41 H41         4.1189   53.7017   24.8082 H         1 UNK         0.0000 
     42 H42         2.6994   54.4982   26.2358 H         1 UNK         0.0000 
     43 H43         1.3183   53.5457   28.0278 H         1 UNK         0.0000 
     44 H44         4.8443   52.2960   30.1023 H         1 UNK         0.0000 
     45 H45         6.2548   53.3010   28.3682 H         1 UNK         0.0000 
@<TRIPOS>BOND
     1    1    2 1    
     2    1   30 1    
     3    1   31 1    
     4    1   32 1    
     5    2    3 1    
     6    2    4 1    
     7    2    6 1    
     8    4    5 1    
     9    4   33 1    
    10    4   34 1    
    11    5   35 1    
    12    6    7 am   BACKBONE|DICT|INTERRES
    13    6   36 1    
    14    7    8 2    
    15    7    9 am   BACKBONE|DICT|INTERRES
    16    9   10 1    
    17    9   37 1    
    18   10   15 ar   
    19   10   11 ar   
    20   11   12 ar   
    21   11   38 1    
    22   12   13 ar   
    23   12   39 1    
    24   13   14 ar   
    25   13   20 1    
    26   14   15 ar   
    27   14   40 1    
    28   15   16 1    
    29   16   17 1    
    30   16   18 1    
    31   16   19 1    
    32   20   21 am   BACKBONE|DICT|INTERRES
    33   20   41 1    
    34   21   22 2    
    35   21   23 1    
    36   23   28 ar   
    37   23   24 ar   
    38   24   25 ar   
    39   24   42 1    
    40   25   26 ar   
    41   25   43 1    
    42   26   27 ar   
    43   26   29 1    
    44   27   28 ar   
    45   27   44 1    
    46   28   45 1    
@<TRIPOS>SUBSTRUCTURE
     1 UNK         1 GROUP             0       ****    0 ROOT    
