@<TRIPOS>MOLECULE
ZINC40717757_1743
37   39    1
SMALL
USER_CHARGES


@<TRIPOS>ATOM
      1 C1          1.6602   52.2079   28.5673 C.3       1 UNK         0.0000 
      2 C2          2.4894   53.2059   29.3971 C.3       1 UNK         0.0000 
      3 H3          1.9335   53.3989   30.3163 H         1 UNK         0.0000 
      4 C4          3.9046   52.7321   29.6895 C.3       1 UNK         0.0000 
      5 C5          4.8004   53.4961   28.6989 C.3       1 UNK         0.0000 
      6 N6          3.9837   54.4087   27.8921 N.pl3     1 UNK         0.0000 
      7 C7          2.7578   54.5316   28.6855 C.3       1 UNK         0.0000 
      8 C8          4.0308   54.3326   26.4836 C.ar      1 UNK         0.0000 
      9 C9          2.8703   54.0368   25.7555 C.ar      1 UNK         0.0000 
     10 C10         2.9009   53.8999   24.3712 C.ar      1 UNK         0.0000 
     11 C11         4.0889   54.0888   23.6627 C.ar      1 UNK         0.0000 
     12 C12         5.2548   54.3809   24.3728 C.ar      1 UNK         0.0000 
     13 C13         5.2411   54.4960   25.7658 C.ar      1 UNK         0.0000 
     14 N14         6.4621   54.7785   26.3921 N.pl3     1 UNK         0.0000 
     15 C15         4.0330   53.9398   22.1480 C.3       1 UNK         0.0000 
     16 C16         2.9986   52.8588   21.7133 C.3       1 UNK         0.0000 
     17 C17         1.6513   52.9377   22.4806 C.2       1 UNK         0.0000 
     18 O18         0.5886   52.4963   22.0529 O.2       1 UNK         0.0000 
     19 N19         1.7467   53.4943   23.7027 N.am      1 UNK         0.0000 
     20 H20         2.1811   51.9106   27.6570 H         1 UNK         0.0000 
     21 H21         0.6978   52.6334   28.2806 H         1 UNK         0.0000 
     22 H22         1.4573   51.2993   29.1357 H         1 UNK         0.0000 
     23 H23         4.1731   53.0180   30.7073 H         1 UNK         0.0000 
     24 H24         4.0083   51.6491   29.6201 H         1 UNK         0.0000 
     25 H25         5.5039   54.0910   29.2818 H         1 UNK         0.0000 
     26 H26         5.3550   52.7801   28.0891 H         1 UNK         0.0000 
     27 H27         1.9097   54.9208   28.1221 H         1 UNK         0.0000 
     28 H28         2.9065   55.3303   29.4146 H         1 UNK         0.0000 
     29 H29         1.9351   53.8649   26.2646 H         1 UNK         0.0000 
     30 H30         6.1795   54.5169   23.8300 H         1 UNK         0.0000 
     31 H31         7.2910   54.4967   25.8918 H         1 UNK         0.0000 
     32 H32         6.4642   54.7847   27.4043 H         1 UNK         0.0000 
     33 H33         3.7484   54.8966   21.7086 H         1 UNK         0.0000 
     34 H34         5.0180   53.7038   21.7427 H         1 UNK         0.0000 
     35 H35         3.4075   51.8661   21.9029 H         1 UNK         0.0000 
     36 H36         2.7897   52.9415   20.6459 H         1 UNK         0.0000 
     37 H37         0.8770   53.4710   24.2114 H         1 UNK         0.0000 
@<TRIPOS>BOND
     1    1    2 1    
     2    1   20 1    
     3    1   21 1    
     4    1   22 1    
     5    2    3 1    
     6    2    7 1    
     7    2    4 1    
     8    4    5 1    
     9    4   23 1    
    10    4   24 1    
    11    5    6 1    
    12    5   25 1    
    13    5   26 1    
    14    6    7 1    
    15    6    8 1    
    16    7   27 1    
    17    7   28 1    
    18    8   13 ar   
    19    8    9 ar   
    20    9   10 ar   
    21    9   29 1    
    22   10   19 1    
    23   10   11 ar   
    24   11   12 ar   
    25   11   15 1    
    26   12   13 ar   
    27   12   30 1    
    28   13   14 1    
    29   14   31 1    
    30   14   32 1    
    31   15   16 1    
    32   15   33 1    
    33   15   34 1    
    34   16   17 1    
    35   16   35 1    
    36   16   36 1    
    37   17   18 2    
    38   17   19 am   BACKBONE|DICT|INTERRES
    39   19   37 1    
@<TRIPOS>SUBSTRUCTURE
     1 UNK         1 GROUP             0       ****    0 ROOT    
