@<TRIPOS>MOLECULE
ZINC66967348_1562
56   58    1
SMALL
USER_CHARGES


@<TRIPOS>ATOM
      1 C1          1.2171   54.0540   23.1693 C.3       1 UNK         0.0000 
      2 C2          2.6103   54.0838   23.7712 C.ar      1 UNK         0.0000 
      3 C3          2.7380   54.0966   25.1561 C.ar      1 UNK         0.0000 
      4 C4          3.9903   54.0611   25.7851 C.ar      1 UNK         0.0000 
      5 C5          5.1352   54.0992   24.9762 C.ar      1 UNK         0.0000 
      6 C6          5.0242   54.0937   23.5848 C.ar      1 UNK         0.0000 
      7 C7          3.7610   54.0694   22.9754 C.ar      1 UNK         0.0000 
      8 N8          3.6165   54.0967   21.5826 N.am      1 UNK         0.0000 
      9 C9          4.3313   53.3913   20.6957 C.2       1 UNK         0.0000 
     10 O10         5.1047   52.4805   20.9876 O.2       1 UNK         0.0000 
     11 N11         4.1282   53.8482   19.4510 N.am      1 UNK         0.0000 
     12 C12         4.9957   53.5913   18.2945 C.3       1 UNK         0.0000 
     13 H13         5.0457   52.5062   18.2042 H         1 UNK         0.0000 
     14 C14         4.3291   54.1191   17.0140 C.3       1 UNK         0.0000 
     15 C15         6.4091   54.1613   18.4515 C.ar      1 UNK         0.0000 
     16 N16         6.7483   55.1755   19.2204 N.2       1 UNK         0.0000 
     17 N17         8.1136   55.3922   19.0616 N.2       1 UNK         0.0000 
     18 C18         8.5326   54.5062   18.1944 C.ar      1 UNK         0.0000 
     19 N19         7.5107   53.6957   17.7638 N.pl3     1 UNK         0.0000 
     20 C20         7.5991   52.5731   16.8429 C.3       1 UNK         0.0000 
     21 C21         4.1248   54.0273   27.2962 C.2       1 UNK         0.0000 
     22 O22         5.1154   54.5643   27.7985 O.2       1 UNK         0.0000 
     23 N23         3.1409   53.4668   28.0644 N.am      1 UNK         0.0000 
     24 C24         2.2339   52.3873   27.5977 C.3       1 UNK         0.0000 
     25 C25         0.7800   52.8047   27.9064 C.3       1 UNK         0.0000 
     26 C26         0.5846   53.1153   29.3901 C.3       1 UNK         0.0000 
     27 C27         1.6358   54.1420   29.8395 C.3       1 UNK         0.0000 
     28 C28         3.1053   53.7530   29.5181 C.3       1 UNK         0.0000 
     29 H29         3.6992   54.6471   29.7257 H         1 UNK         0.0000 
     30 C30         3.6798   52.6189   30.3936 C.3       1 UNK         0.0000 
     31 H31         1.0816   53.1463   22.5782 H         1 UNK         0.0000 
     32 H32         0.4278   54.0978   23.9207 H         1 UNK         0.0000 
     33 H33         1.1046   54.8994   22.4971 H         1 UNK         0.0000 
     34 H34         1.8361   54.1246   25.7379 H         1 UNK         0.0000 
     35 H35         6.1196   54.1048   25.4220 H         1 UNK         0.0000 
     36 H36         5.9239   54.1066   22.9843 H         1 UNK         0.0000 
     37 H37         2.8116   54.5932   21.2242 H         1 UNK         0.0000 
     38 H38         3.2138   54.2185   19.2461 H         1 UNK         0.0000 
     39 H39         4.8934   53.8302   16.1269 H         1 UNK         0.0000 
     40 H40         3.3203   53.7212   16.8962 H         1 UNK         0.0000 
     41 H41         4.2593   55.2090   17.0206 H         1 UNK         0.0000 
     42 H42         9.5446   54.3656   17.8424 H         1 UNK         0.0000 
     43 H43         8.6460   52.3298   16.6544 H         1 UNK         0.0000 
     44 H44         7.1050   51.6983   17.2729 H         1 UNK         0.0000 
     45 H45         7.1294   52.8419   15.8958 H         1 UNK         0.0000 
     46 H46         2.4725   51.4897   28.1704 H         1 UNK         0.0000 
     47 H47         2.3595   52.1042   26.5561 H         1 UNK         0.0000 
     48 H48         0.0980   52.0092   27.6028 H         1 UNK         0.0000 
     49 H49         0.5006   53.6826   27.3262 H         1 UNK         0.0000 
     50 H50         0.6773   52.2020   29.9794 H         1 UNK         0.0000 
     51 H51        -0.4223   53.4961   29.5677 H         1 UNK         0.0000 
     52 H52         1.5063   54.3835   30.8831 H         1 UNK         0.0000 
     53 H53         1.4184   55.0850   29.3305 H         1 UNK         0.0000 
     54 H54         3.7073   52.8964   31.4490 H         1 UNK         0.0000 
     55 H55         4.7006   52.3657   30.0928 H         1 UNK         0.0000 
     56 H56         3.0741   51.7137   30.3352 H         1 UNK         0.0000 
@<TRIPOS>BOND
     1    1    2 1    
     2    1   31 1    
     3    1   32 1    
     4    1   33 1    
     5    2    7 ar   
     6    2    3 ar   
     7    3    4 ar   
     8    3   34 1    
     9    4    5 ar   
    10    4   21 1    
    11    5    6 ar   
    12    5   35 1    
    13    6    7 ar   
    14    6   36 1    
    15    7    8 1    
    16    8    9 am   BACKBONE|DICT|INTERRES
    17    8   37 1    
    18    9   10 2    
    19    9   11 am   BACKBONE|DICT|INTERRES
    20   11   12 1    
    21   11   38 1    
    22   12   13 1    
    23   12   14 1    
    24   12   15 1    
    25   14   39 1    
    26   14   40 1    
    27   14   41 1    
    28   15   19 ar   
    29   15   16 ar   
    30   16   17 ar   
    31   17   18 ar   
    32   18   19 ar   
    33   18   42 1    
    34   19   20 1    
    35   20   43 1    
    36   20   44 1    
    37   20   45 1    
    38   21   22 2    
    39   21   23 am   BACKBONE|DICT|INTERRES
    40   23   28 1    
    41   23   24 1    
    42   24   25 1    
    43   24   46 1    
    44   24   47 1    
    45   25   26 1    
    46   25   48 1    
    47   25   49 1    
    48   26   27 1    
    49   26   50 1    
    50   26   51 1    
    51   27   28 1    
    52   27   52 1    
    53   27   53 1    
    54   28   29 1    
    55   28   30 1    
    56   30   54 1    
    57   30   55 1    
    58   30   56 1    
@<TRIPOS>SUBSTRUCTURE
     1 UNK         1 GROUP             0       ****    0 ROOT    
