@<TRIPOS>MOLECULE
ZINC40796853_4581
42   44    1
SMALL
USER_CHARGES


@<TRIPOS>ATOM
      1 C1          2.1668   48.3464   18.8787 C.3       1 UNK         0.0000 
      2 C2          2.3104   49.6518   19.6769 C.3       1 UNK         0.0000 
      3 C3          1.0255   50.5100   19.7449 C.3       1 UNK         0.0000 
      4 H4          0.1984   49.8607   20.0395 H         1 UNK         0.0000 
      5 C5          0.6641   51.1152   18.3776 C.3       1 UNK         0.0000 
      6 N6          1.1495   51.5757   20.7374 N.pl3     1 UNK         0.0000 
      7 C7          1.0027   51.3648   22.1243 C.ar      1 UNK         0.0000 
      8 C8          1.2476   52.4177   23.0334 C.ar      1 UNK         0.0000 
      9 C9          1.0767   52.1351   24.3999 C.ar      1 UNK         0.0000 
     10 N10         0.7043   50.8988   24.8395 N.ar      1 UNK         0.0000 
     11 C11         0.5008   49.9529   23.8949 C.ar      1 UNK         0.0000 
     12 N12         0.6266   50.1272   22.5582 N.ar      1 UNK         0.0000 
     13 O13         1.3384   53.1319   25.3290 O.3       1 UNK         0.0000 
     14 C14         1.5032   52.8974   26.6815 C.ar      1 UNK         0.0000 
     15 C15         0.4943   52.3227   27.4597 C.ar      1 UNK         0.0000 
     16 C16         0.6754   52.0958   28.8192 C.ar      1 UNK         0.0000 
     17 C17         1.8606   52.4582   29.4536 C.ar      1 UNK         0.0000 
     18 C18         2.8996   53.0804   28.7065 C.ar      1 UNK         0.0000 
     19 C19         2.7157   53.3041   27.3048 C.ar      1 UNK         0.0000 
     20 N20         3.6818   53.8978   26.5418 N.ar      1 UNK         0.0000 
     21 C21         4.8408   54.2736   27.1310 C.ar      1 UNK         0.0000 
     22 C22         5.1026   54.0971   28.4838 C.ar      1 UNK         0.0000 
     23 C23         4.1297   53.4984   29.2814 C.ar      1 UNK         0.0000 
     24 Br24        2.0457   52.0967   31.3187 Br        1 UNK         0.0000 
     25 N25         1.6740   53.6965   22.6333 N.pl3     1 UNK         0.0000 
     26 H26         3.1051   47.7928   18.8754 H         1 UNK         0.0000 
     27 H27         1.9108   48.5358   17.8371 H         1 UNK         0.0000 
     28 H28         1.4015   47.7000   19.3061 H         1 UNK         0.0000 
     29 H29         2.6424   49.3948   20.6838 H         1 UNK         0.0000 
     30 H30         3.1161   50.2458   19.2448 H         1 UNK         0.0000 
     31 H31         0.4658   50.3413   17.6366 H         1 UNK         0.0000 
     32 H32        -0.2333   51.7313   18.4418 H         1 UNK         0.0000 
     33 H33         1.4699   51.7429   17.9933 H         1 UNK         0.0000 
     34 H34         1.4621   52.4785   20.4154 H         1 UNK         0.0000 
     35 H35         0.2215   48.9684   24.2434 H         1 UNK         0.0000 
     36 H36        -0.4378   52.0313   26.9981 H         1 UNK         0.0000 
     37 H37        -0.1148   51.6248   29.3876 H         1 UNK         0.0000 
     38 H38         5.5746   54.7331   26.4854 H         1 UNK         0.0000 
     39 H39         6.0435   54.4211   28.9066 H         1 UNK         0.0000 
     40 H40         4.3059   53.3510   30.3355 H         1 UNK         0.0000 
     41 H41         1.8905   54.3738   23.3517 H         1 UNK         0.0000 
     42 H42         1.7468   53.9442   21.6523 H         1 UNK         0.0000 
@<TRIPOS>BOND
     1    1    2 1    
     2    1   26 1    
     3    1   27 1    
     4    1   28 1    
     5    2    3 1    
     6    2   29 1    
     7    2   30 1    
     8    3    4 1    
     9    3    5 1    
    10    3    6 1    
    11    5   31 1    
    12    5   32 1    
    13    5   33 1    
    14    6    7 1    
    15    6   34 1    
    16    7   12 ar   
    17    7    8 ar   
    18    8    9 ar   
    19    8   25 1    
    20    9   10 ar   
    21    9   13 1    
    22   10   11 ar   
    23   11   12 ar   
    24   11   35 1    
    25   13   14 1    
    26   14   19 ar   
    27   14   15 ar   
    28   15   16 ar   
    29   15   36 1    
    30   16   17 ar   
    31   16   37 1    
    32   17   18 ar   
    33   17   24 1    
    34   18   23 ar   
    35   18   19 ar   
    36   19   20 ar   
    37   20   21 ar   
    38   21   22 ar   
    39   21   38 1    
    40   22   23 ar   
    41   22   39 1    
    42   23   40 1    
    43   25   41 1    
    44   25   42 1    
@<TRIPOS>SUBSTRUCTURE
     1 UNK         1 GROUP             0       ****    0 ROOT    
