@<TRIPOS>MOLECULE
ZINC46621258_3748
50   53    1
SMALL
USER_CHARGES


@<TRIPOS>ATOM
      1 C1          0.2993   51.8257   28.3149 C.ar      1 UNK         0.0000 
      2 C2         -0.0464   53.1471   28.0333 C.ar      1 UNK         0.0000 
      3 C3          0.9163   54.1596   28.0818 C.ar      1 UNK         0.0000 
      4 C4          2.2359   53.8420   28.3584 C.ar      1 UNK         0.0000 
      5 C5          2.5846   52.5142   28.6499 C.ar      1 UNK         0.0000 
      6 C6          1.6202   51.5133   28.6309 C.ar      1 UNK         0.0000 
      7 O7          3.8832   52.1313   28.8828 O.3       1 UNK         0.0000 
      8 C8          4.7045   53.2213   29.2801 C.3       1 UNK         0.0000 
      9 C9          4.5400   54.4550   28.3588 C.3       1 UNK         0.0000 
     10 H10         5.1610   55.2897   28.6892 H         1 UNK         0.0000 
     11 O11         3.1591   54.8762   28.3476 O.3       1 UNK         0.0000 
     12 C12         5.0387   54.1607   26.9197 C.2       1 UNK         0.0000 
     13 O13         6.1652   53.6807   26.7750 O.2       1 UNK         0.0000 
     14 N14         4.2106   54.4731   25.8951 N.am      1 UNK         0.0000 
     15 N15         4.4555   54.0962   24.5609 N.am      1 UNK         0.0000 
     16 C16         5.5101   54.5556   23.8486 C.2       1 UNK         0.0000 
     17 O17         6.3821   55.2977   24.3140 O.2       1 UNK         0.0000 
     18 C18         5.5050   54.2276   22.3677 C.ar      1 UNK         0.0000 
     19 C19         6.2157   55.0471   21.4794 C.ar      1 UNK         0.0000 
     20 C20         6.2023   54.7997   20.1086 C.ar      1 UNK         0.0000 
     21 C21         5.5029   53.6912   19.6040 C.ar      1 UNK         0.0000 
     22 C22         4.7872   52.8765   20.4807 C.ar      1 UNK         0.0000 
     23 C23         4.7748   53.1471   21.8458 C.ar      1 UNK         0.0000 
     24 N24         5.4874   53.2969   18.2506 N.am      1 UNK         0.0000 
     25 C25         5.9637   53.9398   17.1621 C.2       1 UNK         0.0000 
     26 O26         6.5693   55.0130   17.1836 O.2       1 UNK         0.0000 
     27 C27         5.7270   53.2478   15.8414 C.ar      1 UNK         0.0000 
     28 C28         6.6683   53.3737   14.8098 C.ar      1 UNK         0.0000 
     29 C29         6.4618   52.7560   13.5757 C.ar      1 UNK         0.0000 
     30 C30         5.3045   52.0102   13.3535 C.ar      1 UNK         0.0000 
     31 C31         4.3541   51.8830   14.3652 C.ar      1 UNK         0.0000 
     32 C32         4.5620   52.4966   15.6032 C.ar      1 UNK         0.0000 
     33 Cl33        2.9191   50.9673   14.0815 Cl        1 UNK         0.0000 
     34 Cl34        7.6381   52.9151   12.3227 Cl        1 UNK         0.0000 
     35 H35        -0.4455   51.0420   28.2659 H         1 UNK         0.0000 
     36 H36        -1.0499   53.3734   27.7126 H         1 UNK         0.0000 
     37 H37         0.6647   55.1862   27.8648 H         1 UNK         0.0000 
     38 H38         1.9055   50.4967   28.8387 H         1 UNK         0.0000 
     39 H39         5.7439   52.8971   29.2814 H         1 UNK         0.0000 
     40 H40         4.4174   53.5144   30.2920 H         1 UNK         0.0000 
     41 H41         3.2903   54.8646   26.0341 H         1 UNK         0.0000 
     42 H42         3.9678   53.2480   24.3133 H         1 UNK         0.0000 
     43 H43         6.7818   55.8937   21.8450 H         1 UNK         0.0000 
     44 H44         6.7759   55.4568   19.4757 H         1 UNK         0.0000 
     45 H45         4.2404   52.0210   20.1085 H         1 UNK         0.0000 
     46 H46         4.1942   52.4972   22.4815 H         1 UNK         0.0000 
     47 H47         5.1047   52.3691   18.0830 H         1 UNK         0.0000 
     48 H48         7.5726   53.9502   14.9614 H         1 UNK         0.0000 
     49 H49         5.1453   51.5309   12.3982 H         1 UNK         0.0000 
     50 H50         3.8080   52.3770   16.3698 H         1 UNK         0.0000 
@<TRIPOS>BOND
     1    1    6 ar   
     2    1    2 ar   
     3    1   35 1    
     4    2    3 ar   
     5    2   36 1    
     6    3    4 ar   
     7    3   37 1    
     8    4   11 1    
     9    4    5 ar   
    10    5    6 ar   
    11    5    7 1    
    12    6   38 1    
    13    7    8 1    
    14    8    9 1    
    15    8   39 1    
    16    8   40 1    
    17    9   10 1    
    18    9   11 1    
    19    9   12 1    
    20   12   13 2    
    21   12   14 am   BACKBONE|DICT|INTERRES
    22   14   15 1    
    23   14   41 1    
    24   15   16 am   BACKBONE|DICT|INTERRES
    25   15   42 1    
    26   16   17 2    
    27   16   18 1    
    28   18   23 ar   
    29   18   19 ar   
    30   19   20 ar   
    31   19   43 1    
    32   20   21 ar   
    33   20   44 1    
    34   21   22 ar   
    35   21   24 1    
    36   22   23 ar   
    37   22   45 1    
    38   23   46 1    
    39   24   25 am   BACKBONE|DICT|INTERRES
    40   24   47 1    
    41   25   26 2    
    42   25   27 1    
    43   27   32 ar   
    44   27   28 ar   
    45   28   29 ar   
    46   28   48 1    
    47   29   30 ar   
    48   29   34 1    
    49   30   31 ar   
    50   30   49 1    
    51   31   32 ar   
    52   31   33 1    
    53   32   50 1    
@<TRIPOS>SUBSTRUCTURE
     1 UNK         1 GROUP             0       ****    0 ROOT    
