@<TRIPOS>MOLECULE
ZINC20542371_3820
31   33    1
SMALL
USER_CHARGES


@<TRIPOS>ATOM
      1 C1          0.4604   52.1711   29.4705 C.ar      1 UNK         0.0000 
      2 C2         -0.8494   51.6976   29.5505 C.ar      1 UNK         0.0000 
      3 C3         -1.5785   51.4680   28.3833 C.ar      1 UNK         0.0000 
      4 C4         -0.9982   51.6758   27.1359 C.ar      1 UNK         0.0000 
      5 C5          0.3109   52.1375   27.0520 C.ar      1 UNK         0.0000 
      6 C6          1.0394   52.4046   28.2139 C.ar      1 UNK         0.0000 
      7 N7          2.3319   52.9072   28.0043 N.am      1 UNK         0.0000 
      8 C8          3.2408   53.4229   28.8601 C.2       1 UNK         0.0000 
      9 O9          3.1045   53.4580   30.0818 O.2       1 UNK         0.0000 
     10 N10         4.3713   53.9191   28.3034 N.am      1 UNK         0.0000 
     11 C11         4.6816   54.0978   26.9535 C.2       1 UNK         0.0000 
     12 N12         3.8713   53.9977   25.9218 N.2       1 UNK         0.0000 
     13 C13         4.4712   54.2228   24.7664 C.2       1 UNK         0.0000 
     14 C14         5.8246   54.5491   24.8735 C.2       1 UNK         0.0000 
     15 S15         6.3084   54.5255   26.5466 S.3       1 UNK         0.0000 
     16 C16         3.6387   54.0964   23.4939 C.3       1 UNK         0.0000 
     17 C17         2.7039   52.9267   23.2806 C.3       1 UNK         0.0000 
     18 C18         2.1385   54.3111   23.4967 C.3       1 UNK         0.0000 
     19 Br19       -3.3938   50.8966   28.4842 Br        1 UNK         0.0000 
     20 H20         0.9964   52.3457   30.3901 H         1 UNK         0.0000 
     21 H21        -1.2959   51.5086   30.5171 H         1 UNK         0.0000 
     22 H22        -1.5655   51.4835   26.2367 H         1 UNK         0.0000 
     23 H23         0.7455   52.3042   26.0764 H         1 UNK         0.0000 
     24 H24         2.6055   52.9400   27.0332 H         1 UNK         0.0000 
     25 H25         5.0936   54.1923   28.9518 H         1 UNK         0.0000 
     26 H26         6.5301   54.7755   24.0892 H         1 UNK         0.0000 
     27 H27         4.1660   54.4318   22.5994 H         1 UNK         0.0000 
     28 H28         2.6575   52.4808   22.2860 H         1 UNK         0.0000 
     29 H29         2.5922   52.1834   24.0716 H         1 UNK         0.0000 
     30 H30         1.6259   54.5262   24.4341 H         1 UNK         0.0000 
     31 H31         1.6879   54.8311   22.6526 H         1 UNK         0.0000 
@<TRIPOS>BOND
     1    1    6 ar   
     2    1    2 ar   
     3    1   20 1    
     4    2    3 ar   
     5    2   21 1    
     6    3    4 ar   
     7    3   19 1    
     8    4    5 ar   
     9    4   22 1    
    10    5    6 ar   
    11    5   23 1    
    12    6    7 1    
    13    7    8 am   BACKBONE|DICT|INTERRES
    14    7   24 1    
    15    8    9 2    
    16    8   10 am   BACKBONE|DICT|INTERRES
    17   10   11 am   BACKBONE|DICT|INTERRES
    18   10   25 1    
    19   11   15 1    
    20   11   12 2    
    21   12   13 1    
    22   13   14 2    
    23   13   16 1    
    24   14   15 1    
    25   14   26 1    
    26   16   18 1    
    27   16   17 1    
    28   16   27 1    
    29   17   18 1    
    30   17   28 1    
    31   17   29 1    
    32   18   30 1    
    33   18   31 1    
@<TRIPOS>SUBSTRUCTURE
     1 UNK         1 GROUP             0       ****    0 ROOT    
