@<TRIPOS>MOLECULE
ZINC50649459_1651
31   33    1
SMALL
USER_CHARGES


@<TRIPOS>ATOM
      1 C1          0.9127   50.2628   23.3553 C.3       1 UNK         0.0000 
      2 C2          0.7015   50.9941   24.6680 C.ar      1 UNK         0.0000 
      3 C3          1.2597   52.2545   24.8700 C.ar      1 UNK         0.0000 
      4 C4          1.0952   52.8959   26.0952 C.ar      1 UNK         0.0000 
      5 C5          0.3565   52.3129   27.1385 C.ar      1 UNK         0.0000 
      6 C6         -0.2030   51.0525   26.9025 C.ar      1 UNK         0.0000 
      7 C7         -0.0300   50.3900   25.6894 C.ar      1 UNK         0.0000 
      8 N8          0.1353   52.8698   28.3766 N.2       1 UNK         0.0000 
      9 S9          0.9030   54.0924   28.9855 S.o2      1 UNK         0.0000 
     10 O10         1.1047   55.2274   28.0817 O.2       1 UNK         0.0000 
     11 O11         0.4612   54.4044   30.3485 O.2       1 UNK         0.0000 
     12 C12         2.5518   53.4441   29.2396 C.ar      1 UNK         0.0000 
     13 C13         3.0398   52.5944   30.2114 C.ar      1 UNK         0.0000 
     14 N14         4.3038   52.3000   30.0129 N.2       1 UNK         0.0000 
     15 C15         4.6623   53.0102   28.9612 C.ar      1 UNK         0.0000 
     16 N16         3.6232   53.7390   28.4210 N.pl3     1 UNK         0.0000 
     17 C17         3.9625   54.4958   27.3094 C.2       1 UNK         0.0000 
     18 C18         5.2952   54.3639   26.9789 C.2       1 UNK         0.0000 
     19 S19         6.1551   53.3026   28.0813 S.3       1 UNK         0.0000 
     20 N20         2.3720   52.0999   31.2829 N.pl3     1 UNK         0.0000 
     21 H21         1.1402   49.2132   23.5429 H         1 UNK         0.0000 
     22 H22         1.7514   50.6739   22.7929 H         1 UNK         0.0000 
     23 H23         0.0129   50.3066   22.7423 H         1 UNK         0.0000 
     24 H24         1.8300   52.7345   24.0880 H         1 UNK         0.0000 
     25 H25         1.5288   53.8718   26.1993 H         1 UNK         0.0000 
     26 H26        -0.7695   50.5582   27.6804 H         1 UNK         0.0000 
     27 H27        -0.4602   49.4081   25.5531 H         1 UNK         0.0000 
     28 H28         3.2229   55.1136   26.8231 H         1 UNK         0.0000 
     29 H29         5.8258   54.8372   26.1654 H         1 UNK         0.0000 
     30 H30         1.3948   52.3339   31.4187 H         1 UNK         0.0000 
     31 H31         2.8552   51.6985   32.0724 H         1 UNK         0.0000 
@<TRIPOS>BOND
     1    1    2 1    
     2    1   21 1    
     3    1   22 1    
     4    1   23 1    
     5    2    7 ar   
     6    2    3 ar   
     7    3    4 ar   
     8    3   24 1    
     9    4    5 ar   
    10    4   25 1    
    11    5    6 ar   
    12    5    8 1    
    13    6    7 ar   
    14    6   26 1    
    15    7   27 1    
    16    8    9 1    
    17    9   10 2    
    18    9   11 2    
    19    9   12 1    
    20   12   16 ar   
    21   12   13 ar   
    22   13   14 ar   
    23   13   20 1    
    24   14   15 ar   
    25   15   19 1    
    26   15   16 ar   
    27   16   17 1    
    28   17   18 2    
    29   17   28 1    
    30   18   19 1    
    31   18   29 1    
    32   20   30 1    
    33   20   31 1    
@<TRIPOS>SUBSTRUCTURE
     1 UNK         1 GROUP             0       ****    0 ROOT    
