@<TRIPOS>MOLECULE
ZINC39508497_6056
63   66    1
SMALL
USER_CHARGES


@<TRIPOS>ATOM
      1 C1          0.3037   53.9798   30.8833 C.3       1 UNK         0.0000 
      2 C2          1.1157   52.7587   30.4104 C.3       1 UNK         0.0000 
      3 C3          0.2047   51.7722   29.6485 C.3       1 UNK         0.0000 
      4 C4          2.2560   53.1707   29.5617 C.1       1 UNK         0.0000 
      5 C5          3.1445   53.4988   28.7875 C.1       1 UNK         0.0000 
      6 C6          4.0999   53.8693   27.7513 C.ar      1 UNK         0.0000 
      7 C7          5.4735   53.6961   27.9369 C.ar      1 UNK         0.0000 
      8 C8          6.3550   53.9829   26.8935 C.ar      1 UNK         0.0000 
      9 C9          5.8751   54.4570   25.6676 C.ar      1 UNK         0.0000 
     10 C10         4.5027   54.6907   25.5178 C.ar      1 UNK         0.0000 
     11 C11         3.6194   54.3751   26.5451 C.ar      1 UNK         0.0000 
     12 C12         6.8609   54.6568   24.5097 C.3       1 UNK         0.0000 
     13 N13         6.2534   54.8961   23.1013 N.4       1 UNK         0.0000 
     14 C14         7.3361   55.3341   22.0885 C.3       1 UNK         0.0000 
     15 C15         6.6229   55.7642   20.7932 C.3       1 UNK         0.0000 
     16 C16         5.7039   54.6778   20.1928 C.3       1 UNK         0.0000 
     17 C17         4.7971   53.9696   21.2381 C.3       1 UNK         0.0000 
     18 H18         4.0174   54.6845   21.5071 H         1 UNK         0.0000 
     19 C19         5.5400   53.6280   22.5678 C.3       1 UNK         0.0000 
     20 C20         4.0799   52.7354   20.6606 C.2       1 UNK         0.0000 
     21 N21         4.2463   51.5360   21.0448 N.2       1 UNK         0.0000 
     22 N22         3.4483   50.7260   20.4819 N.2       1 UNK         0.0000 
     23 C23         2.7052   51.3215   19.6565 C.2       1 UNK         0.0000 
     24 C24         2.9748   52.7898   19.6194 C.3       1 UNK         0.0000 
     25 H25         2.1143   53.2967   20.0461 H         1 UNK         0.0000 
     26 C26         3.2728   53.3435   18.2173 C.ar      1 UNK         0.0000 
     27 C27         4.4794   53.0990   17.5508 C.ar      1 UNK         0.0000 
     28 C28         4.7098   53.6173   16.2781 C.ar      1 UNK         0.0000 
     29 C29         3.7330   54.3888   15.6518 C.ar      1 UNK         0.0000 
     30 C30         2.5141   54.6401   16.2934 C.ar      1 UNK         0.0000 
     31 C31         2.2937   54.1003   17.5664 C.ar      1 UNK         0.0000 
     32 C32         1.4284   55.4888   15.6329 C.3       1 UNK         0.0000 
     33 F33         1.8851   56.1490   14.5674 F         1 UNK         0.0000 
     34 F34         0.4310   54.6968   15.2391 F         1 UNK         0.0000 
     35 F35         0.9452   56.3816   16.5010 F         1 UNK         0.0000 
     36 O36         1.5510   52.1022   31.5811 O.3       1 UNK         0.0000 
     37 H37        -0.1625   54.4953   30.0438 H         1 UNK         0.0000 
     38 H38         0.9176   54.7114   31.4081 H         1 UNK         0.0000 
     39 H39        -0.4953   53.6848   31.5658 H         1 UNK         0.0000 
     40 H40        -0.2512   52.2428   28.7764 H         1 UNK         0.0000 
     41 H41         0.7475   50.8979   29.2813 H         1 UNK         0.0000 
     42 H42        -0.6147   51.4078   30.2716 H         1 UNK         0.0000 
     43 H43         5.8579   53.3086   28.8697 H         1 UNK         0.0000 
     44 H44         7.4094   53.8012   27.0383 H         1 UNK         0.0000 
     45 H45         4.0914   55.0730   24.5967 H         1 UNK         0.0000 
     46 H46         2.5577   54.4971   26.3880 H         1 UNK         0.0000 
     47 H47         7.4962   55.5229   24.7075 H         1 UNK         0.0000 
     48 H48         7.5055   53.7832   24.3983 H         1 UNK         0.0000 
     49 H49         7.8748   56.1771   22.5199 H         1 UNK         0.0000 
     50 H50         8.0325   54.5062   21.9576 H         1 UNK         0.0000 
     51 H51         6.0247   56.6551   20.9914 H         1 UNK         0.0000 
     52 H52         7.3635   56.0646   20.0495 H         1 UNK         0.0000 
     53 H53         5.1184   55.0578   19.3553 H         1 UNK         0.0000 
     54 H54         6.3471   53.9376   19.7106 H         1 UNK         0.0000 
     55 H55         6.3009   52.8482   22.4809 H         1 UNK         0.0000 
     56 H56         4.8186   53.3051   23.3190 H         1 UNK         0.0000 
     57 H57         1.9601   50.8065   19.0570 H         1 UNK         0.0000 
     58 H58         5.2427   52.4967   18.0188 H         1 UNK         0.0000 
     59 H59         5.6452   53.4133   15.7773 H         1 UNK         0.0000 
     60 H60         3.9281   54.7827   14.6642 H         1 UNK         0.0000 
     61 H61         1.3497   54.2813   18.0620 H         1 UNK         0.0000 
     62 H62         0.7899   52.0066   32.1659 H         1 UNK         0.0000 
     63 H63         5.5809   55.6419   23.2083 H         1 UNK         0.0000 
@<TRIPOS>BOND
     1    1    2 1    
     2    1   37 1    
     3    1   38 1    
     4    1   39 1    
     5    2    3 1    
     6    2    4 1    
     7    2   36 1    
     8    3   40 1    
     9    3   41 1    
    10    3   42 1    
    11    4    5 3    
    12    5    6 1    
    13    6   11 ar   
    14    6    7 ar   
    15    7    8 ar   
    16    7   43 1    
    17    8    9 ar   
    18    8   44 1    
    19    9   10 ar   
    20    9   12 1    
    21   10   11 ar   
    22   10   45 1    
    23   11   46 1    
    24   12   13 1    
    25   12   47 1    
    26   12   48 1    
    27   13   19 1    
    28   13   14 1    
    29   13   63 1    
    30   14   15 1    
    31   14   49 1    
    32   14   50 1    
    33   15   16 1    
    34   15   51 1    
    35   15   52 1    
    36   16   17 1    
    37   16   53 1    
    38   16   54 1    
    39   17   18 1    
    40   17   19 1    
    41   17   20 1    
    42   19   55 1    
    43   19   56 1    
    44   20   24 1    
    45   20   21 2    
    46   21   22 1    
    47   22   23 2    
    48   23   24 1    
    49   23   57 1    
    50   24   25 1    
    51   24   26 1    
    52   26   31 ar   
    53   26   27 ar   
    54   27   28 ar   
    55   27   58 1    
    56   28   29 ar   
    57   28   59 1    
    58   29   30 ar   
    59   29   60 1    
    60   30   31 ar   
    61   30   32 1    
    62   31   61 1    
    63   32   33 1    
    64   32   34 1    
    65   32   35 1    
    66   36   62 1    
@<TRIPOS>SUBSTRUCTURE
     1 UNK         1 GROUP             0       ****    0 ROOT    
