@<TRIPOS>MOLECULE
ZINC39998036_992
55   59    1
SMALL
USER_CHARGES


@<TRIPOS>ATOM
      1 C1          4.8258   53.1716   15.8353 C.3       1 UNK         0.0000 
      2 C2          6.1265   53.8022   16.3524 C.3       1 UNK         0.0000 
      3 C3          6.0835   55.3415   16.3614 C.3       1 UNK         0.0000 
      4 S4          7.5802   56.1581   17.0088 S.3       1 UNK         0.0000 
      5 C5          7.4738   55.8376   18.7428 C.2       1 UNK         0.0000 
      6 N6          8.4759   56.0133   19.5644 N.2       1 UNK         0.0000 
      7 N7          8.1702   55.7072   20.8843 N.2       1 UNK         0.0000 
      8 C8          6.9416   55.2967   21.0726 C.2       1 UNK         0.0000 
      9 S9          6.0314   55.3110   19.5635 S.3       1 UNK         0.0000 
     10 N10         6.4633   54.8971   22.2820 N.2       1 UNK         0.0000 
     11 C11         5.3989   54.1257   22.4088 C.2       1 UNK         0.0000 
     12 O12         4.9613   53.3981   21.5110 O.2       1 UNK         0.0000 
     13 C13         4.7415   54.0640   23.7093 C.2       1 UNK         0.0000 
     14 C14         3.4709   53.5919   23.7924 C.2       1 UNK         0.0000 
     15 C15         2.6315   53.3682   24.9599 C.ar      1 UNK         0.0000 
     16 C16         2.7323   53.9483   26.2128 C.ar      1 UNK         0.0000 
     17 N17         1.7050   53.4668   26.9805 N.pl3     1 UNK         0.0000 
     18 N18         0.9824   52.5678   26.2967 N.2       1 UNK         0.0000 
     19 C19         1.5196   52.4969   25.0973 C.ar      1 UNK         0.0000 
     20 C20         0.9875   51.5429   24.1186 C.2       1 UNK         0.0000 
     21 C21        -0.1742   50.7754   24.0800 C.2       1 UNK         0.0000 
     22 C22        -0.1135   49.9968   22.8840 C.ar      1 UNK         0.0000 
     23 C23        -0.9277   49.0477   22.2457 C.ar      1 UNK         0.0000 
     24 C24        -0.4957   48.5046   21.0291 C.ar      1 UNK         0.0000 
     25 C25         0.7205   48.8865   20.4512 C.ar      1 UNK         0.0000 
     26 C26         1.5553   49.8192   21.0670 C.ar      1 UNK         0.0000 
     27 C27         1.1117   50.3565   22.2798 C.ar      1 UNK         0.0000 
     28 O28         1.7739   51.2772   23.0336 O.3       1 UNK         0.0000 
     29 C29         1.3712   53.8294   28.3074 C.ar      1 UNK         0.0000 
     30 C30         0.6535   52.9489   29.1327 C.ar      1 UNK         0.0000 
     31 C31         0.3086   53.3338   30.4240 C.ar      1 UNK         0.0000 
     32 C32         0.6773   54.5948   30.8827 C.ar      1 UNK         0.0000 
     33 C33         1.3948   55.4756   30.0803 C.ar      1 UNK         0.0000 
     34 C34         1.7435   55.0929   28.7909 C.ar      1 UNK         0.0000 
     35 C35         5.4864   54.4967   24.8561 C.1       1 UNK         0.0000 
     36 N36         6.0716   54.8757   25.7831 N.1       1 UNK         0.0000 
     37 H37         4.8945   52.0856   15.8415 H         1 UNK         0.0000 
     38 H38         4.6061   53.4808   14.8127 H         1 UNK         0.0000 
     39 H39         3.9760   53.4483   16.4619 H         1 UNK         0.0000 
     40 H40         6.3309   53.4218   17.3535 H         1 UNK         0.0000 
     41 H41         6.9594   53.4652   15.7333 H         1 UNK         0.0000 
     42 H42         5.9432   55.7000   15.3411 H         1 UNK         0.0000 
     43 H43         5.2096   55.6978   16.9098 H         1 UNK         0.0000 
     44 H44         2.9692   53.3006   22.8801 H         1 UNK         0.0000 
     45 H45         3.4293   54.6691   26.6129 H         1 UNK         0.0000 
     46 H46        -0.9493   50.7793   24.8327 H         1 UNK         0.0000 
     47 H47        -1.8708   48.7474   22.6822 H         1 UNK         0.0000 
     48 H48        -1.1134   47.7763   20.5248 H         1 UNK         0.0000 
     49 H49         1.0251   48.4448   19.5121 H         1 UNK         0.0000 
     50 H50         2.4993   50.1125   20.6273 H         1 UNK         0.0000 
     51 H51         0.3569   51.9708   28.7800 H         1 UNK         0.0000 
     52 H52        -0.2465   52.6621   31.0662 H         1 UNK         0.0000 
     53 H53         0.4016   54.8916   31.8850 H         1 UNK         0.0000 
     54 H54         1.6697   56.4515   30.4534 H         1 UNK         0.0000 
     55 H55         2.2831   55.7976   28.1741 H         1 UNK         0.0000 
@<TRIPOS>BOND
     1    1    2 1    
     2    1   37 1    
     3    1   38 1    
     4    1   39 1    
     5    2    3 1    
     6    2   40 1    
     7    2   41 1    
     8    3    4 1    
     9    3   42 1    
    10    3   43 1    
    11    4    5 1    
    12    5    9 1    
    13    5    6 2    
    14    6    7 1    
    15    7    8 2    
    16    8    9 1    
    17    8   10 1    
    18   10   11 1    
    19   11   12 2    
    20   11   13 1    
    21   13   14 2    
    22   13   35 1    
    23   14   15 1    
    24   14   44 1    
    25   15   19 ar   
    26   15   16 ar   
    27   16   17 ar   
    28   16   45 1    
    29   17   18 ar   
    30   17   29 1    
    31   18   19 ar   
    32   19   20 1    
    33   20   28 1    
    34   20   21 2    
    35   21   22 1    
    36   21   46 1    
    37   22   27 ar   
    38   22   23 ar   
    39   23   24 ar   
    40   23   47 1    
    41   24   25 ar   
    42   24   48 1    
    43   25   26 ar   
    44   25   49 1    
    45   26   27 ar   
    46   26   50 1    
    47   27   28 1    
    48   29   34 ar   
    49   29   30 ar   
    50   30   31 ar   
    51   30   51 1    
    52   31   32 ar   
    53   31   52 1    
    54   32   33 ar   
    55   32   53 1    
    56   33   34 ar   
    57   33   54 1    
    58   34   55 1    
    59   35   36 3    
@<TRIPOS>SUBSTRUCTURE
     1 UNK         1 GROUP             0       ****    0 ROOT    
