@<TRIPOS>MOLECULE
ZINC08695872_3148
73   76    1
SMALL
USER_CHARGES


@<TRIPOS>ATOM
      1 C1         -2.1498   51.0086   26.4663 C.3       1 UNK         0.0000 
      2 C2         -1.1105   50.8814   25.2998 C.3       1 UNK         0.0000 
      3 C3         -0.9536   49.3364   25.1220 C.3       1 UNK         0.0000 
      4 C4          0.2324   51.4923   25.8412 C.2       1 UNK         0.0000 
      5 O5          0.7052   51.0176   26.8758 O.2       1 UNK         0.0000 
      6 N6          0.8249   52.5076   25.1636 N.am      1 UNK         0.0000 
      7 C7          2.0195   53.1894   25.4662 C.ar      1 UNK         0.0000 
      8 C8          2.6946   53.7756   24.3984 C.ar      1 UNK         0.0000 
      9 C9          3.9302   54.3882   24.5998 C.ar      1 UNK         0.0000 
     10 C10         4.5142   54.4436   25.8758 C.ar      1 UNK         0.0000 
     11 C11         3.7886   53.9101   26.9525 C.ar      1 UNK         0.0000 
     12 C12         2.5532   53.2968   26.7565 C.ar      1 UNK         0.0000 
     13 N13         5.8014   55.0185   26.0728 N.pl3     1 UNK         0.0000 
     14 C14         6.5352   55.6021   24.9510 C.3       1 UNK         0.0000 
     15 C15         6.5092   54.8371   27.3391 C.3       1 UNK         0.0000 
     16 N16        -1.5494   51.6225   24.0363 N.am      1 UNK         0.0000 
     17 C17        -2.3830   52.8373   24.2665 C.3       1 UNK         0.0000 
     18 C18        -3.8736   52.6552   24.5690 C.ar      1 UNK         0.0000 
     19 C19        -4.4956   53.5987   25.3979 C.ar      1 UNK         0.0000 
     20 C20        -5.8405   53.4707   25.7398 C.ar      1 UNK         0.0000 
     21 C21        -6.5817   52.3931   25.2570 C.ar      1 UNK         0.0000 
     22 C22        -5.9756   51.4490   24.4303 C.ar      1 UNK         0.0000 
     23 C23        -4.6307   51.5761   24.0816 C.ar      1 UNK         0.0000 
     24 F24        -4.0813   50.6434   23.2700 F         1 UNK         0.0000 
     25 C25        -1.1705   51.3904   22.7290 C.2       1 UNK         0.0000 
     26 O26        -1.5975   52.0971   21.8090 O.2       1 UNK         0.0000 
     27 C27        -0.1740   50.2572   22.3635 C.3       1 UNK         0.0000 
     28 N28         0.3177   50.3151   20.9626 N.pl3     1 UNK         0.0000 
     29 C29        -0.5936   50.0552   19.8502 C.3       1 UNK         0.0000 
     30 C30         0.3372   49.8231   18.6807 C.3       1 UNK         0.0000 
     31 H31         0.0038   50.4328   17.8391 H         1 UNK         0.0000 
     32 N32         1.5566   50.3978   19.1925 N.pl3     1 UNK         0.0000 
     33 C33         1.5595   50.7024   20.5169 C.2       1 UNK         0.0000 
     34 S34         2.8431   51.3622   21.3371 S.2       1 UNK         0.0000 
     35 C35         0.5060   48.3877   18.1810 C.ar      1 UNK         0.0000 
     36 C36         0.6003   47.3156   19.0758 C.ar      1 UNK         0.0000 
     37 C37         0.7046   46.0128   18.5950 C.ar      1 UNK         0.0000 
     38 C38         0.7208   45.7829   17.2210 C.ar      1 UNK         0.0000 
     39 C39         0.6299   46.8431   16.3219 C.ar      1 UNK         0.0000 
     40 C40         0.5164   48.1447   16.8025 C.ar      1 UNK         0.0000 
     41 H41        -1.8204   50.4965   27.3714 H         1 UNK         0.0000 
     42 H42        -2.3348   52.0335   26.7846 H         1 UNK         0.0000 
     43 H43        -3.1056   50.5560   26.2049 H         1 UNK         0.0000 
     44 H44        -0.9351   48.8138   26.0811 H         1 UNK         0.0000 
     45 H45        -1.7870   48.9128   24.5581 H         1 UNK         0.0000 
     46 H46        -0.0183   49.0331   24.6510 H         1 UNK         0.0000 
     47 H47         0.4108   52.7453   24.2758 H         1 UNK         0.0000 
     48 H48         2.2928   53.7243   23.3965 H         1 UNK         0.0000 
     49 H49         4.4322   54.7925   23.7362 H         1 UNK         0.0000 
     50 H50         4.1777   53.9416   27.9568 H         1 UNK         0.0000 
     51 H51         2.0413   52.8923   27.6154 H         1 UNK         0.0000 
     52 H52         5.9339   56.3789   24.4817 H         1 UNK         0.0000 
     53 H53         6.7606   54.8473   24.1977 H         1 UNK         0.0000 
     54 H54         7.4774   56.0577   25.2538 H         1 UNK         0.0000 
     55 H55         6.6298   53.7757   27.5561 H         1 UNK         0.0000 
     56 H56         7.5010   55.2900   27.3270 H         1 UNK         0.0000 
     57 H57         5.9480   55.2872   28.1598 H         1 UNK         0.0000 
     58 H58        -1.9320   53.3310   25.1252 H         1 UNK         0.0000 
     59 H59        -2.3057   53.5686   23.4610 H         1 UNK         0.0000 
     60 H60        -3.9344   54.4328   25.7947 H         1 UNK         0.0000 
     61 H61        -6.3104   54.1977   26.3856 H         1 UNK         0.0000 
     62 H62        -7.6239   52.2864   25.5234 H         1 UNK         0.0000 
     63 H63        -6.5473   50.6157   24.0495 H         1 UNK         0.0000 
     64 H64         0.6716   50.2766   23.0515 H         1 UNK         0.0000 
     65 H65        -0.6837   49.3014   22.4719 H         1 UNK         0.0000 
     66 H66        -1.2447   49.2028   20.0431 H         1 UNK         0.0000 
     67 H67        -1.2234   50.9258   19.6658 H         1 UNK         0.0000 
     68 H68         2.3865   50.5489   18.6320 H         1 UNK         0.0000 
     69 H69         0.5932   47.4942   20.1419 H         1 UNK         0.0000 
     70 H70         0.7783   45.1823   19.2815 H         1 UNK         0.0000 
     71 H71         0.8112   44.7737   16.8489 H         1 UNK         0.0000 
     72 H72         0.6504   46.6574   15.2577 H         1 UNK         0.0000 
     73 H73         0.4453   48.9622   16.0997 H         1 UNK         0.0000 
@<TRIPOS>BOND
     1    1    2 1    
     2    1   41 1    
     3    1   42 1    
     4    1   43 1    
     5    2    3 1    
     6    2    4 1    
     7    2   16 1    
     8    3   44 1    
     9    3   45 1    
    10    3   46 1    
    11    4    5 2    
    12    4    6 am   BACKBONE|DICT|INTERRES
    13    6    7 1    
    14    6   47 1    
    15    7   12 ar   
    16    7    8 ar   
    17    8    9 ar   
    18    8   48 1    
    19    9   10 ar   
    20    9   49 1    
    21   10   11 ar   
    22   10   13 1    
    23   11   12 ar   
    24   11   50 1    
    25   12   51 1    
    26   13   14 1    
    27   13   15 1    
    28   14   52 1    
    29   14   53 1    
    30   14   54 1    
    31   15   55 1    
    32   15   56 1    
    33   15   57 1    
    34   16   17 1    
    35   16   25 am   BACKBONE|DICT|INTERRES
    36   17   18 1    
    37   17   58 1    
    38   17   59 1    
    39   18   23 ar   
    40   18   19 ar   
    41   19   20 ar   
    42   19   60 1    
    43   20   21 ar   
    44   20   61 1    
    45   21   22 ar   
    46   21   62 1    
    47   22   23 ar   
    48   22   63 1    
    49   23   24 1    
    50   25   26 2    
    51   25   27 1    
    52   27   28 1    
    53   27   64 1    
    54   27   65 1    
    55   28   33 1    
    56   28   29 1    
    57   29   30 1    
    58   29   66 1    
    59   29   67 1    
    60   30   31 1    
    61   30   32 1    
    62   30   35 1    
    63   32   33 1    
    64   32   68 1    
    65   33   34 2    
    66   35   40 ar   
    67   35   36 ar   
    68   36   37 ar   
    69   36   69 1    
    70   37   38 ar   
    71   37   70 1    
    72   38   39 ar   
    73   38   71 1    
    74   39   40 ar   
    75   39   72 1    
    76   40   73 1    
@<TRIPOS>SUBSTRUCTURE
     1 UNK         1 GROUP             0       ****    0 ROOT    
