@<TRIPOS>MOLECULE
ZINC34969899_2976
66   68    1
SMALL
USER_CHARGES


@<TRIPOS>ATOM
      1 C1          2.1812   47.9675   19.1317 C.3       1 UNK         0.0000 
      2 C2          1.3163   48.9902   18.3835 C.3       1 UNK         0.0000 
      3 C3          1.7395   50.4626   18.6080 C.3       1 UNK         0.0000 
      4 H4          2.8085   50.4830   18.3831 H         1 UNK         0.0000 
      5 C5          1.0998   51.3796   17.5367 C.3       1 UNK         0.0000 
      6 C6          1.6075   50.9871   20.0877 C.3       1 UNK         0.0000 
      7 H7          2.1238   50.2576   20.7113 H         1 UNK         0.0000 
      8 C8          0.1370   51.0436   20.6324 C.2       1 UNK         0.0000 
      9 O9         -0.7902   50.7566   19.8688 O.2       1 UNK         0.0000 
     10 N10        -0.1017   51.4205   21.9252 N.am      1 UNK         0.0000 
     11 C11        -1.5003   51.6623   22.3595 C.3       1 UNK         0.0000 
     12 C12        -1.7110   51.1982   23.8225 C.3       1 UNK         0.0000 
     13 N13        -0.6897   51.7480   24.7138 N.3       1 UNK         0.0000 
     14 C14         0.6442   51.3165   24.2883 C.3       1 UNK         0.0000 
     15 C15         0.9861   51.7793   22.8594 C.3       1 UNK         0.0000 
     16 C16        -0.9288   51.3944   26.1144 C.3       1 UNK         0.0000 
     17 C17        -0.1053   52.2556   27.0524 C.2       1 UNK         0.0000 
     18 C18         0.9356   51.8088   27.7721 C.2       1 UNK         0.0000 
     19 C19         1.8843   52.6324   28.5480 C.ar      1 UNK         0.0000 
     20 C20         2.8852   51.9731   29.2611 C.ar      1 UNK         0.0000 
     21 C21         3.8980   52.6862   29.8870 C.ar      1 UNK         0.0000 
     22 C22         3.9029   54.0755   29.8053 C.ar      1 UNK         0.0000 
     23 C23         2.8823   54.7555   29.1460 C.ar      1 UNK         0.0000 
     24 C24         1.8720   54.0331   28.5164 C.ar      1 UNK         0.0000 
     25 N25         2.2760   52.2898   20.2047 N.am      1 UNK         0.0000 
     26 C26         3.5124   52.4981   20.6756 C.2       1 UNK         0.0000 
     27 O27         4.1777   51.6564   21.2810 O.2       1 UNK         0.0000 
     28 N28         3.9045   53.7542   20.4097 N.am      1 UNK         0.0000 
     29 C29         5.0710   54.3885   20.8553 C.ar      1 UNK         0.0000 
     30 C30         5.5520   54.2155   22.1616 C.ar      1 UNK         0.0000 
     31 C31         6.7042   54.8823   22.5741 C.ar      1 UNK         0.0000 
     32 C32         7.3981   55.6962   21.6814 C.ar      1 UNK         0.0000 
     33 C33         6.9225   55.8767   20.3844 C.ar      1 UNK         0.0000 
     34 C34         5.7553   55.2357   19.9698 C.ar      1 UNK         0.0000 
     35 Br35        5.1233   55.5471   18.1963 Br        1 UNK         0.0000 
     36 H36         1.9030   46.9528   18.8470 H         1 UNK         0.0000 
     37 H37         3.2362   48.0972   18.8822 H         1 UNK         0.0000 
     38 H38         2.0710   48.0517   20.2130 H         1 UNK         0.0000 
     39 H39         0.2656   48.8363   18.6278 H         1 UNK         0.0000 
     40 H40         1.4027   48.7636   17.3193 H         1 UNK         0.0000 
     41 H41         0.0108   51.3560   17.5620 H         1 UNK         0.0000 
     42 H42         1.4158   52.4167   17.6531 H         1 UNK         0.0000 
     43 H43         1.4035   51.0679   16.5359 H         1 UNK         0.0000 
     44 H44        -2.2316   51.1361   21.7437 H         1 UNK         0.0000 
     45 H45        -1.7005   52.7333   22.3239 H         1 UNK         0.0000 
     46 H46        -1.6500   50.1088   23.8669 H         1 UNK         0.0000 
     47 H47        -2.7032   51.5086   24.1517 H         1 UNK         0.0000 
     48 H48         1.4107   51.7050   24.9602 H         1 UNK         0.0000 
     49 H49         0.6727   50.2241   24.3246 H         1 UNK         0.0000 
     50 H50         1.1096   52.8636   22.8789 H         1 UNK         0.0000 
     51 H51         1.9313   51.2979   22.6247 H         1 UNK         0.0000 
     52 H52        -0.7887   50.3303   26.3091 H         1 UNK         0.0000 
     53 H53        -1.9697   51.6275   26.3431 H         1 UNK         0.0000 
     54 H54        -0.3650   53.2963   27.0639 H         1 UNK         0.0000 
     55 H55         1.1429   50.7483   27.7400 H         1 UNK         0.0000 
     56 H56         2.9146   50.8965   29.2810 H         1 UNK         0.0000 
     57 H57         4.6855   52.1586   30.4047 H         1 UNK         0.0000 
     58 H58         4.7047   54.6280   30.2690 H         1 UNK         0.0000 
     59 H59         2.8873   55.8353   29.1001 H         1 UNK         0.0000 
     60 H60         1.1161   54.5752   27.9722 H         1 UNK         0.0000 
     61 H61         1.7379   53.0864   19.8964 H         1 UNK         0.0000 
     62 H62         3.3354   54.2913   19.7699 H         1 UNK         0.0000 
     63 H63         5.0337   53.5744   22.8596 H         1 UNK         0.0000 
     64 H64         7.0762   54.7468   23.5793 H         1 UNK         0.0000 
     65 H65         8.3073   56.1829   22.0023 H         1 UNK         0.0000 
     66 H66         7.4614   56.5059   19.6915 H         1 UNK         0.0000 
@<TRIPOS>BOND
     1    1    2 1    
     2    1   36 1    
     3    1   37 1    
     4    1   38 1    
     5    2    3 1    
     6    2   39 1    
     7    2   40 1    
     8    3    4 1    
     9    3    5 1    
    10    3    6 1    
    11    5   41 1    
    12    5   42 1    
    13    5   43 1    
    14    6    7 1    
    15    6    8 1    
    16    6   25 1    
    17    8    9 2    
    18    8   10 am   BACKBONE|DICT|INTERRES
    19   10   15 1    
    20   10   11 1    
    21   11   12 1    
    22   11   44 1    
    23   11   45 1    
    24   12   13 1    
    25   12   46 1    
    26   12   47 1    
    27   13   14 1    
    28   13   16 1    
    29   14   15 1    
    30   14   48 1    
    31   14   49 1    
    32   15   50 1    
    33   15   51 1    
    34   16   17 1    
    35   16   52 1    
    36   16   53 1    
    37   17   18 2    
    38   17   54 1    
    39   18   19 1    
    40   18   55 1    
    41   19   24 ar   
    42   19   20 ar   
    43   20   21 ar   
    44   20   56 1    
    45   21   22 ar   
    46   21   57 1    
    47   22   23 ar   
    48   22   58 1    
    49   23   24 ar   
    50   23   59 1    
    51   24   60 1    
    52   25   26 am   BACKBONE|DICT|INTERRES
    53   25   61 1    
    54   26   27 2    
    55   26   28 am   BACKBONE|DICT|INTERRES
    56   28   29 1    
    57   28   62 1    
    58   29   34 ar   
    59   29   30 ar   
    60   30   31 ar   
    61   30   63 1    
    62   31   32 ar   
    63   31   64 1    
    64   32   33 ar   
    65   32   65 1    
    66   33   34 ar   
    67   33   66 1    
    68   34   35 1    
@<TRIPOS>SUBSTRUCTURE
     1 UNK         1 GROUP             0       ****    0 ROOT    
