@<TRIPOS>MOLECULE
ZINC11996065_5329
58   61    1
SMALL
USER_CHARGES


@<TRIPOS>ATOM
      1 C1          5.7776   54.6471   28.6216 C.3       1 UNK         0.0000 
      2 C2          4.6714   53.9983   27.7686 C.3       1 UNK         0.0000 
      3 H3          4.8612   52.9231   27.8116 H         1 UNK         0.0000 
      4 C4          3.2727   54.2465   28.3506 C.ar      1 UNK         0.0000 
      5 N5          2.9221   55.2335   29.1410 N.2       1 UNK         0.0000 
      6 N6          1.5738   55.0688   29.4370 N.2       1 UNK         0.0000 
      7 C7          1.1509   54.0026   28.8008 C.ar      1 UNK         0.0000 
      8 N8          2.1800   53.4561   28.0578 N.pl3     1 UNK         0.0000 
      9 C9          2.1517   52.2943   27.1831 C.3       1 UNK         0.0000 
     10 C10         0.8141   51.9969   26.4982 C.3       1 UNK         0.0000 
     11 C11        -0.3686   51.9033   28.8361 C.3       1 UNK         0.0000 
     12 C12        -0.2654   53.4448   28.8622 C.3       1 UNK         0.0000 
     13 C13        -1.5682   51.0715   26.6930 C.3       1 UNK         0.0000 
     14 C14        -1.4153   50.4339   25.3156 C.ar      1 UNK         0.0000 
     15 C15        -1.6008   51.2043   24.1640 C.ar      1 UNK         0.0000 
     16 C16        -1.3606   50.6472   22.9108 C.ar      1 UNK         0.0000 
     17 C17        -0.9277   49.3235   22.8073 C.ar      1 UNK         0.0000 
     18 C18        -0.7860   48.5425   23.9529 C.ar      1 UNK         0.0000 
     19 C19        -1.0336   49.0934   25.2066 C.ar      1 UNK         0.0000 
     20 O20        -0.6663   48.7637   21.5807 O.3       1 UNK         0.0000 
     21 C21         0.5601   49.1588   20.9644 C.3       1 UNK         0.0000 
     22 F22         0.6950   48.4405   19.8518 F         1 UNK         0.0000 
     23 F23         0.5464   50.4477   20.6227 F         1 UNK         0.0000 
     24 F24         1.6131   48.8999   21.7419 F         1 UNK         0.0000 
     25 N25         4.6898   54.3906   26.3500 N.am      1 UNK         0.0000 
     26 C26         5.7535   54.4712   25.5266 C.2       1 UNK         0.0000 
     27 O27         6.9152   54.4976   25.9358 O.2       1 UNK         0.0000 
     28 C28         5.4724   54.4917   24.0359 C.ar      1 UNK         0.0000 
     29 C29         6.4981   54.8895   23.1600 C.ar      1 UNK         0.0000 
     30 C30         6.3049   54.9032   21.7804 C.ar      1 UNK         0.0000 
     31 C31         5.0879   54.4962   21.2435 C.ar      1 UNK         0.0000 
     32 C32         4.0561   54.0969   22.0892 C.ar      1 UNK         0.0000 
     33 C33         4.2359   54.0968   23.4738 C.ar      1 UNK         0.0000 
     34 F34         3.1889   53.7078   24.2397 F         1 UNK         0.0000 
     35 F35         7.3025   55.3099   20.9642 F         1 UNK         0.0000 
     36 H36         5.9043   55.6967   28.3817 H         1 UNK         0.0000 
     37 H37         5.5570   54.5779   29.6817 H         1 UNK         0.0000 
     38 H38         6.7427   54.1638   28.4658 H         1 UNK         0.0000 
     39 H39         2.5269   51.4345   27.7361 H         1 UNK         0.0000 
     40 H40         2.8612   52.4968   26.3842 H         1 UNK         0.0000 
     41 H41         0.9765   51.3064   25.6688 H         1 UNK         0.0000 
     42 H42         0.3362   52.8955   26.1025 H         1 UNK         0.0000 
     43 H43        -1.3113   51.5219   29.2366 H         1 UNK         0.0000 
     44 H44         0.4291   51.4421   29.4215 H         1 UNK         0.0000 
     45 H45        -0.8927   53.8797   28.0821 H         1 UNK         0.0000 
     46 H46        -0.7083   53.7757   29.8026 H         1 UNK         0.0000 
     47 H47        -2.1520   50.4308   27.3581 H         1 UNK         0.0000 
     48 H48        -2.0450   52.0524   26.6432 H         1 UNK         0.0000 
     49 H49        -1.9065   52.2382   24.2362 H         1 UNK         0.0000 
     50 H50        -1.4936   51.2433   22.0204 H         1 UNK         0.0000 
     51 H51        -0.4687   47.5143   23.8709 H         1 UNK         0.0000 
     52 H52        -0.8955   48.4819   26.0867 H         1 UNK         0.0000 
     53 H53         3.7889   54.4106   25.8954 H         1 UNK         0.0000 
     54 H54         7.4634   55.1971   23.5392 H         1 UNK         0.0000 
     55 H55         4.9418   54.5008   20.1730 H         1 UNK         0.0000 
     56 H56         3.1073   53.7959   21.6679 H         1 UNK         0.0000 
     57 N57        -0.2162   51.2965   27.4181 N.4       1 UNK         0.0000 
     58 H58         0.1248   50.3537   27.5667 H         1 UNK         0.0000 
@<TRIPOS>BOND
     1    1    2 1    
     2    1   36 1    
     3    1   37 1    
     4    1   38 1    
     5    2    3 1    
     6    2    4 1    
     7    2   25 1    
     8    4    8 ar   
     9    4    5 ar   
    10    5    6 ar   
    11    6    7 ar   
    12    7   12 1    
    13    7    8 ar   
    14    8    9 1    
    15    9   10 1    
    16    9   39 1    
    17    9   40 1    
    18   10   41 1    
    19   10   42 1    
    20   10   57 1    
    21   11   12 1    
    22   11   43 1    
    23   11   44 1    
    24   11   57 1    
    25   12   45 1    
    26   12   46 1    
    27   13   14 1    
    28   13   47 1    
    29   13   48 1    
    30   13   57 1    
    31   14   19 ar   
    32   14   15 ar   
    33   15   16 ar   
    34   15   49 1    
    35   16   17 ar   
    36   16   50 1    
    37   17   18 ar   
    38   17   20 1    
    39   18   19 ar   
    40   18   51 1    
    41   19   52 1    
    42   20   21 1    
    43   21   22 1    
    44   21   23 1    
    45   21   24 1    
    46   25   26 am   BACKBONE|DICT|INTERRES
    47   25   53 1    
    48   26   27 2    
    49   26   28 1    
    50   28   33 ar   
    51   28   29 ar   
    52   29   30 ar   
    53   29   54 1    
    54   30   31 ar   
    55   30   35 1    
    56   31   32 ar   
    57   31   55 1    
    58   32   33 ar   
    59   32   56 1    
    60   33   34 1    
    61   57   58 1    
@<TRIPOS>SUBSTRUCTURE
     1 UNK         1 GROUP             0       ****    0 ROOT    
