@<TRIPOS>MOLECULE
ZINC09309067_6026
72   77    1
SMALL
USER_CHARGES


@<TRIPOS>ATOM
      1 C1          6.3068   53.7145   28.1547 C.3       1 UNK         0.0000 
      2 C2          6.5579   54.1067   26.7001 C.3       1 UNK         0.0000 
      3 O3          5.3020   54.3334   26.0738 O.3       1 UNK         0.0000 
      4 C4          5.2382   54.4125   24.6972 C.ar      1 UNK         0.0000 
      5 C5          3.9615   54.4402   24.1417 C.ar      1 UNK         0.0000 
      6 C6          3.7918   54.4917   22.7617 C.ar      1 UNK         0.0000 
      7 C7          4.9015   54.4965   21.9095 C.ar      1 UNK         0.0000 
      8 C8          6.1855   54.4967   22.4677 C.ar      1 UNK         0.0000 
      9 C9          6.3551   54.4589   23.8495 C.ar      1 UNK         0.0000 
     10 C10         4.6714   54.4874   20.3877 C.3       1 UNK         0.0000 
     11 H11         3.6804   54.8982   20.2083 H         1 UNK         0.0000 
     12 C12         4.7053   53.1082   19.7713 C.2       1 UNK         0.0000 
     13 C13         5.8709   53.0479   19.0923 C.2       1 UNK         0.0000 
     14 N14         6.5332   54.2815   19.1414 N.pl3     1 UNK         0.0000 
     15 N15         5.6098   55.2758   19.6219 N.3       1 UNK         0.0000 
     16 C16         7.7242   54.6944   18.5065 C.ar      1 UNK         0.0000 
     17 C17         8.2439   55.9849   18.6983 C.ar      1 UNK         0.0000 
     18 C18         9.4316   56.3786   18.0866 C.ar      1 UNK         0.0000 
     19 C19        10.1204   55.4807   17.2783 C.ar      1 UNK         0.0000 
     20 C20         9.6278   54.1958   17.0747 C.ar      1 UNK         0.0000 
     21 C21         8.4366   53.8092   17.6821 C.ar      1 UNK         0.0000 
     22 C22         3.6848   52.0750   19.8813 C.2       1 UNK         0.0000 
     23 C23         2.4652   52.3015   20.4158 C.2       1 UNK         0.0000 
     24 C24         1.3014   51.3206   20.6349 C.3       1 UNK         0.0000 
     25 C25         0.2968   51.2385   19.4089 C.3       1 UNK         0.0000 
     26 C26         0.7136   49.9295   18.7591 C.ar      1 UNK         0.0000 
     27 C27         0.3088   49.3755   17.5380 C.ar      1 UNK         0.0000 
     28 C28         0.8947   48.1950   17.0742 C.ar      1 UNK         0.0000 
     29 C29         1.9014   47.5752   17.8161 C.ar      1 UNK         0.0000 
     30 C30         2.2938   48.1188   19.0384 C.ar      1 UNK         0.0000 
     31 C31         1.6686   49.2587   19.5230 C.ar      1 UNK         0.0000 
     32 N32         1.8521   49.9533   20.7110 N.pl3     1 UNK         0.0000 
     33 C33         2.1995   49.4772   22.0535 C.3       1 UNK         0.0000 
     34 C34         1.0537   49.7092   23.0592 C.3       1 UNK         0.0000 
     35 C35         0.5769   51.1392   22.8964 C.2       1 UNK         0.0000 
     36 N36         0.6405   51.8577   21.8511 N.2       1 UNK         0.0000 
     37 O37         0.0635   51.7055   24.0327 O.3       1 UNK         0.0000 
     38 C38        -1.1992   51.1413   19.8197 C.3       1 UNK         0.0000 
     39 C39         0.4327   52.4131   18.3999 C.3       1 UNK         0.0000 
     40 H40         5.7156   52.8010   28.2164 H         1 UNK         0.0000 
     41 H41         7.2466   53.5443   28.6799 H         1 UNK         0.0000 
     42 H42         5.7713   54.5016   28.6860 H         1 UNK         0.0000 
     43 H43         7.1639   55.0116   26.6512 H         1 UNK         0.0000 
     44 H44         7.1039   53.2988   26.2101 H         1 UNK         0.0000 
     45 H45         3.0953   54.4163   24.7864 H         1 UNK         0.0000 
     46 H46         2.7881   54.5192   22.3662 H         1 UNK         0.0000 
     47 H47         7.0578   54.5178   21.8326 H         1 UNK         0.0000 
     48 H48         7.3612   54.4560   24.2403 H         1 UNK         0.0000 
     49 H49         6.2989   52.2178   18.5485 H         1 UNK         0.0000 
     50 H50         5.1410   55.5821   18.7807 H         1 UNK         0.0000 
     51 H51         7.7340   56.6926   19.3325 H         1 UNK         0.0000 
     52 H52         9.8229   57.3719   18.2500 H         1 UNK         0.0000 
     53 H53        11.0464   55.7815   16.8109 H         1 UNK         0.0000 
     54 H54        10.1677   53.5003   16.4495 H         1 UNK         0.0000 
     55 H55         8.0841   52.8050   17.5050 H         1 UNK         0.0000 
     56 H56         3.9044   51.0826   19.5211 H         1 UNK         0.0000 
     57 H57         2.2433   53.2972   20.7346 H         1 UNK         0.0000 
     58 H58        -0.4334   49.8683   16.9277 H         1 UNK         0.0000 
     59 H59         0.5988   47.7824   16.1208 H         1 UNK         0.0000 
     60 H60         2.3958   46.6952   17.4318 H         1 UNK         0.0000 
     61 H61         3.1025   47.6967   19.6053 H         1 UNK         0.0000 
     62 H62         2.4558   48.4192   22.0084 H         1 UNK         0.0000 
     63 H63         3.1041   49.9843   22.3891 H         1 UNK         0.0000 
     64 H64         0.2223   49.0359   22.8525 H         1 UNK         0.0000 
     65 H65         1.4070   49.5327   24.0763 H         1 UNK         0.0000 
     66 H66         0.0117   51.0459   24.7270 H         1 UNK         0.0000 
     67 H67        -1.5458   52.0579   20.2988 H         1 UNK         0.0000 
     68 H68        -1.8429   50.9651   18.9567 H         1 UNK         0.0000 
     69 H69        -1.3667   50.3208   20.5193 H         1 UNK         0.0000 
     70 H70         1.4129   52.4246   17.9212 H         1 UNK         0.0000 
     71 H71        -0.3045   52.3475   17.5992 H         1 UNK         0.0000 
     72 H72         0.2995   53.3783   18.8852 H         1 UNK         0.0000 
@<TRIPOS>BOND
     1    1    2 1    
     2    1   40 1    
     3    1   41 1    
     4    1   42 1    
     5    2    3 1    
     6    2   43 1    
     7    2   44 1    
     8    3    4 1    
     9    4    9 ar   
    10    4    5 ar   
    11    5    6 ar   
    12    5   45 1    
    13    6    7 ar   
    14    6   46 1    
    15    7    8 ar   
    16    7   10 1    
    17    8    9 ar   
    18    8   47 1    
    19    9   48 1    
    20   10   11 1    
    21   10   15 1    
    22   10   12 1    
    23   12   13 2    
    24   12   22 1    
    25   13   14 1    
    26   13   49 1    
    27   14   15 1    
    28   14   16 1    
    29   15   50 1    
    30   16   21 ar   
    31   16   17 ar   
    32   17   18 ar   
    33   17   51 1    
    34   18   19 ar   
    35   18   52 1    
    36   19   20 ar   
    37   19   53 1    
    38   20   21 ar   
    39   20   54 1    
    40   21   55 1    
    41   22   23 2    
    42   22   56 1    
    43   23   24 1    
    44   23   57 1    
    45   24   32 1    
    46   24   36 1    
    47   24   25 1    
    48   25   26 1    
    49   25   38 1    
    50   25   39 1    
    51   26   31 ar   
    52   26   27 ar   
    53   27   28 ar   
    54   27   58 1    
    55   28   29 ar   
    56   28   59 1    
    57   29   30 ar   
    58   29   60 1    
    59   30   31 ar   
    60   30   61 1    
    61   31   32 1    
    62   32   33 1    
    63   33   34 1    
    64   33   62 1    
    65   33   63 1    
    66   34   35 1    
    67   34   64 1    
    68   34   65 1    
    69   35   36 2    
    70   35   37 1    
    71   37   66 1    
    72   38   67 1    
    73   38   68 1    
    74   38   69 1    
    75   39   70 1    
    76   39   71 1    
    77   39   72 1    
@<TRIPOS>SUBSTRUCTURE
     1 UNK         1 GROUP             0       ****    0 ROOT    
