ZINC39665178_2204
                    3D
 Schrodinger Suite 2024-2.
 72 75  0  0  1  0            999 V2000
    6.9737   55.2969   27.0253 C   0  0  0  0  0  0
    6.4642   53.8820   26.7471 C   0  0  1  0  0  0
    7.2520   53.2756   26.3028 H   0  0  0  0  0  0
    6.0553   53.2193   28.0825 C   0  0  0  0  0  0
    4.6842   53.5769   28.4253 N   0  0  0  0  0  0
    3.7748   52.7011   28.8560 C   0  0  0  0  0  0
    4.0633   51.6969   29.5119 O   0  0  0  0  0  0
    2.3429   52.9486   28.3257 C   0  0  1  0  0  0
    2.3686   53.7610   27.5949 H   0  0  0  0  0  0
    1.9005   51.7022   27.5577 C   0  0  0  0  0  0
    0.4362   51.7478   27.5936 N   0  0  0  0  0  0
   -0.0195   52.7105   28.5945 C   0  0  0  0  0  0
    1.2495   53.1756   29.3673 C   0  0  0  0  0  0
    1.4551   52.3516   30.6727 C   0  0  0  0  0  0
    0.3064   52.5356   31.6650 C   0  0  0  0  0  0
    0.1157   54.0460   31.9335 N   0  3  0  0  0  0
    0.0017   54.8962   30.6479 C   0  0  0  0  0  0
    1.2339   54.6487   29.7966 C   0  0  0  0  0  0
   -0.2960   51.1803   26.5880 C   0  0  0  0  0  0
    0.3017   50.6410   25.6503 O   0  0  0  0  0  0
   -1.8762   51.2111   26.5219 C   0  0  0  0  0  0
   -2.3284   52.5457   25.8540 C   0  0  0  0  0  0
   -3.8406   52.5952   25.5436 C   0  0  0  0  0  0
   -4.2840   51.4143   24.6625 C   0  0  0  0  0  0
   -3.8728   50.0590   25.2668 C   0  0  0  0  0  0
   -2.3679   50.0154   25.6230 C   0  0  0  0  0  0
   -2.4994   51.0458   27.9441 C   0  0  0  0  0  0
    5.3264   53.9007   25.8682 O   0  0  0  0  0  0
    5.4471   54.1412   24.5128 C   0  0  0  0  0  0
    6.6525   54.4362   23.8628 C   0  0  0  0  0  0
    6.6763   54.6489   22.4873 C   0  0  0  0  0  0
    5.5028   54.5144   21.7482 C   0  0  0  0  0  0
    4.2982   54.2185   22.3806 C   0  0  0  0  0  0
    4.2710   54.0589   23.7638 C   0  0  0  0  0  0
    7.9043   55.2392   27.5831 H   0  0  0  0  0  0
    7.1044   55.8959   26.1256 H   0  0  0  0  0  0
    6.3013   55.8394   27.6813 H   0  0  0  0  0  0
    6.1637   52.1384   28.0039 H   0  0  0  0  0  0
    6.7298   53.5139   28.8872 H   0  0  0  0  0  0
    4.3538   54.4187   27.9760 H   0  0  0  0  0  0
    2.2929   51.8209   26.5511 H   0  0  0  0  0  0
    2.2075   50.7956   28.0825 H   0  0  0  0  0  0
   -0.8402   52.4065   29.2346 H   0  0  0  0  0  0
   -0.3748   53.5690   28.0238 H   0  0  0  0  0  0
    1.5055   51.2972   30.4024 H   0  0  0  0  0  0
    2.3942   52.5767   31.1775 H   0  0  0  0  0  0
   -0.6373   52.1509   31.2815 H   0  0  0  0  0  0
    0.5191   52.0719   32.6294 H   0  0  0  0  0  0
   -0.7043   54.1580   32.5152 H   0  0  0  0  0  0
   -0.8956   54.5483   30.1426 H   0  0  0  0  0  0
   -0.0715   55.9532   30.8817 H   0  0  0  0  0  0
    2.1574   54.9612   30.2843 H   0  0  0  0  0  0
    1.1457   55.2853   28.9140 H   0  0  0  0  0  0
   -2.0844   53.3972   26.4845 H   0  0  0  0  0  0
   -1.8042   52.6828   24.9050 H   0  0  0  0  0  0
   -4.4094   52.5900   26.4745 H   0  0  0  0  0  0
   -4.0857   53.5351   25.0467 H   0  0  0  0  0  0
   -5.3642   51.4418   24.5149 H   0  0  0  0  0  0
   -3.8393   51.5175   23.6719 H   0  0  0  0  0  0
   -4.4836   49.8486   26.1441 H   0  0  0  0  0  0
   -4.1012   49.2598   24.5598 H   0  0  0  0  0  0
   -1.8620   50.0395   24.6556 H   0  0  0  0  0  0
   -2.1214   49.0550   26.0809 H   0  0  0  0  0  0
   -3.4375   50.4944   27.9375 H   0  0  0  0  0  0
   -1.8574   50.4977   28.6324 H   0  0  0  0  0  0
   -2.7368   52.0051   28.3967 H   0  0  0  0  0  0
    7.5770   54.5019   24.4104 H   0  0  0  0  0  0
    7.6069   54.8961   21.9961 H   0  0  0  0  0  0
    5.5232   54.6547   20.6766 H   0  0  0  0  0  0
    3.3885   54.1314   21.8023 H   0  0  0  0  0  0
    3.3380   53.8303   24.2577 H   0  0  0  0  0  0
    0.8951   54.3843   32.4785 H   0  0  0  0  0  0
  1  2  1  0  0  0
  1 35  1  0  0  0
  1 36  1  0  0  0
  1 37  1  0  0  0
  2  3  1  0  0  0
  2  4  1  0  0  0
  2 28  1  0  0  0
  4  5  1  0  0  0
  4 38  1  0  0  0
  4 39  1  0  0  0
  5  6  1  0  0  0
  5 40  1  0  0  0
  6  7  2  0  0  0
  6  8  1  0  0  0
  8  9  1  0  0  0
  8 13  1  0  0  0
  8 10  1  0  0  0
 10 11  1  0  0  0
 10 41  1  0  0  0
 10 42  1  0  0  0
 11 12  1  0  0  0
 11 19  1  0  0  0
 12 13  1  0  0  0
 12 43  1  0  0  0
 12 44  1  0  0  0
 13 18  1  0  0  0
 13 14  1  0  0  0
 14 15  1  0  0  0
 14 45  1  0  0  0
 14 46  1  0  0  0
 15 16  1  0  0  0
 15 47  1  0  0  0
 15 48  1  0  0  0
 16 17  1  0  0  0
 16 49  1  0  0  0
 16 72  1  0  0  0
 17 18  1  0  0  0
 17 50  1  0  0  0
 17 51  1  0  0  0
 18 52  1  0  0  0
 18 53  1  0  0  0
 19 20  2  0  0  0
 19 21  1  0  0  0
 21 26  1  0  0  0
 21 22  1  0  0  0
 21 27  1  0  0  0
 22 23  1  0  0  0
 22 54  1  0  0  0
 22 55  1  0  0  0
 23 24  1  0  0  0
 23 56  1  0  0  0
 23 57  1  0  0  0
 24 25  1  0  0  0
 24 58  1  0  0  0
 24 59  1  0  0  0
 25 26  1  0  0  0
 25 60  1  0  0  0
 25 61  1  0  0  0
 26 62  1  0  0  0
 26 63  1  0  0  0
 27 64  1  0  0  0
 27 65  1  0  0  0
 27 66  1  0  0  0
 28 29  1  0  0  0
 29 34  2  0  0  0
 29 30  1  0  0  0
 30 31  2  0  0  0
 30 67  1  0  0  0
 31 32  1  0  0  0
 31 68  1  0  0  0
 32 33  2  0  0  0
 32 69  1  0  0  0
 33 34  1  0  0  0
 33 70  1  0  0  0
 34 71  1  0  0  0
M  CHG  1  16   1
M  END
> <i_i_glide_confnum>
364

> <i_i_glide_lignum>
2205

> <i_i_glide_posenum>
205

> <i_i_glide_rotatable_bonds>
8

> <i_m_Source_File_Index>
1172

> <b_m_subgroup_collapsed>
0

> <r_i_docking_score>
-4.65814

> <r_i_glide_ecoul>
-0.0577738

> <r_i_glide_eff_state_penalty>
0

> <r_i_glide_einternal>
16.6597

> <r_i_glide_emodel>
-33.3367

> <r_i_glide_energy>
-34.5171

> <r_i_glide_erotb>
0.714082

> <r_i_glide_esite>
-0.103364

> <r_i_glide_evdw>
-34.4593

> <r_i_glide_gscore>
-4.65814

> <r_i_glide_hbond>
-0.0549143

> <r_i_glide_ligand_efficiency>
-0.145567

> <r_i_glide_ligand_efficiency_ln>
-1.04309

> <r_i_glide_ligand_efficiency_sa>
-0.462146

> <r_i_glide_lipo>
-3.13064

> <r_i_glide_metal>
0

> <r_i_glide_rewards>
-0.351676

> <s_i_glide_gridfile>
wee1_glide-grid

> <s_m_Source_File>
wee1_decoys_glide_SP.sdf

> <s_m_Source_Path>
/Users/zhangxujun/Desktop

> <s_m_entry_id>
1447

> <s_m_entry_name>
wee1_decoys_glide_SP.1172

> <s_m_subgroup_title>
wee1_decoys_glide_SP

> <s_m_subgroupid>
wee1_decoys_glide_SP


$$$$
