ZINC67067117_2584
                    3D
 Schrodinger Suite 2024-2.
 44 45  0  0  1  0            999 V2000
    2.3028   51.8713   22.2448 C   0  0  0  0  0  0
    2.3048   50.5104   22.0047 C   0  0  0  0  0  0
    1.1041   49.6982   22.9430 S   0  0  0  0  0  0
    0.5583   51.1927   23.6597 C   0  0  0  0  0  0
    1.3324   52.2584   23.1745 C   0  0  0  0  0  0
    1.1044   54.0826   23.6808 Br  0  0  0  0  0  0
   -0.6094   51.1887   24.6316 C   0  0  0  0  0  0
   -0.2123   50.8598   26.0051 N   0  0  0  0  0  0
    0.1958   51.7671   26.9047 C   0  0  0  0  0  0
    0.5666   52.8966   26.5985 O   0  0  0  0  0  0
    0.1868   51.2967   28.1655 N   0  0  0  0  0  0
    0.3644   52.1835   29.2324 N   0  0  0  0  0  0
    1.5880   52.4062   29.7599 C   0  0  0  0  0  0
    1.6859   52.8957   30.8816 O   0  0  0  0  0  0
    2.8803   52.1722   28.9487 C   0  0  0  0  0  0
    3.8674   53.3578   29.0343 C   0  0  0  0  0  0
    4.7931   53.4921   27.8042 C   0  0  0  0  0  0
    4.0950   54.1920   26.6101 C   0  0  0  0  0  0
    5.0246   54.2931   25.3797 C   0  0  0  0  0  0
    6.3841   54.9456   25.7203 C   0  0  0  0  0  0
    7.0356   54.3259   26.9753 C   0  0  0  0  0  0
    6.0615   54.2884   28.1586 C   0  0  0  0  0  0
    2.9734   52.5678   21.7617 H   0  0  0  0  0  0
    2.9421   49.9539   21.3329 H   0  0  0  0  0  0
   -1.3640   50.4647   24.3222 H   0  0  0  0  0  0
   -1.1263   52.1506   24.6071 H   0  0  0  0  0  0
   -0.4042   49.9181   26.3218 H   0  0  0  0  0  0
   -0.2199   50.4131   28.4412 H   0  0  0  0  0  0
   -0.4889   52.3633   29.7411 H   0  0  0  0  0  0
    2.6650   51.9717   27.9042 H   0  0  0  0  0  0
    3.3658   51.2713   29.3164 H   0  0  0  0  0  0
    4.4590   53.2286   29.9407 H   0  0  0  0  0  0
    3.3391   54.3037   29.1736 H   0  0  0  0  0  0
    5.1119   52.4975   27.4844 H   0  0  0  0  0  0
    3.7588   55.1864   26.9088 H   0  0  0  0  0  0
    3.1792   53.6628   26.3443 H   0  0  0  0  0  0
    4.5295   54.8536   24.5856 H   0  0  0  0  0  0
    5.1997   53.2973   24.9768 H   0  0  0  0  0  0
    6.2389   56.0141   25.8792 H   0  0  0  0  0  0
    7.0615   54.8598   24.8693 H   0  0  0  0  0  0
    7.9046   54.8976   27.2814 H   0  0  0  0  0  0
    7.3842   53.3149   26.7572 H   0  0  0  0  0  0
    6.5635   53.8360   29.0135 H   0  0  0  0  0  0
    5.8028   55.2953   28.4895 H   0  0  0  0  0  0
  1  5  1  0  0  0
  1  2  2  0  0  0
  1 23  1  0  0  0
  2  3  1  0  0  0
  2 24  1  0  0  0
  3  4  1  0  0  0
  4  5  2  0  0  0
  4  7  1  0  0  0
  5  6  1  0  0  0
  7  8  1  0  0  0
  7 25  1  0  0  0
  7 26  1  0  0  0
  8  9  1  0  0  0
  8 27  1  0  0  0
  9 10  2  0  0  0
  9 11  1  0  0  0
 11 12  1  0  0  0
 11 28  1  0  0  0
 12 13  1  0  0  0
 12 29  1  0  0  0
 13 14  2  0  0  0
 13 15  1  0  0  0
 15 16  1  0  0  0
 15 30  1  0  0  0
 15 31  1  0  0  0
 16 17  1  0  0  0
 16 32  1  0  0  0
 16 33  1  0  0  0
 17 22  1  0  0  0
 17 18  1  0  0  0
 17 34  1  0  0  0
 18 19  1  0  0  0
 18 35  1  0  0  0
 18 36  1  0  0  0
 19 20  1  0  0  0
 19 37  1  0  0  0
 19 38  1  0  0  0
 20 21  1  0  0  0
 20 39  1  0  0  0
 20 40  1  0  0  0
 21 22  1  0  0  0
 21 41  1  0  0  0
 21 42  1  0  0  0
 22 43  1  0  0  0
 22 44  1  0  0  0
M  END
> <i_i_glide_confnum>
75

> <i_i_glide_lignum>
2585

> <i_i_glide_posenum>
270

> <i_i_glide_rotatable_bonds>
9

> <i_m_Source_File_Index>
5922

> <b_m_subgroup_collapsed>
0

> <r_i_docking_score>
-5.13425

> <r_i_glide_ecoul>
-3.70898

> <r_i_glide_eff_state_penalty>
0

> <r_i_glide_einternal>
6.783

> <r_i_glide_emodel>
-51.4837

> <r_i_glide_energy>
-40.3084

> <r_i_glide_erotb>
0.904402

> <r_i_glide_esite>
-0.0757644

> <r_i_glide_evdw>
-36.5994

> <r_i_glide_gscore>
-5.13425

> <r_i_glide_hbond>
-0.0987208

> <r_i_glide_ligand_efficiency>
-0.233375

> <r_i_glide_ligand_efficiency_ln>
-1.255

> <r_i_glide_ligand_efficiency_sa>
-0.653926

> <r_i_glide_lipo>
-2.57489

> <r_i_glide_metal>
0

> <r_i_glide_rewards>
-0.902965

> <s_i_glide_gridfile>
wee1_glide-grid

> <s_m_Source_File>
wee1_decoys_glide_SP.sdf

> <s_m_Source_Path>
/Users/zhangxujun/Desktop

> <s_m_entry_id>
6197

> <s_m_entry_name>
wee1_decoys_glide_SP.5922

> <s_m_subgroup_title>
wee1_decoys_glide_SP

> <s_m_subgroupid>
wee1_decoys_glide_SP


$$$$
