@<TRIPOS>MOLECULE
ZINC65096623_2689
54   57    1
SMALL
USER_CHARGES


@<TRIPOS>ATOM
      1 C1         -0.5064   52.4925   29.9263 C.3       1 UNK         0.0000 
      2 C2          0.0378   51.7633   28.6817 C.3       1 UNK         0.0000 
      3 H3          0.3752   50.7945   29.0393 H         1 UNK         0.0000 
      4 C4         -1.0051   51.4904   27.5517 C.2       1 UNK         0.0000 
      5 O5         -2.1968   51.6965   27.7865 O.2       1 UNK         0.0000 
      6 N6         -0.5497   51.0313   26.3461 N.am      1 UNK         0.0000 
      7 C7          0.3519   49.8611   26.4823 C.3       1 UNK         0.0000 
      8 C8          0.3500   48.9906   25.2152 C.3       1 UNK         0.0000 
      9 C9          0.5737   49.8379   23.9686 C.3       1 UNK         0.0000 
     10 C10        -0.5458   50.8603   23.8863 C.ar      1 UNK         0.0000 
     11 C11        -1.0491   51.4604   25.0676 C.ar      1 UNK         0.0000 
     12 C12        -2.0388   52.4564   24.9289 C.ar      1 UNK         0.0000 
     13 C13        -2.5574   52.7944   23.6820 C.ar      1 UNK         0.0000 
     14 C14        -2.0931   52.1524   22.5408 C.ar      1 UNK         0.0000 
     15 C15        -1.0835   51.2062   22.6441 C.ar      1 UNK         0.0000 
     16 N16         1.1908   52.4901   28.1485 N.am      1 UNK         0.0000 
     17 C17         2.4162   52.5882   28.6920 C.2       1 UNK         0.0000 
     18 O18         2.7186   52.0964   29.7821 O.2       1 UNK         0.0000 
     19 C19         3.4310   53.3470   27.8666 C.ar      1 UNK         0.0000 
     20 C20         4.5799   53.8751   28.4694 C.ar      1 UNK         0.0000 
     21 C21         5.5612   54.4985   27.6999 C.ar      1 UNK         0.0000 
     22 C22         5.4101   54.6029   26.3176 C.ar      1 UNK         0.0000 
     23 C23         4.2719   54.0917   25.6901 C.ar      1 UNK         0.0000 
     24 C24         3.2823   53.4805   26.4753 C.ar      1 UNK         0.0000 
     25 N25         4.2493   54.1314   24.2822 N.am      1 UNK         0.0000 
     26 C26         3.2783   53.7368   23.4281 C.2       1 UNK         0.0000 
     27 O27         2.1123   53.4784   23.7286 O.2       1 UNK         0.0000 
     28 C28         3.7403   53.5657   22.0761 C.2       1 UNK         0.0000 
     29 C29         3.1621   52.8951   21.0039 C.2       1 UNK         0.0000 
     30 C30         4.0432   53.0072   19.9276 C.2       1 UNK         0.0000 
     31 C31         5.1044   53.7743   20.3746 C.2       1 UNK         0.0000 
     32 O32         4.9298   54.1046   21.6807 O.3       1 UNK         0.0000 
     33 H33        -1.2957   51.9044   30.3909 H         1 UNK         0.0000 
     34 H34         0.2610   52.6203   30.6897 H         1 UNK         0.0000 
     35 H35        -0.8952   53.4794   29.6816 H         1 UNK         0.0000 
     36 H36         1.3381   50.1790   26.8164 H         1 UNK         0.0000 
     37 H37        -0.0250   49.2352   27.2815 H         1 UNK         0.0000 
     38 H38         1.1043   48.2121   25.2990 H         1 UNK         0.0000 
     39 H39        -0.6002   48.4579   25.1431 H         1 UNK         0.0000 
     40 H40         0.6074   49.2056   23.0805 H         1 UNK         0.0000 
     41 H41         1.5347   50.3508   24.0300 H         1 UNK         0.0000 
     42 H42        -2.4402   52.9790   25.7827 H         1 UNK         0.0000 
     43 H43        -3.3261   53.5489   23.6061 H         1 UNK         0.0000 
     44 H44        -2.4941   52.4034   21.5722 H         1 UNK         0.0000 
     45 H45        -0.7088   50.7372   21.7459 H         1 UNK         0.0000 
     46 H46         1.0274   52.9449   27.2636 H         1 UNK         0.0000 
     47 H47         4.7274   53.7890   29.5368 H         1 UNK         0.0000 
     48 H48         6.4460   54.8946   28.1764 H         1 UNK         0.0000 
     49 H49         6.1941   55.0676   25.7378 H         1 UNK         0.0000 
     50 H50         2.4286   53.0298   25.9976 H         1 UNK         0.0000 
     51 H51         5.1258   54.3780   23.8487 H         1 UNK         0.0000 
     52 H52         2.2165   52.3718   21.0092 H         1 UNK         0.0000 
     53 H53         3.9210   52.5847   18.9391 H         1 UNK         0.0000 
     54 H54         6.0105   54.1299   19.9055 H         1 UNK         0.0000 
@<TRIPOS>BOND
     1    1    2 1    
     2    1   33 1    
     3    1   34 1    
     4    1   35 1    
     5    2    3 1    
     6    2    4 1    
     7    2   16 1    
     8    4    5 2    
     9    4    6 am   BACKBONE|DICT|INTERRES
    10    6   11 1    
    11    6    7 1    
    12    7    8 1    
    13    7   36 1    
    14    7   37 1    
    15    8    9 1    
    16    8   38 1    
    17    8   39 1    
    18    9   10 1    
    19    9   40 1    
    20    9   41 1    
    21   10   15 ar   
    22   10   11 ar   
    23   11   12 ar   
    24   12   13 ar   
    25   12   42 1    
    26   13   14 ar   
    27   13   43 1    
    28   14   15 ar   
    29   14   44 1    
    30   15   45 1    
    31   16   17 am   BACKBONE|DICT|INTERRES
    32   16   46 1    
    33   17   18 2    
    34   17   19 1    
    35   19   24 ar   
    36   19   20 ar   
    37   20   21 ar   
    38   20   47 1    
    39   21   22 ar   
    40   21   48 1    
    41   22   23 ar   
    42   22   49 1    
    43   23   24 ar   
    44   23   25 1    
    45   24   50 1    
    46   25   26 am   BACKBONE|DICT|INTERRES
    47   25   51 1    
    48   26   27 2    
    49   26   28 1    
    50   28   32 1    
    51   28   29 2    
    52   29   30 1    
    53   29   52 1    
    54   30   31 2    
    55   30   53 1    
    56   31   32 1    
    57   31   54 1    
@<TRIPOS>SUBSTRUCTURE
     1 UNK         1 GROUP             0       ****    0 ROOT    
