ZINC59590114_2535
                    3D
 Schrodinger Suite 2024-2.
 39 41  0  0  1  0            999 V2000
    6.5717   55.1771   21.8299 C   0  0  0  0  0  0
    7.2834   55.5811   20.7022 C   0  0  0  0  0  0
    6.7929   55.3017   19.4192 C   0  0  0  0  0  0
    5.5944   54.6052   19.2860 C   0  0  0  0  0  0
    4.8919   54.1847   20.4099 C   0  0  0  0  0  0
    5.3605   54.4791   21.6966 C   0  0  0  0  0  0
    4.5529   53.9893   22.9128 C   0  0  1  0  0  0
    4.6841   52.9049   22.8796 H   0  0  0  0  0  0
    5.0378   54.4414   24.2152 N   0  0  0  0  0  0
    4.2922   54.1865   25.3822 C   0  0  0  0  0  0
    4.9298   54.3917   26.6049 C   0  0  0  0  0  0
    4.2739   54.1320   27.8066 C   0  0  0  0  0  0
    2.9722   53.6133   27.7946 C   0  0  0  0  0  0
    2.3260   53.4086   26.5705 C   0  0  0  0  0  0
    2.9740   53.6969   25.3662 C   0  0  0  0  0  0
    2.0689   53.4064   23.8538 S   0  0  0  0  0  0
    0.7793   54.0961   23.9329 O   0  0  0  0  0  0
    2.0858   51.9680   23.5773 O   0  0  0  0  0  0
    3.1155   54.2322   22.7320 N   0  0  0  0  0  0
    2.1534   53.1928   29.3361 S   0  0  0  0  0  0
    2.9159   52.0949   29.9382 O   0  0  0  0  0  0
    1.9403   54.4522   30.0550 O   0  0  0  0  0  0
    0.5798   52.5618   28.9270 N   0  0  0  0  0  0
    5.1038   54.4906   29.2806 Cl  0  0  0  0  0  0
    7.4063   55.6975   18.2481 O   0  0  0  0  0  0
    8.8252   55.8329   18.1981 C   0  0  0  0  0  0
    9.1611   56.0136   16.9220 F   0  0  0  0  0  0
    9.4383   54.7268   18.6203 F   0  0  0  0  0  0
    9.2441   56.8983   18.8813 F   0  0  0  0  0  0
    6.9860   55.4064   22.8001 H   0  0  0  0  0  0
    8.2196   56.0959   20.8447 H   0  0  0  0  0  0
    5.2102   54.3805   18.3015 H   0  0  0  0  0  0
    3.9709   53.6348   20.2733 H   0  0  0  0  0  0
    6.0391   54.5428   24.2753 H   0  0  0  0  0  0
    5.9400   54.7726   26.6335 H   0  0  0  0  0  0
    1.3198   53.0144   26.5398 H   0  0  0  0  0  0
    2.8243   55.1619   22.4223 H   0  0  0  0  0  0
    0.4859   51.5487   29.0352 H   0  0  0  0  0  0
   -0.1894   53.0826   29.3512 H   0  0  0  0  0  0
  1  6  2  0  0  0
  1  2  1  0  0  0
  1 30  1  0  0  0
  2  3  2  0  0  0
  2 31  1  0  0  0
  3  4  1  0  0  0
  3 25  1  0  0  0
  4  5  2  0  0  0
  4 32  1  0  0  0
  5  6  1  0  0  0
  5 33  1  0  0  0
  6  7  1  0  0  0
  7  8  1  0  0  0
  7 19  1  0  0  0
  7  9  1  0  0  0
  9 10  1  0  0  0
  9 34  1  0  0  0
 10 15  2  0  0  0
 10 11  1  0  0  0
 11 12  2  0  0  0
 11 35  1  0  0  0
 12 13  1  0  0  0
 12 24  1  0  0  0
 13 14  2  0  0  0
 13 20  1  0  0  0
 14 15  1  0  0  0
 14 36  1  0  0  0
 15 16  1  0  0  0
 16 17  2  0  0  0
 16 18  2  0  0  0
 16 19  1  0  0  0
 19 37  1  0  0  0
 20 21  2  0  0  0
 20 22  2  0  0  0
 20 23  1  0  0  0
 23 38  1  0  0  0
 23 39  1  0  0  0
 25 26  1  0  0  0
 26 27  1  0  0  0
 26 28  1  0  0  0
 26 29  1  0  0  0
M  END
> <i_i_glide_confnum>
3

> <i_i_glide_lignum>
2536

> <i_i_glide_posenum>
107

> <i_i_glide_rotatable_bonds>
4

> <i_m_Source_File_Index>
4272

> <b_m_subgroup_collapsed>
0

> <r_i_docking_score>
-3.24551

> <r_i_glide_ecoul>
-4.07744

> <r_i_glide_eff_state_penalty>
0

> <r_i_glide_einternal>
2.31976

> <r_i_glide_emodel>
-46.9704

> <r_i_glide_energy>
-46.8251

> <r_i_glide_erotb>
0.191859

> <r_i_glide_esite>
-0.0267297

> <r_i_glide_evdw>
-42.7477

> <r_i_glide_gscore>
-3.24551

> <r_i_glide_hbond>
0

> <r_i_glide_ligand_efficiency>
-0.115911

> <r_i_glide_ligand_efficiency_ln>
-0.749158

> <r_i_glide_ligand_efficiency_sa>
-0.351974

> <r_i_glide_lipo>
-2.12854

> <r_i_glide_metal>
0

> <r_i_glide_rewards>
1.4669

> <s_i_glide_gridfile>
wee1_glide-grid

> <s_m_Source_File>
wee1_decoys_glide_SP.sdf

> <s_m_Source_Path>
/Users/zhangxujun/Desktop

> <s_m_entry_id>
4547

> <s_m_entry_name>
wee1_decoys_glide_SP.4272

> <s_m_subgroup_title>
wee1_decoys_glide_SP

> <s_m_subgroupid>
wee1_decoys_glide_SP


$$$$
