@<TRIPOS>MOLECULE
ZINC09237616_4367
42   45    1
SMALL
USER_CHARGES


@<TRIPOS>ATOM
      1 C1          1.5047   50.6694   17.5266 C.3       1 UNK         0.0000 
      2 C2          1.5528   49.9874   18.8763 C.ar      1 UNK         0.0000 
      3 N3          1.8552   48.7269   19.0641 N.2       1 UNK         0.0000 
      4 N4          1.8094   48.4956   20.4343 N.2       1 UNK         0.0000 
      5 C5          1.4703   49.6164   21.0183 C.ar      1 UNK         0.0000 
      6 N6          1.3028   50.6128   20.0757 N.pl3     1 UNK         0.0000 
      7 N7          0.9780   51.9666   20.2622 N.3       1 UNK         0.0000 
      8 C8          1.2145   52.4553   21.6258 C.3       1 UNK         0.0000 
      9 H9          0.7047   53.4161   21.6444 H         1 UNK         0.0000 
     10 C10         0.4838   51.5132   22.6370 C.3       1 UNK         0.0000 
     11 H11        -0.5450   51.3492   22.3124 H         1 UNK         0.0000 
     12 S12         1.2528   49.8461   22.7540 S.3       1 UNK         0.0000 
     13 C13         0.2759   52.1676   24.0293 C.2       1 UNK         0.0000 
     14 O14        -0.2548   53.2808   24.0812 O.2       1 UNK         0.0000 
     15 N15         0.7042   51.5032   25.1222 N.am      1 UNK         0.0000 
     16 C16         0.6058   51.9410   26.4449 C.ar      1 UNK         0.0000 
     17 C17         1.7273   52.5378   27.0275 C.ar      1 UNK         0.0000 
     18 C18         1.7045   52.9179   28.3688 C.ar      1 UNK         0.0000 
     19 C19         0.5681   52.6827   29.1405 C.ar      1 UNK         0.0000 
     20 C20        -0.5478   52.0718   28.5682 C.ar      1 UNK         0.0000 
     21 C21        -0.5416   51.7042   27.2198 C.ar      1 UNK         0.0000 
     22 Cl22       -1.9433   50.9363   26.5560 Cl        1 UNK         0.0000 
     23 Br23        0.5454   53.1878   30.9763 Br        1 UNK         0.0000 
     24 C24         2.6764   52.8080   21.9764 C.ar      1 UNK         0.0000 
     25 C25         3.7683   52.2068   21.3300 C.ar      1 UNK         0.0000 
     26 C26         5.0694   52.5660   21.6659 C.ar      1 UNK         0.0000 
     27 C27         5.2935   53.5232   22.6499 C.ar      1 UNK         0.0000 
     28 C28         4.2227   54.1179   23.3069 C.ar      1 UNK         0.0000 
     29 C29         2.9200   53.7751   22.9595 C.ar      1 UNK         0.0000 
     30 F30         6.5576   53.8706   22.9787 F         1 UNK         0.0000 
     31 H31         1.7547   49.9815   16.7172 H         1 UNK         0.0000 
     32 H32         0.5189   51.0806   17.3110 H         1 UNK         0.0000 
     33 H33         2.2258   51.4845   17.4682 H         1 UNK         0.0000 
     34 H34         1.5481   52.5216   19.6377 H         1 UNK         0.0000 
     35 H35         1.1338   50.6029   24.9762 H         1 UNK         0.0000 
     36 H36         2.6210   52.7070   26.4435 H         1 UNK         0.0000 
     37 H37         2.5719   53.3860   28.8106 H         1 UNK         0.0000 
     38 H38        -1.4179   51.8683   29.1754 H         1 UNK         0.0000 
     39 H39         3.6372   51.4630   20.5605 H         1 UNK         0.0000 
     40 H40         5.8974   52.0964   21.1585 H         1 UNK         0.0000 
     41 H41         4.4033   54.8590   24.0720 H         1 UNK         0.0000 
     42 H42         2.1004   54.2705   23.4602 H         1 UNK         0.0000 
@<TRIPOS>BOND
     1    1    2 1    
     2    1   31 1    
     3    1   32 1    
     4    1   33 1    
     5    2    6 ar   
     6    2    3 ar   
     7    3    4 ar   
     8    4    5 ar   
     9    5   12 1    
    10    5    6 ar   
    11    6    7 1    
    12    7    8 1    
    13    7   34 1    
    14    8    9 1    
    15    8   10 1    
    16    8   24 1    
    17   10   11 1    
    18   10   12 1    
    19   10   13 1    
    20   13   14 2    
    21   13   15 am   BACKBONE|DICT|INTERRES
    22   15   16 1    
    23   15   35 1    
    24   16   21 ar   
    25   16   17 ar   
    26   17   18 ar   
    27   17   36 1    
    28   18   19 ar   
    29   18   37 1    
    30   19   20 ar   
    31   19   23 1    
    32   20   21 ar   
    33   20   38 1    
    34   21   22 1    
    35   24   29 ar   
    36   24   25 ar   
    37   25   26 ar   
    38   25   39 1    
    39   26   27 ar   
    40   26   40 1    
    41   27   28 ar   
    42   27   30 1    
    43   28   29 ar   
    44   28   41 1    
    45   29   42 1    
@<TRIPOS>SUBSTRUCTURE
     1 UNK         1 GROUP             0       ****    0 ROOT    
