@<TRIPOS>MOLECULE
ZINC39673384_389
63   66    1
SMALL
USER_CHARGES


@<TRIPOS>ATOM
      1 C1         -5.6948   48.5476   30.8812 C.3       1 UNK         0.0000 
      2 C2         -5.6336   49.2909   29.5730 C.2       1 UNK         0.0000 
      3 C3         -5.0303   50.4646   29.1616 C.2       1 UNK         0.0000 
      4 C4         -5.3454   50.6427   27.8092 C.2       1 UNK         0.0000 
      5 C5         -6.0856   49.5206   27.4325 C.2       1 UNK         0.0000 
      6 O6         -6.2681   48.7210   28.5183 O.3       1 UNK         0.0000 
      7 C7         -6.6808   49.0143   26.1315 C.3       1 UNK         0.0000 
      8 F8         -6.1114   47.8667   25.7642 F         1 UNK         0.0000 
      9 F9         -7.9911   48.8073   26.2515 F         1 UNK         0.0000 
     10 F10        -6.5027   49.8803   25.1343 F         1 UNK         0.0000 
     11 C11        -4.8547   51.6904   26.9576 C.2       1 UNK         0.0000 
     12 O12        -5.4869   52.7422   26.8540 O.2       1 UNK         0.0000 
     13 N13        -3.6889   51.4425   26.3106 N.am      1 UNK         0.0000 
     14 C14        -3.0089   52.4686   25.5190 C.3       1 UNK         0.0000 
     15 C15        -1.5535   51.9567   25.5047 C.3       1 UNK         0.0000 
     16 H16        -1.0568   52.2864   26.4201 H         1 UNK         0.0000 
     17 C17        -1.6786   50.4127   25.5030 C.3       1 UNK         0.0000 
     18 C18        -2.8772   50.2262   26.4592 C.3       1 UNK         0.0000 
     19 C19        -2.1008   49.7995   24.1174 C.3       1 UNK         0.0000 
     20 C20        -0.9681   49.3445   23.1753 C.3       1 UNK         0.0000 
     21 N21         0.0436   48.4966   23.9605 N.4       1 UNK         0.0000 
     22 C22         0.6776   49.2965   25.1007 C.3       1 UNK         0.0000 
     23 C23        -0.4206   49.7055   26.0822 C.3       1 UNK         0.0000 
     24 C24        -0.7737   52.5400   24.3091 C.2       1 UNK         0.0000 
     25 O25        -1.3441   52.8964   23.2816 O.2       1 UNK         0.0000 
     26 N26         0.5425   52.6887   24.5128 N.am      1 UNK         0.0000 
     27 C27         1.5222   53.2955   23.6112 C.3       1 UNK         0.0000 
     28 C28         2.7562   53.8384   24.3349 C.ar      1 UNK         0.0000 
     29 C29         2.7343   54.0962   25.7112 C.ar      1 UNK         0.0000 
     30 C30         3.8675   54.5685   26.3565 C.ar      1 UNK         0.0000 
     31 C31         5.0508   54.7641   25.6433 C.ar      1 UNK         0.0000 
     32 C32         5.0863   54.4968   24.2750 C.ar      1 UNK         0.0000 
     33 C33         3.9416   54.0416   23.6204 C.ar      1 UNK         0.0000 
     34 O34         6.1733   55.2700   26.2544 O.3       1 UNK         0.0000 
     35 C35         6.7048   54.4969   27.3273 C.3       1 UNK         0.0000 
     36 F36         7.1038   53.2967   26.9247 F         1 UNK         0.0000 
     37 F37         5.9043   54.4062   28.3909 F         1 UNK         0.0000 
     38 H38        -5.2890   49.1438   31.6992 H         1 UNK         0.0000 
     39 H39        -6.7178   48.2851   31.1499 H         1 UNK         0.0000 
     40 H40        -5.1184   47.6232   30.8401 H         1 UNK         0.0000 
     41 H41        -4.4221   51.1117   29.7756 H         1 UNK         0.0000 
     42 H42        -3.0617   53.4708   25.9483 H         1 UNK         0.0000 
     43 H43        -3.4381   52.4280   24.5163 H         1 UNK         0.0000 
     44 H44        -3.3974   49.2737   26.3471 H         1 UNK         0.0000 
     45 H45        -2.4977   50.2360   27.4836 H         1 UNK         0.0000 
     46 H46        -2.6174   48.8616   24.3289 H         1 UNK         0.0000 
     47 H47        -2.8665   50.3903   23.6129 H         1 UNK         0.0000 
     48 H48        -1.3353   48.7209   22.3584 H         1 UNK         0.0000 
     49 H49        -0.4100   50.1795   22.7484 H         1 UNK         0.0000 
     50 H50        -0.4137   47.6836   24.3487 H         1 UNK         0.0000 
     51 H51         1.4105   48.6442   25.5804 H         1 UNK         0.0000 
     52 H52         1.1938   50.1358   24.6376 H         1 UNK         0.0000 
     53 H53        -0.0379   50.2051   26.9732 H         1 UNK         0.0000 
     54 H54        -0.7535   48.7458   26.4810 H         1 UNK         0.0000 
     55 H55         0.9310   52.2666   25.3419 H         1 UNK         0.0000 
     56 H56         1.0816   54.0956   23.0127 H         1 UNK         0.0000 
     57 H57         1.8429   52.5290   22.9028 H         1 UNK         0.0000 
     58 H58         1.8343   53.9648   26.2930 H         1 UNK         0.0000 
     59 H59         3.8090   54.8024   27.4079 H         1 UNK         0.0000 
     60 H60         5.9994   54.6570   23.7204 H         1 UNK         0.0000 
     61 H61         3.9811   53.8442   22.5584 H         1 UNK         0.0000 
     62 H62         7.6067   54.9901   27.6816 H         1 UNK         0.0000 
     63 H63         0.7799   48.1696   23.3490 H         1 UNK         0.0000 
@<TRIPOS>BOND
     1    1    2 1    
     2    1   38 1    
     3    1   39 1    
     4    1   40 1    
     5    2    6 1    
     6    2    3 2    
     7    3    4 1    
     8    3   41 1    
     9    4    5 2    
    10    4   11 1    
    11    5    6 1    
    12    5    7 1    
    13    7    8 1    
    14    7    9 1    
    15    7   10 1    
    16   11   12 2    
    17   11   13 am   BACKBONE|DICT|INTERRES
    18   13   18 1    
    19   13   14 1    
    20   14   15 1    
    21   14   42 1    
    22   14   43 1    
    23   15   16 1    
    24   15   17 1    
    25   15   24 1    
    26   17   23 1    
    27   17   18 1    
    28   17   19 1    
    29   18   44 1    
    30   18   45 1    
    31   19   20 1    
    32   19   46 1    
    33   19   47 1    
    34   20   21 1    
    35   20   48 1    
    36   20   49 1    
    37   21   22 1    
    38   21   50 1    
    39   21   63 1    
    40   22   23 1    
    41   22   51 1    
    42   22   52 1    
    43   23   53 1    
    44   23   54 1    
    45   24   25 2    
    46   24   26 am   BACKBONE|DICT|INTERRES
    47   26   27 1    
    48   26   55 1    
    49   27   28 1    
    50   27   56 1    
    51   27   57 1    
    52   28   33 ar   
    53   28   29 ar   
    54   29   30 ar   
    55   29   58 1    
    56   30   31 ar   
    57   30   59 1    
    58   31   32 ar   
    59   31   34 1    
    60   32   33 ar   
    61   32   60 1    
    62   33   61 1    
    63   34   35 1    
    64   35   36 1    
    65   35   37 1    
    66   35   62 1    
@<TRIPOS>SUBSTRUCTURE
     1 UNK         1 GROUP             0       ****    0 ROOT    
