@<TRIPOS>MOLECULE
ZINC36218090_3986
62   66    1
SMALL
USER_CHARGES


@<TRIPOS>ATOM
      1 C1          5.9115   56.4149   18.6441 C.ar      1 UNK         0.0000 
      2 C2          6.4900   56.0765   19.8643 C.ar      1 UNK         0.0000 
      3 C3          5.9689   55.0208   20.6072 C.ar      1 UNK         0.0000 
      4 C4          4.8693   54.2931   20.1306 C.ar      1 UNK         0.0000 
      5 C5          4.3045   54.6355   18.8925 C.ar      1 UNK         0.0000 
      6 C6          4.8216   55.6981   18.1549 C.ar      1 UNK         0.0000 
      7 C7          4.3415   53.1312   20.9361 C.2       1 UNK         0.0000 
      8 O8          5.1041   52.4773   21.6511 O.2       1 UNK         0.0000 
      9 N9          3.0138   52.8967   20.8513 N.am      1 UNK         0.0000 
     10 C10         2.3450   51.8240   21.4583 C.ar      1 UNK         0.0000 
     11 C11         2.8514   50.5189   21.4064 C.ar      1 UNK         0.0000 
     12 C12         2.1987   49.4868   22.0739 C.ar      1 UNK         0.0000 
     13 C13         1.0247   49.7436   22.7795 C.ar      1 UNK         0.0000 
     14 C14         0.4850   51.0333   22.8043 C.ar      1 UNK         0.0000 
     15 C15         1.1445   52.0705   22.1281 C.ar      1 UNK         0.0000 
     16 C16        -0.8115   51.2849   23.5736 C.3       1 UNK         0.0000 
     17 H17        -1.4048   50.3780   23.4474 H         1 UNK         0.0000 
     18 C18        -0.7696   51.6099   25.0702 C.3       1 UNK         0.0000 
     19 H19        -0.8626   50.6981   25.6633 H         1 UNK         0.0000 
     20 N20        -1.9582   52.4307   25.2160 N.am      1 UNK         0.0000 
     21 C21        -2.4044   52.8966   23.9800 C.2       1 UNK         0.0000 
     22 O22        -3.2961   53.6952   23.7034 O.2       1 UNK         0.0000 
     23 O23        -1.6110   52.3294   23.0482 O.3       1 UNK         0.0000 
     24 C24        -2.6475   52.6986   26.4800 C.3       1 UNK         0.0000 
     25 C25        -3.7406   51.6942   26.8066 C.ar      1 UNK         0.0000 
     26 C26        -3.4802   50.6473   27.6913 C.ar      1 UNK         0.0000 
     27 C27        -4.4947   49.7575   28.0333 C.ar      1 UNK         0.0000 
     28 C28        -5.7694   49.9219   27.4967 C.ar      1 UNK         0.0000 
     29 C29        -6.0400   50.9766   26.6286 C.ar      1 UNK         0.0000 
     30 C30        -5.0258   51.8688   26.2855 C.ar      1 UNK         0.0000 
     31 F31        -6.7519   49.0529   27.8232 F         1 UNK         0.0000 
     32 C32         0.4744   52.3788   25.5827 C.2       1 UNK         0.0000 
     33 O33         0.9564   53.2856   24.9030 O.2       1 UNK         0.0000 
     34 N34         0.8985   52.0237   26.8145 N.am      1 UNK         0.0000 
     35 C35         1.9040   52.5907   27.6215 C.ar      1 UNK         0.0000 
     36 C36         1.9988   52.0824   28.9216 C.ar      1 UNK         0.0000 
     37 C37         2.9577   52.5773   29.8029 C.ar      1 UNK         0.0000 
     38 C38         3.8263   53.5813   29.3833 C.ar      1 UNK         0.0000 
     39 C39         3.7471   54.0944   28.0911 C.ar      1 UNK         0.0000 
     40 C40         2.7882   53.6025   27.2084 C.ar      1 UNK         0.0000 
     41 H41         6.3150   57.2354   18.0671 H         1 UNK         0.0000 
     42 H42         7.3476   56.6202   20.2287 H         1 UNK         0.0000 
     43 H43         6.4316   54.7669   21.5515 H         1 UNK         0.0000 
     44 H44         3.4689   54.0793   18.4856 H         1 UNK         0.0000 
     45 H45         4.3852   55.9584   17.2016 H         1 UNK         0.0000 
     46 H46         2.4402   53.6001   20.4037 H         1 UNK         0.0000 
     47 H47         3.7654   50.3101   20.8686 H         1 UNK         0.0000 
     48 H48         2.6162   48.4926   22.0556 H         1 UNK         0.0000 
     49 H49         0.5373   48.9361   23.3065 H         1 UNK         0.0000 
     50 H50         0.7472   53.0759   22.1629 H         1 UNK         0.0000 
     51 H51        -3.0856   53.6973   26.4628 H         1 UNK         0.0000 
     52 H52        -1.9104   52.6989   27.2817 H         1 UNK         0.0000 
     53 H53        -2.4952   50.5037   28.1121 H         1 UNK         0.0000 
     54 H54        -4.2831   48.9397   28.7077 H         1 UNK         0.0000 
     55 H55        -7.0326   51.0998   26.2218 H         1 UNK         0.0000 
     56 H56        -5.2380   52.6887   25.6130 H         1 UNK         0.0000 
     57 H57         0.4014   51.2598   27.2508 H         1 UNK         0.0000 
     58 H58         1.3294   51.3014   29.2582 H         1 UNK         0.0000 
     59 H59         3.0226   52.1851   30.8065 H         1 UNK         0.0000 
     60 H60         4.5731   53.9688   30.0585 H         1 UNK         0.0000 
     61 H61         4.4291   54.8710   27.7726 H         1 UNK         0.0000 
     62 H62         2.7634   54.0205   26.2140 H         1 UNK         0.0000 
@<TRIPOS>BOND
     1    1    6 ar   
     2    1    2 ar   
     3    1   41 1    
     4    2    3 ar   
     5    2   42 1    
     6    3    4 ar   
     7    3   43 1    
     8    4    5 ar   
     9    4    7 1    
    10    5    6 ar   
    11    5   44 1    
    12    6   45 1    
    13    7    8 2    
    14    7    9 am   BACKBONE|DICT|INTERRES
    15    9   10 1    
    16    9   46 1    
    17   10   15 ar   
    18   10   11 ar   
    19   11   12 ar   
    20   11   47 1    
    21   12   13 ar   
    22   12   48 1    
    23   13   14 ar   
    24   13   49 1    
    25   14   15 ar   
    26   14   16 1    
    27   15   50 1    
    28   16   17 1    
    29   16   23 1    
    30   16   18 1    
    31   18   19 1    
    32   18   20 1    
    33   18   32 1    
    34   20   21 am   BACKBONE|DICT|INTERRES
    35   20   24 1    
    36   21   22 2    
    37   21   23 1    
    38   24   25 1    
    39   24   51 1    
    40   24   52 1    
    41   25   30 ar   
    42   25   26 ar   
    43   26   27 ar   
    44   26   53 1    
    45   27   28 ar   
    46   27   54 1    
    47   28   29 ar   
    48   28   31 1    
    49   29   30 ar   
    50   29   55 1    
    51   30   56 1    
    52   32   33 2    
    53   32   34 am   BACKBONE|DICT|INTERRES
    54   34   35 1    
    55   34   57 1    
    56   35   40 ar   
    57   35   36 ar   
    58   36   37 ar   
    59   36   58 1    
    60   37   38 ar   
    61   37   59 1    
    62   38   39 ar   
    63   38   60 1    
    64   39   40 ar   
    65   39   61 1    
    66   40   62 1    
@<TRIPOS>SUBSTRUCTURE
     1 UNK         1 GROUP             0       ****    0 ROOT    
