@<TRIPOS>MOLECULE
ZINC09492092_5072
50   52    1
SMALL
USER_CHARGES


@<TRIPOS>ATOM
      1 C1         -0.0955   53.2049   30.8550 C.ar      1 UNK         0.0000 
      2 C2          0.8488   54.1211   30.4108 C.ar      1 UNK         0.0000 
      3 C3          1.5224   53.8848   29.2176 C.ar      1 UNK         0.0000 
      4 C4          1.2429   52.7385   28.4596 C.ar      1 UNK         0.0000 
      5 C5          0.2412   51.8618   28.8867 C.ar      1 UNK         0.0000 
      6 C6         -0.4281   52.0956   30.0831 C.ar      1 UNK         0.0000 
      7 C7          2.0937   52.3286   27.2561 C.3       1 UNK         0.0000 
      8 N8          2.1246   53.2244   26.0756 N.am      1 UNK         0.0000 
      9 C9          2.9217   54.4544   26.2316 C.3       1 UNK         0.0000 
     10 C10         4.4066   54.3191   26.5124 C.ar      1 UNK         0.0000 
     11 C11         5.3147   54.6551   25.5042 C.ar      1 UNK         0.0000 
     12 C12         6.6736   54.6956   25.7774 C.ar      1 UNK         0.0000 
     13 C13         7.1044   54.4251   27.0705 C.ar      1 UNK         0.0000 
     14 C14         6.2192   54.0839   28.0798 C.ar      1 UNK         0.0000 
     15 C15         4.8639   54.0296   27.8010 C.ar      1 UNK         0.0000 
     16 C16         1.4359   52.8907   24.9421 C.2       1 UNK         0.0000 
     17 O17         0.8908   51.7926   24.8114 O.2       1 UNK         0.0000 
     18 C18         1.2831   53.8701   23.7489 C.3       1 UNK         0.0000 
     19 O19         1.6777   53.2712   22.5055 O.3       1 UNK         0.0000 
     20 C20         2.9906   53.2021   22.1202 C.2       1 UNK         0.0000 
     21 O21         3.9323   53.4233   22.8789 O.2       1 UNK         0.0000 
     22 C22         3.1714   52.8975   20.6664 C.ar      1 UNK         0.0000 
     23 C23         4.1518   53.4607   19.8260 C.ar      1 UNK         0.0000 
     24 C24         4.1074   53.1745   18.4489 C.ar      1 UNK         0.0000 
     25 C25         3.0875   52.3501   17.9409 C.ar      1 UNK         0.0000 
     26 C26         2.1475   51.7949   18.8212 C.ar      1 UNK         0.0000 
     27 Cl27        0.8805   50.7519   18.2775 Cl        1 UNK         0.0000 
     28 Cl28        2.9870   52.0063   16.2416 Cl        1 UNK         0.0000 
     29 N29         5.0756   53.6970   17.5858 N.pl3     1 UNK         0.0000 
     30 Cl30        5.3785   54.5221   20.4561 Cl        1 UNK         0.0000 
     31 H31        -0.5780   53.3485   31.8107 H         1 UNK         0.0000 
     32 H32         1.0829   54.9914   31.0072 H         1 UNK         0.0000 
     33 H33         2.2851   54.5884   28.9404 H         1 UNK         0.0000 
     34 H34         0.0088   50.9675   28.3246 H         1 UNK         0.0000 
     35 H35        -1.1694   51.3914   30.4377 H         1 UNK         0.0000 
     36 H36         3.1071   52.1407   27.6049 H         1 UNK         0.0000 
     37 H37         1.7414   51.3394   26.9628 H         1 UNK         0.0000 
     38 H38         2.8995   55.0772   25.3487 H         1 UNK         0.0000 
     39 H39         2.4919   55.0626   27.0190 H         1 UNK         0.0000 
     40 H40         4.9743   54.9243   24.5169 H         1 UNK         0.0000 
     41 H41         7.3785   54.9577   25.0006 H         1 UNK         0.0000 
     42 H42         8.1496   54.4950   27.3112 H         1 UNK         0.0000 
     43 H43         6.5878   53.8896   29.0755 H         1 UNK         0.0000 
     44 H44         4.1904   53.7880   28.6048 H         1 UNK         0.0000 
     45 H45         0.2230   54.1094   23.6822 H         1 UNK         0.0000 
     46 H46         1.7567   54.8401   23.8503 H         1 UNK         0.0000 
     47 H47         5.6254   52.9871   17.1201 H         1 UNK         0.0000 
     48 H48         5.5684   54.5166   17.9080 H         1 UNK         0.0000 
     49 N49         2.2287   52.0944   20.1304 N.pl3     1 UNK         0.0000 
     50 H50         1.5236   51.7178   20.7490 H         1 UNK         0.0000 
@<TRIPOS>BOND
     1    1    6 ar   
     2    1    2 ar   
     3    1   31 1    
     4    2    3 ar   
     5    2   32 1    
     6    3    4 ar   
     7    3   33 1    
     8    4    5 ar   
     9    4    7 1    
    10    5    6 ar   
    11    5   34 1    
    12    6   35 1    
    13    7    8 1    
    14    7   36 1    
    15    7   37 1    
    16    8    9 1    
    17    8   16 am   BACKBONE|DICT|INTERRES
    18    9   10 1    
    19    9   38 1    
    20    9   39 1    
    21   10   15 ar   
    22   10   11 ar   
    23   11   12 ar   
    24   11   40 1    
    25   12   13 ar   
    26   12   41 1    
    27   13   14 ar   
    28   13   42 1    
    29   14   15 ar   
    30   14   43 1    
    31   15   44 1    
    32   16   17 2    
    33   16   18 1    
    34   18   19 1    
    35   18   45 1    
    36   18   46 1    
    37   19   20 1    
    38   20   21 2    
    39   20   22 1    
    40   22   23 ar   
    41   22   49 ar   
    42   23   24 ar   
    43   23   30 1    
    44   24   25 ar   
    45   24   29 1    
    46   25   26 ar   
    47   25   28 1    
    48   26   27 1    
    49   26   49 ar   
    50   29   47 1    
    51   29   48 1    
    52   49   50 1    
@<TRIPOS>SUBSTRUCTURE
     1 UNK         1 GROUP             0       ****    0 ROOT    
