@<TRIPOS>MOLECULE
ZINC36637282_5699
70   73    1
SMALL
USER_CHARGES


@<TRIPOS>ATOM
      1 C1         -1.1303   51.3519   26.2439 C.3       1 UNK         0.0000 
      2 C2          0.2414   50.8508   26.7393 C.3       1 UNK         0.0000 
      3 C3          1.2358   51.9210   27.2806 C.3       1 UNK         0.0000 
      4 H4          2.1343   51.3787   27.5770 H         1 UNK         0.0000 
      5 C5          0.6596   52.5816   28.5655 C.3       1 UNK         0.0000 
      6 C6          1.5452   53.7099   29.1192 C.3       1 UNK         0.0000 
      7 C7          1.8493   54.7536   28.0364 C.3       1 UNK         0.0000 
      8 C8          2.4908   54.0916   26.8057 C.3       1 UNK         0.0000 
      9 N9          1.7020   52.9467   26.2625 N.pl3     1 UNK         0.0000 
     10 S10         1.4767   52.8104   24.4734 S.o2      1 UNK         0.0000 
     11 O11         0.3758   53.6974   24.0832 O.2       1 UNK         0.0000 
     12 O12         1.4102   51.3976   24.0884 O.2       1 UNK         0.0000 
     13 C13         2.9070   53.4230   23.5720 C.ar      1 UNK         0.0000 
     14 C14         2.7071   53.6118   22.2096 C.ar      1 UNK         0.0000 
     15 C15         3.7311   54.0955   21.4125 C.ar      1 UNK         0.0000 
     16 C16         4.9905   54.3741   21.9487 C.ar      1 UNK         0.0000 
     17 C17         5.1979   54.1561   23.3191 C.ar      1 UNK         0.0000 
     18 C18         4.1603   53.6967   24.1290 C.ar      1 UNK         0.0000 
     19 C19         6.0661   55.0249   21.1012 C.2       1 UNK         0.0000 
     20 O20         6.8933   55.7399   21.6808 O.2       1 UNK         0.0000 
     21 N21         6.0806   54.8087   19.7447 N.am      1 UNK         0.0000 
     22 C22         5.8001   53.4584   19.1895 C.3       1 UNK         0.0000 
     23 C23         5.2885   53.4191   17.7289 C.3       1 UNK         0.0000 
     24 N24         3.7422   53.4780   17.6798 N.4       1 UNK         0.0000 
     25 C25         3.2359   53.9544   16.3018 C.3       1 UNK         0.0000 
     26 C26         3.0975   52.1190   18.0466 C.3       1 UNK         0.0000 
     27 C27         6.9692   55.5972   19.0101 C.2       1 UNK         0.0000 
     28 N28         6.7617   56.8670   18.7746 N.2       1 UNK         0.0000 
     29 C29         7.8312   57.4326   18.1542 C.ar      1 UNK         0.0000 
     30 C30         7.9206   58.7803   17.7783 C.ar      1 UNK         0.0000 
     31 C31         9.0923   59.2223   17.1623 C.ar      1 UNK         0.0000 
     32 C32        10.1644   58.3574   16.9244 C.ar      1 UNK         0.0000 
     33 C33        10.0961   57.0112   17.2951 C.ar      1 UNK         0.0000 
     34 C34         8.9204   56.5544   17.9050 C.ar      1 UNK         0.0000 
     35 S35         8.5109   54.9446   18.4812 S.3       1 UNK         0.0000 
     36 C36        11.4261   58.8905   16.2689 C.3       1 UNK         0.0000 
     37 H37        -1.7205   50.5168   25.8664 H         1 UNK         0.0000 
     38 H38        -1.7077   51.8057   27.0480 H         1 UNK         0.0000 
     39 H39        -1.0537   52.0788   25.4397 H         1 UNK         0.0000 
     40 H40         0.7063   50.2168   25.9888 H         1 UNK         0.0000 
     41 H41         0.0344   50.1487   27.5477 H         1 UNK         0.0000 
     42 H42         0.5608   51.8337   29.3542 H         1 UNK         0.0000 
     43 H43        -0.3206   53.0152   28.3663 H         1 UNK         0.0000 
     44 H44         2.4790   53.2901   29.4977 H         1 UNK         0.0000 
     45 H45         1.0551   54.1851   29.9710 H         1 UNK         0.0000 
     46 H46         2.5161   55.5193   28.4344 H         1 UNK         0.0000 
     47 H47         0.9349   55.2718   27.7476 H         1 UNK         0.0000 
     48 H48         3.4566   53.6895   27.1131 H         1 UNK         0.0000 
     49 H49         2.7043   54.8125   26.0177 H         1 UNK         0.0000 
     50 H50         1.7406   53.4169   21.7659 H         1 UNK         0.0000 
     51 H51         3.5045   54.3021   20.3783 H         1 UNK         0.0000 
     52 H52         6.1582   54.3664   23.7700 H         1 UNK         0.0000 
     53 H53         4.3707   53.5115   25.1686 H         1 UNK         0.0000 
     54 H54         6.7044   52.8670   19.2567 H         1 UNK         0.0000 
     55 H55         5.1090   52.8954   19.8085 H         1 UNK         0.0000 
     56 H56         5.6574   54.2613   17.1409 H         1 UNK         0.0000 
     57 H57         5.5725   52.4977   17.2147 H         1 UNK         0.0000 
     58 H58         3.5718   53.2359   15.5507 H         1 UNK         0.0000 
     59 H59         2.1465   54.0012   16.3474 H         1 UNK         0.0000 
     60 H60         3.6531   54.9469   16.1192 H         1 UNK         0.0000 
     61 H61         3.3789   51.3901   17.2824 H         1 UNK         0.0000 
     62 H62         3.4624   51.8019   19.0229 H         1 UNK         0.0000 
     63 H63         2.0163   52.2606   18.0732 H         1 UNK         0.0000 
     64 H64         7.1030   59.4666   17.9519 H         1 UNK         0.0000 
     65 H65         9.1631   60.2581   16.8619 H         1 UNK         0.0000 
     66 H66        10.9255   56.3403   17.1215 H         1 UNK         0.0000 
     67 H67        12.2970   58.2889   16.5321 H         1 UNK         0.0000 
     68 H68        11.3192   58.9027   15.1835 H         1 UNK         0.0000 
     69 H69        11.6361   59.9066   16.6045 H         1 UNK         0.0000 
     70 H70         3.4421   54.1682   18.3573 H         1 UNK         0.0000 
@<TRIPOS>BOND
     1    1    2 1    
     2    1   37 1    
     3    1   38 1    
     4    1   39 1    
     5    2    3 1    
     6    2   40 1    
     7    2   41 1    
     8    3    4 1    
     9    3    9 1    
    10    3    5 1    
    11    5    6 1    
    12    5   42 1    
    13    5   43 1    
    14    6    7 1    
    15    6   44 1    
    16    6   45 1    
    17    7    8 1    
    18    7   46 1    
    19    7   47 1    
    20    8    9 1    
    21    8   48 1    
    22    8   49 1    
    23    9   10 1    
    24   10   11 2    
    25   10   12 2    
    26   10   13 1    
    27   13   18 ar   
    28   13   14 ar   
    29   14   15 ar   
    30   14   50 1    
    31   15   16 ar   
    32   15   51 1    
    33   16   17 ar   
    34   16   19 1    
    35   17   18 ar   
    36   17   52 1    
    37   18   53 1    
    38   19   20 2    
    39   19   21 am   BACKBONE|DICT|INTERRES
    40   21   22 1    
    41   21   27 am   BACKBONE|DICT|INTERRES
    42   22   23 1    
    43   22   54 1    
    44   22   55 1    
    45   23   24 1    
    46   23   56 1    
    47   23   57 1    
    48   24   25 1    
    49   24   26 1    
    50   24   70 1    
    51   25   58 1    
    52   25   59 1    
    53   25   60 1    
    54   26   61 1    
    55   26   62 1    
    56   26   63 1    
    57   27   35 1    
    58   27   28 2    
    59   28   29 1    
    60   29   34 ar   
    61   29   30 ar   
    62   30   31 ar   
    63   30   64 1    
    64   31   32 ar   
    65   31   65 1    
    66   32   33 ar   
    67   32   36 1    
    68   33   34 ar   
    69   33   66 1    
    70   34   35 1    
    71   36   67 1    
    72   36   68 1    
    73   36   69 1    
@<TRIPOS>SUBSTRUCTURE
     1 UNK         1 GROUP             0       ****    0 ROOT    
