@<TRIPOS>MOLECULE
ZINC44947451_2375
57   60    1
SMALL
USER_CHARGES


@<TRIPOS>ATOM
      1 C1          5.8516   58.0474   15.9200 C.ar      1 UNK         0.0000 
      2 C2          5.5296   56.9877   16.7681 C.ar      1 UNK         0.0000 
      3 C3          6.2896   56.7495   17.9209 C.ar      1 UNK         0.0000 
      4 C4          7.3862   57.5787   18.1948 C.ar      1 UNK         0.0000 
      5 C5          7.7192   58.6408   17.3467 C.ar      1 UNK         0.0000 
      6 C6          6.9376   58.8713   16.2065 C.ar      1 UNK         0.0000 
      7 C7          8.9103   59.5308   17.6891 C.3       1 UNK         0.0000 
      8 F8          8.7163   60.0956   18.8814 F         1 UNK         0.0000 
      9 F9         10.0215   58.7941   17.7488 F         1 UNK         0.0000 
     10 F10         9.1044   60.5016   16.7945 F         1 UNK         0.0000 
     11 C11         5.9126   55.6447   18.8497 C.ar      1 UNK         0.0000 
     12 C12         5.3468   54.4003   18.5394 C.ar      1 UNK         0.0000 
     13 C13         5.1499   53.7503   19.7435 C.ar      1 UNK         0.0000 
     14 N14         5.5958   54.6367   20.7010 N.pl3     1 UNK         0.0000 
     15 N15         6.0868   55.7591   20.1472 N.2       1 UNK         0.0000 
     16 C16         5.5863   54.5185   22.1084 C.ar      1 UNK         0.0000 
     17 C17         6.7045   54.9163   22.8484 C.ar      1 UNK         0.0000 
     18 C18         6.6530   54.8993   24.2352 C.ar      1 UNK         0.0000 
     19 C19         5.4945   54.4982   24.9063 C.ar      1 UNK         0.0000 
     20 C20         4.3798   54.0966   24.1562 C.ar      1 UNK         0.0000 
     21 C21         4.4262   54.0962   22.7634 C.ar      1 UNK         0.0000 
     22 C22         5.4861   54.4959   26.4171 C.2       1 UNK         0.0000 
     23 O23         6.5445   54.5253   27.0502 O.2       1 UNK         0.0000 
     24 N24         4.2786   54.4705   27.0111 N.am      1 UNK         0.0000 
     25 C25         4.0352   54.3644   28.4516 C.3       1 UNK         0.0000 
     26 C26         2.6850   55.0297   28.8172 C.3       1 UNK         0.0000 
     27 C27         1.4318   54.1404   28.7365 C.3       1 UNK         0.0000 
     28 C28         1.1718   53.3110   30.0097 C.3       1 UNK         0.0000 
     29 C29         2.1523   52.1531   30.2703 C.3       1 UNK         0.0000 
     30 C30         3.6531   52.5107   30.2837 C.3       1 UNK         0.0000 
     31 C31         4.2160   52.8957   28.9032 C.3       1 UNK         0.0000 
     32 N32         4.6869   52.4962   20.0190 N.pl3     1 UNK         0.0000 
     33 H33         5.2455   58.2415   15.0472 H         1 UNK         0.0000 
     34 H34         4.6727   56.3670   16.5413 H         1 UNK         0.0000 
     35 H35         7.9830   57.3953   19.0775 H         1 UNK         0.0000 
     36 H36         7.1583   59.6971   15.5465 H         1 UNK         0.0000 
     37 H37         5.1165   54.0120   17.5569 H         1 UNK         0.0000 
     38 H38         7.6075   55.2545   22.3563 H         1 UNK         0.0000 
     39 H39         7.5209   55.2196   24.7875 H         1 UNK         0.0000 
     40 H40         3.4687   53.7658   24.6319 H         1 UNK         0.0000 
     41 H41         3.5474   53.8108   22.2006 H         1 UNK         0.0000 
     42 H42         3.4656   54.5750   26.4295 H         1 UNK         0.0000 
     43 H43         4.8057   54.9667   28.9454 H         1 UNK         0.0000 
     44 H44         2.5279   55.9003   28.1766 H         1 UNK         0.0000 
     45 H45         2.7514   55.4416   29.8232 H         1 UNK         0.0000 
     46 H46         1.4717   53.4945   27.8578 H         1 UNK         0.0000 
     47 H47         0.5660   54.7875   28.5814 H         1 UNK         0.0000 
     48 H48         0.1643   52.8961   29.9558 H         1 UNK         0.0000 
     49 H49         1.1576   53.9740   30.8769 H         1 UNK         0.0000 
     50 H50         1.9786   51.3742   29.5278 H         1 UNK         0.0000 
     51 H51         1.8928   51.6977   31.2283 H         1 UNK         0.0000 
     52 H52         4.2026   51.6402   30.6436 H         1 UNK         0.0000 
     53 H53         3.8655   53.2971   31.0072 H         1 UNK         0.0000 
     54 H54         5.2887   52.6882   28.9132 H         1 UNK         0.0000 
     55 H55         3.8213   52.2155   28.1475 H         1 UNK         0.0000 
     56 H56         4.6986   51.7775   19.2914 H         1 UNK         0.0000 
     57 H57         4.5427   52.1753   20.9644 H         1 UNK         0.0000 
@<TRIPOS>BOND
     1    1    6 ar   
     2    1    2 ar   
     3    1   33 1    
     4    2    3 ar   
     5    2   34 1    
     6    3    4 ar   
     7    3   11 1    
     8    4    5 ar   
     9    4   35 1    
    10    5    6 ar   
    11    5    7 1    
    12    6   36 1    
    13    7    8 1    
    14    7    9 1    
    15    7   10 1    
    16   11   15 ar   
    17   11   12 ar   
    18   12   13 ar   
    19   12   37 1    
    20   13   14 ar   
    21   13   32 1    
    22   14   15 ar   
    23   14   16 1    
    24   16   21 ar   
    25   16   17 ar   
    26   17   18 ar   
    27   17   38 1    
    28   18   19 ar   
    29   18   39 1    
    30   19   20 ar   
    31   19   22 1    
    32   20   21 ar   
    33   20   40 1    
    34   21   41 1    
    35   22   23 2    
    36   22   24 am   BACKBONE|DICT|INTERRES
    37   24   25 1    
    38   24   42 1    
    39   25   31 1    
    40   25   26 1    
    41   25   43 1    
    42   26   27 1    
    43   26   44 1    
    44   26   45 1    
    45   27   28 1    
    46   27   46 1    
    47   27   47 1    
    48   28   29 1    
    49   28   48 1    
    50   28   49 1    
    51   29   30 1    
    52   29   50 1    
    53   29   51 1    
    54   30   31 1    
    55   30   52 1    
    56   30   53 1    
    57   31   54 1    
    58   31   55 1    
    59   32   56 1    
    60   32   57 1    
@<TRIPOS>SUBSTRUCTURE
     1 UNK         1 GROUP             0       ****    0 ROOT    
