@<TRIPOS>MOLECULE
ZINC32522632_5794
60   63    1
SMALL
USER_CHARGES


@<TRIPOS>ATOM
      1 C1          0.1153   53.5968   31.0718 C.3       1 UNK         0.0000 
      2 C2          0.0033   52.5698   29.9337 C.3       1 UNK         0.0000 
      3 O3          0.8498   52.9048   28.8372 O.3       1 UNK         0.0000 
      4 C4          2.1916   52.6840   28.8820 C.2       1 UNK         0.0000 
      5 O5          2.7727   52.1547   29.8341 O.2       1 UNK         0.0000 
      6 C6          2.8688   53.1938   27.6699 C.2       1 UNK         0.0000 
      7 C7          4.2258   53.6180   27.6287 C.2       1 UNK         0.0000 
      8 C8          4.6271   54.0917   26.3688 C.2       1 UNK         0.0000 
      9 S9          3.3518   54.0584   25.2198 S.3       1 UNK         0.0000 
     10 C10         2.2955   53.3023   26.3840 C.2       1 UNK         0.0000 
     11 N11         1.0221   52.8554   26.0477 N.am      1 UNK         0.0000 
     12 C12         0.3766   52.8919   24.8651 C.2       1 UNK         0.0000 
     13 O13         0.8533   53.2940   23.8045 O.2       1 UNK         0.0000 
     14 C14        -1.0800   52.4092   24.9460 C.3       1 UNK         0.0000 
     15 S15        -2.1137   52.8908   23.5128 S.3       1 UNK         0.0000 
     16 C16        -1.9913   51.4877   22.3723 C.ar      1 UNK         0.0000 
     17 N17        -1.4482   50.4083   22.8117 N.2       1 UNK         0.0000 
     18 C18        -1.3618   49.3261   22.0379 C.ar      1 UNK         0.0000 
     19 O19        -0.8957   48.2449   22.3911 O.2       1 UNK         0.0000 
     20 C20        -1.8658   49.4374   20.6499 C.ar      1 UNK         0.0000 
     21 C21        -2.4186   50.6456   20.3076 C.ar      1 UNK         0.0000 
     22 N22        -2.4880   51.6946   21.1941 N.ar      1 UNK         0.0000 
     23 C23        -2.9661   51.0251   18.9400 C.3       1 UNK         0.0000 
     24 C24        -1.7978   48.2022   19.7347 C.3       1 UNK         0.0000 
     25 C25        -0.4635   47.8992   19.0483 C.ar      1 UNK         0.0000 
     26 C26         0.7193   48.5905   19.3561 C.ar      1 UNK         0.0000 
     27 C27         1.9027   48.2813   18.6896 C.ar      1 UNK         0.0000 
     28 C28         1.9047   47.2858   17.7158 C.ar      1 UNK         0.0000 
     29 C29         0.7413   46.5877   17.4070 C.ar      1 UNK         0.0000 
     30 C30        -0.4408   46.8976   18.0732 C.ar      1 UNK         0.0000 
     31 C31         6.0336   54.5030   25.9749 C.3       1 UNK         0.0000 
     32 C32         6.8568   54.7322   27.2489 C.3       1 UNK         0.0000 
     33 C33         6.6705   53.6141   28.2764 C.3       1 UNK         0.0000 
     34 C34         5.2212   53.5390   28.7899 C.3       1 UNK         0.0000 
     35 H35        -0.4985   53.2970   31.9187 H         1 UNK         0.0000 
     36 H36         1.1349   53.6776   31.4382 H         1 UNK         0.0000 
     37 H37        -0.2021   54.5867   30.7466 H         1 UNK         0.0000 
     38 H38        -1.0245   52.5396   29.5732 H         1 UNK         0.0000 
     39 H39         0.2273   51.5678   30.2945 H         1 UNK         0.0000 
     40 H40         0.5135   52.4565   26.8242 H         1 UNK         0.0000 
     41 H41        -1.1063   51.3379   25.1403 H         1 UNK         0.0000 
     42 H42        -1.5402   52.8867   25.8121 H         1 UNK         0.0000 
     43 H43        -4.0579   51.0393   18.9688 H         1 UNK         0.0000 
     44 H44        -2.6193   52.0179   18.6465 H         1 UNK         0.0000 
     45 H45        -2.6490   50.3343   18.1569 H         1 UNK         0.0000 
     46 H46        -2.0879   47.3160   20.3032 H         1 UNK         0.0000 
     47 H47        -2.5613   48.2930   18.9628 H         1 UNK         0.0000 
     48 H48         0.7362   49.3755   20.0992 H         1 UNK         0.0000 
     49 H49         2.8132   48.8206   18.9122 H         1 UNK         0.0000 
     50 H50         2.8242   47.0659   17.1906 H         1 UNK         0.0000 
     51 H51         0.7559   45.8203   16.6466 H         1 UNK         0.0000 
     52 H52        -1.3450   46.3621   17.8238 H         1 UNK         0.0000 
     53 H53         6.0336   55.3975   25.3517 H         1 UNK         0.0000 
     54 H54         6.4942   53.7055   25.3891 H         1 UNK         0.0000 
     55 H55         6.5948   55.6960   27.6816 H         1 UNK         0.0000 
     56 H56         7.9044   54.7757   26.9927 H         1 UNK         0.0000 
     57 H57         7.3528   53.7587   29.1135 H         1 UNK         0.0000 
     58 H58         6.9498   52.6605   27.8224 H         1 UNK         0.0000 
     59 H59         5.1156   52.6067   29.3424 H         1 UNK         0.0000 
     60 H60         5.0288   54.3491   29.4955 H         1 UNK         0.0000 
@<TRIPOS>BOND
     1    1    2 1    
     2    1   35 1    
     3    1   36 1    
     4    1   37 1    
     5    2    3 1    
     6    2   38 1    
     7    2   39 1    
     8    3    4 1    
     9    4    5 2    
    10    4    6 1    
    11    6   10 2    
    12    6    7 1    
    13    7   34 1    
    14    7    8 2    
    15    8    9 1    
    16    8   31 1    
    17    9   10 1    
    18   10   11 am   BACKBONE|DICT|INTERRES
    19   11   12 am   BACKBONE|DICT|INTERRES
    20   11   40 1    
    21   12   13 2    
    22   12   14 1    
    23   14   41 1    
    24   14   42 1    
    25   14   15 1    
    26   15   16 1    
    27   16   22 ar   
    28   16   17 ar   
    29   17   18 ar   
    30   18   19 2    
    31   18   20 ar   
    32   20   24 1    
    33   20   21 ar   
    34   21   22 ar   
    35   21   23 1    
    36   23   43 1    
    37   23   44 1    
    38   23   45 1    
    39   24   25 1    
    40   24   46 1    
    41   24   47 1    
    42   25   30 ar   
    43   25   26 ar   
    44   26   27 ar   
    45   26   48 1    
    46   27   28 ar   
    47   27   49 1    
    48   28   29 ar   
    49   28   50 1    
    50   29   30 ar   
    51   29   51 1    
    52   30   52 1    
    53   31   32 1    
    54   31   53 1    
    55   31   54 1    
    56   32   33 1    
    57   32   55 1    
    58   32   56 1    
    59   33   34 1    
    60   33   57 1    
    61   33   58 1    
    62   34   59 1    
    63   34   60 1    
@<TRIPOS>SUBSTRUCTURE
     1 UNK         1 GROUP             0       ****    0 ROOT    
