@<TRIPOS>MOLECULE
ZINC19961973_876
72   75    1
SMALL
USER_CHARGES


@<TRIPOS>ATOM
      1 C1          5.4112   54.4818   20.5063 C.3       1 UNK         0.0000 
      2 C2          5.0792   54.3629   21.9835 C.ar      1 UNK         0.0000 
      3 C3          3.7634   54.1252   22.3733 C.ar      1 UNK         0.0000 
      4 C4          3.4289   54.0655   23.7225 C.ar      1 UNK         0.0000 
      5 C5          4.4111   54.2211   24.7193 C.ar      1 UNK         0.0000 
      6 C6          5.7456   54.4414   24.3230 C.ar      1 UNK         0.0000 
      7 C7          6.0690   54.5010   22.9603 C.ar      1 UNK         0.0000 
      8 C8          6.8575   54.6260   25.3500 C.3       1 UNK         0.0000 
      9 N9          4.1370   54.1664   26.1080 N.am      1 UNK         0.0000 
     10 C10         2.9770   53.9200   26.7515 C.2       1 UNK         0.0000 
     11 O11         1.9084   53.6963   26.1907 O.2       1 UNK         0.0000 
     12 C12         3.0217   53.9236   28.2891 C.3       1 UNK         0.0000 
     13 C13         2.2212   52.7476   28.9318 C.3       1 UNK         0.0000 
     14 H14         2.5796   51.8569   28.4213 H         1 UNK         0.0000 
     15 C15         2.7546   52.4468   30.3632 C.2       1 UNK         0.0000 
     16 O16         3.9069   52.0994   30.5945 O.2       1 UNK         0.0000 
     17 N17         1.8587   52.4962   31.3712 N.am      1 UNK         0.0000 
     18 C18         0.4325   52.8526   31.2601 C.3       1 UNK         0.0000 
     19 C19         0.1503   53.6276   29.9543 C.3       1 UNK         0.0000 
     20 N20         0.7353   52.8336   28.8669 N.am      1 UNK         0.0000 
     21 C21        -0.0290   51.8763   28.2686 C.2       1 UNK         0.0000 
     22 O22        -1.2170   51.6983   28.5507 O.2       1 UNK         0.0000 
     23 C23         0.6235   50.9950   27.1898 C.3       1 UNK         0.0000 
     24 N24        -0.3880   50.0649   26.4807 N.4       1 UNK         0.0000 
     25 C25        -1.2550   50.8156   25.4400 C.3       1 UNK         0.0000 
     26 C26        -2.1418   49.8076   24.6647 C.3       1 UNK         0.0000 
     27 N27        -1.4206   48.6635   24.0803 N.pl3     1 UNK         0.0000 
     28 C28        -0.5807   48.0026   25.0896 C.3       1 UNK         0.0000 
     29 C29         0.4115   48.9687   25.7580 C.3       1 UNK         0.0000 
     30 C30        -0.9733   48.6980   22.7689 C.ar      1 UNK         0.0000 
     31 C31        -1.5926   47.8754   21.8258 C.ar      1 UNK         0.0000 
     32 C32        -1.1129   47.8204   20.5191 C.ar      1 UNK         0.0000 
     33 C33        -0.0027   48.5711   20.1384 C.ar      1 UNK         0.0000 
     34 C34         0.5995   49.4249   21.0744 C.ar      1 UNK         0.0000 
     35 C35         0.1096   49.4942   22.3758 C.ar      1 UNK         0.0000 
     36 O36         0.4309   48.4113   18.8383 O.3       1 UNK         0.0000 
     37 C37         1.6882   48.9607   18.4526 C.3       1 UNK         0.0000 
     38 H38         4.7226   53.8906   19.9003 H         1 UNK         0.0000 
     39 H39         6.4086   54.1129   20.2838 H         1 UNK         0.0000 
     40 H40         5.3548   55.5211   20.1831 H         1 UNK         0.0000 
     41 H41         2.9873   54.0171   21.6289 H         1 UNK         0.0000 
     42 H42         2.3899   53.9024   23.9482 H         1 UNK         0.0000 
     43 H43         7.0911   54.6817   22.6576 H         1 UNK         0.0000 
     44 H44         6.9601   53.7295   25.9626 H         1 UNK         0.0000 
     45 H45         7.8185   54.8336   24.8851 H         1 UNK         0.0000 
     46 H46         6.6233   55.4576   26.0144 H         1 UNK         0.0000 
     47 H47         4.9466   54.3132   26.6919 H         1 UNK         0.0000 
     48 H48         4.0675   53.9068   28.6044 H         1 UNK         0.0000 
     49 H49         2.6190   54.8800   28.6264 H         1 UNK         0.0000 
     50 H50         2.2047   52.2602   32.2924 H         1 UNK         0.0000 
     51 H51        -0.1554   51.9327   31.2830 H         1 UNK         0.0000 
     52 H52         0.1458   53.4588   32.1203 H         1 UNK         0.0000 
     53 H53        -0.8880   53.9033   29.7761 H         1 UNK         0.0000 
     54 H54         0.6915   54.5738   29.9912 H         1 UNK         0.0000 
     55 H55         1.1086   51.5360   26.3869 H         1 UNK         0.0000 
     56 H56         1.3532   50.3440   27.6656 H         1 UNK         0.0000 
     57 H57        -1.8819   51.4992   26.0143 H         1 UNK         0.0000 
     58 H58        -0.5914   51.3810   24.7839 H         1 UNK         0.0000 
     59 H59        -2.8348   49.3580   25.3787 H         1 UNK         0.0000 
     60 H60        -2.7440   50.3129   23.9080 H         1 UNK         0.0000 
     61 H61        -0.0481   47.1583   24.6531 H         1 UNK         0.0000 
     62 H62        -1.2470   47.5979   25.8556 H         1 UNK         0.0000 
     63 H63         1.1084   49.4293   25.0603 H         1 UNK         0.0000 
     64 H64         0.9816   48.4909   26.5471 H         1 UNK         0.0000 
     65 H65        -2.4407   47.2657   22.1108 H         1 UNK         0.0000 
     66 H66        -1.5904   47.1718   19.7988 H         1 UNK         0.0000 
     67 H67         1.4506   50.0330   20.8090 H         1 UNK         0.0000 
     68 H68         0.5942   50.1558   23.0758 H         1 UNK         0.0000 
     69 H69         1.8950   48.6752   17.4219 H         1 UNK         0.0000 
     70 H70         1.6828   50.0515   18.4938 H         1 UNK         0.0000 
     71 H71         2.5037   48.5811   19.0709 H         1 UNK         0.0000 
     72 H72        -0.9729   49.5921   27.1770 H         1 UNK         0.0000 
@<TRIPOS>BOND
     1    1    2 1    
     2    1   38 1    
     3    1   39 1    
     4    1   40 1    
     5    2    7 ar   
     6    2    3 ar   
     7    3    4 ar   
     8    3   41 1    
     9    4    5 ar   
    10    4   42 1    
    11    5    6 ar   
    12    5    9 1    
    13    6    7 ar   
    14    6    8 1    
    15    7   43 1    
    16    8   44 1    
    17    8   45 1    
    18    8   46 1    
    19    9   10 am   BACKBONE|DICT|INTERRES
    20    9   47 1    
    21   10   11 2    
    22   10   12 1    
    23   12   13 1    
    24   12   48 1    
    25   12   49 1    
    26   13   14 1    
    27   13   20 1    
    28   13   15 1    
    29   15   16 2    
    30   15   17 am   BACKBONE|DICT|INTERRES
    31   17   18 1    
    32   17   50 1    
    33   18   19 1    
    34   18   51 1    
    35   18   52 1    
    36   19   20 1    
    37   19   53 1    
    38   19   54 1    
    39   20   21 am   BACKBONE|DICT|INTERRES
    40   21   22 2    
    41   21   23 1    
    42   23   24 1    
    43   23   55 1    
    44   23   56 1    
    45   24   29 1    
    46   24   25 1    
    47   24   72 1    
    48   25   26 1    
    49   25   57 1    
    50   25   58 1    
    51   26   27 1    
    52   26   59 1    
    53   26   60 1    
    54   27   28 1    
    55   27   30 1    
    56   28   29 1    
    57   28   61 1    
    58   28   62 1    
    59   29   63 1    
    60   29   64 1    
    61   30   35 ar   
    62   30   31 ar   
    63   31   32 ar   
    64   31   65 1    
    65   32   33 ar   
    66   32   66 1    
    67   33   34 ar   
    68   33   36 1    
    69   34   35 ar   
    70   34   67 1    
    71   35   68 1    
    72   36   37 1    
    73   37   69 1    
    74   37   70 1    
    75   37   71 1    
@<TRIPOS>SUBSTRUCTURE
     1 UNK         1 GROUP             0       ****    0 ROOT    
