@<TRIPOS>MOLECULE
ZINC64820700_5978
52   54    1
SMALL
USER_CHARGES


@<TRIPOS>ATOM
      1 C1         -5.1260   53.0657   26.0782 C.3       1 UNK         0.0000 
      2 C2         -4.6770   52.2624   24.8551 C.3       1 UNK         0.0000 
      3 O3         -3.2804   52.0225   24.9470 O.3       1 UNK         0.0000 
      4 C4         -2.6148   51.4187   23.9368 C.2       1 UNK         0.0000 
      5 O5         -3.1216   51.0267   22.8821 O.2       1 UNK         0.0000 
      6 C6         -1.1034   51.3068   24.2229 C.3       1 UNK         0.0000 
      7 H7         -1.0074   50.7428   25.1502 H         1 UNK         0.0000 
      8 C8         -0.3552   50.5458   23.1027 C.3       1 UNK         0.0000 
      9 C9          1.1512   50.5854   23.3886 C.3       1 UNK         0.0000 
     10 C10         1.6305   52.0440   23.5575 C.3       1 UNK         0.0000 
     11 N11         0.9420   52.7447   24.6556 N.pl3     1 UNK         0.0000 
     12 C12        -0.5081   52.7315   24.3905 C.3       1 UNK         0.0000 
     13 C13         1.4859   52.8114   25.9450 C.ar      1 UNK         0.0000 
     14 C14         0.7733   52.2492   27.0167 C.ar      1 UNK         0.0000 
     15 C15         1.2891   52.2342   28.3089 C.ar      1 UNK         0.0000 
     16 C16         2.5240   52.8228   28.5809 C.ar      1 UNK         0.0000 
     17 C17         3.2329   53.4235   27.5368 C.ar      1 UNK         0.0000 
     18 C18         2.7523   53.3960   26.2137 C.ar      1 UNK         0.0000 
     19 N19         3.4911   53.9544   25.1400 N.am      1 UNK         0.0000 
     20 C20         4.8288   54.1442   25.0197 C.2       1 UNK         0.0000 
     21 O21         5.6284   54.0958   25.9561 O.2       1 UNK         0.0000 
     22 C22         5.3412   54.4339   23.6217 C.ar      1 UNK         0.0000 
     23 C23         6.6278   54.9704   23.4554 C.ar      1 UNK         0.0000 
     24 C24         7.1042   55.2967   22.1887 C.ar      1 UNK         0.0000 
     25 C25         6.3045   55.0753   21.0732 C.ar      1 UNK         0.0000 
     26 C26         5.0470   54.4958   21.2094 C.ar      1 UNK         0.0000 
     27 C27         4.5667   54.1740   22.4760 C.ar      1 UNK         0.0000 
     28 Br28        6.9504   55.5540   19.3501 Br        1 UNK         0.0000 
     29 C29         3.0862   52.7965   29.9603 C.2       1 UNK         0.0000 
     30 O30         3.5047   53.8730   30.4377 O.co2     1 UNK         0.0000 
     31 O31         3.1055   51.6981   30.5563 O.co2     1 UNK         0.0000 
     32 H32        -6.1926   53.2854   26.0270 H         1 UNK         0.0000 
     33 H33        -4.9432   52.5081   26.9982 H         1 UNK         0.0000 
     34 H34        -4.5908   54.0134   26.1467 H         1 UNK         0.0000 
     35 H35        -4.9047   52.8210   23.9458 H         1 UNK         0.0000 
     36 H36        -5.2170   51.3156   24.8050 H         1 UNK         0.0000 
     37 H37        -0.5354   51.0052   22.1279 H         1 UNK         0.0000 
     38 H38        -0.6890   49.5084   23.0449 H         1 UNK         0.0000 
     39 H39         1.6933   50.1186   22.5653 H         1 UNK         0.0000 
     40 H40         1.4020   49.9981   24.2738 H         1 UNK         0.0000 
     41 H41         1.4441   52.5965   22.6348 H         1 UNK         0.0000 
     42 H42         2.7045   52.0525   23.6990 H         1 UNK         0.0000 
     43 H43        -1.0531   53.2969   25.1443 H         1 UNK         0.0000 
     44 H44        -0.6646   53.2947   23.4687 H         1 UNK         0.0000 
     45 H45        -0.1863   51.7825   26.8593 H         1 UNK         0.0000 
     46 H46         0.7216   51.7603   29.0990 H         1 UNK         0.0000 
     47 H47         4.1732   53.8944   27.7800 H         1 UNK         0.0000 
     48 H48         2.9476   54.0663   24.2985 H         1 UNK         0.0000 
     49 H49         7.2641   55.1626   24.3081 H         1 UNK         0.0000 
     50 H50         8.0893   55.7260   22.0769 H         1 UNK         0.0000 
     51 H51         4.4369   54.3127   20.3363 H         1 UNK         0.0000 
     52 H52         3.5787   53.7476   22.5386 H         1 UNK         0.0000 
@<TRIPOS>BOND
     1    1    2 1    
     2    1   32 1    
     3    1   33 1    
     4    1   34 1    
     5    2    3 1    
     6    2   35 1    
     7    2   36 1    
     8    3    4 1    
     9    4    5 2    
    10    4    6 1    
    11    6    7 1    
    12    6   12 1    
    13    6    8 1    
    14    8    9 1    
    15    8   37 1    
    16    8   38 1    
    17    9   10 1    
    18    9   39 1    
    19    9   40 1    
    20   10   11 1    
    21   10   41 1    
    22   10   42 1    
    23   11   12 1    
    24   11   13 1    
    25   12   43 1    
    26   12   44 1    
    27   13   18 ar   
    28   13   14 ar   
    29   14   15 ar   
    30   14   45 1    
    31   15   16 ar   
    32   15   46 1    
    33   16   17 ar   
    34   16   29 1    
    35   17   18 ar   
    36   17   47 1    
    37   18   19 1    
    38   19   20 am   BACKBONE|DICT|INTERRES
    39   19   48 1    
    40   20   21 2    
    41   20   22 1    
    42   22   27 ar   
    43   22   23 ar   
    44   23   24 ar   
    45   23   49 1    
    46   24   25 ar   
    47   24   50 1    
    48   25   26 ar   
    49   25   28 1    
    50   26   27 ar   
    51   26   51 1    
    52   27   52 1    
    53   29   30 2    
    54   29   31 1    
@<TRIPOS>SUBSTRUCTURE
     1 UNK         1 GROUP             0       ****    0 ROOT    
