@<TRIPOS>MOLECULE
ZINC35749677_942
71   74    1
SMALL
USER_CHARGES


@<TRIPOS>ATOM
      1 C1         -5.5296   44.9198   26.0754 C.3       1 UNK         0.0000 
      2 C2         -4.6628   46.1467   25.8578 C.ar      1 UNK         0.0000 
      3 C3         -5.2388   47.3325   25.4009 C.ar      1 UNK         0.0000 
      4 C4         -4.4524   48.4724   25.2410 C.ar      1 UNK         0.0000 
      5 C5         -3.0783   48.4355   25.5169 C.ar      1 UNK         0.0000 
      6 C6         -2.5054   47.2214   25.9267 C.ar      1 UNK         0.0000 
      7 C7         -3.2954   46.0963   26.1216 C.ar      1 UNK         0.0000 
      8 C8         -2.2457   49.6932   25.3829 C.2       1 UNK         0.0000 
      9 O9         -2.6354   50.6170   24.6659 O.2       1 UNK         0.0000 
     10 N10        -1.0897   49.7141   26.0817 N.am      1 UNK         0.0000 
     11 C11        -0.0560   50.7658   26.1943 C.3       1 UNK         0.0000 
     12 H12         0.8171   50.1862   26.4627 H         1 UNK         0.0000 
     13 C13         0.2905   51.4749   24.8456 C.3       1 UNK         0.0000 
     14 C14         1.3732   52.5743   24.9093 C.3       1 UNK         0.0000 
     15 C15         1.3890   53.3474   23.5748 C.3       1 UNK         0.0000 
     16 N16         1.7469   52.3564   22.5129 N.pl3     1 UNK         0.0000 
     17 C17         0.8243   51.1840   22.4051 C.3       1 UNK         0.0000 
     18 C18         0.8106   50.4919   23.7832 C.3       1 UNK         0.0000 
     19 C19         2.8611   52.5234   21.7036 C.2       1 UNK         0.0000 
     20 S20         3.1044   51.6318   20.2983 S.2       1 UNK         0.0000 
     21 N21         3.7552   53.4718   22.1371 N.pl3     1 UNK         0.0000 
     22 C22         4.8428   54.1272   21.5284 C.ar      1 UNK         0.0000 
     23 C23         4.8351   54.5118   20.1797 C.ar      1 UNK         0.0000 
     24 C24         5.8778   55.2831   19.6720 C.ar      1 UNK         0.0000 
     25 C25         6.9125   55.6845   20.5098 C.ar      1 UNK         0.0000 
     26 C26         6.9340   55.2964   21.8466 C.ar      1 UNK         0.0000 
     27 C27         5.9042   54.5043   22.3556 C.ar      1 UNK         0.0000 
     28 F28         7.9048   56.4580   20.0199 F         1 UNK         0.0000 
     29 C29        -0.4206   51.7772   27.3183 C.2       1 UNK         0.0000 
     30 O30        -1.4553   52.4219   27.1439 O.2       1 UNK         0.0000 
     31 N31         0.4075   51.9947   28.3888 N.am      1 UNK         0.0000 
     32 C32         1.7469   51.3927   28.5590 C.3       1 UNK         0.0000 
     33 C33         2.8035   52.5050   28.3878 C.3       1 UNK         0.0000 
     34 C34         2.5734   53.6599   29.3732 C.3       1 UNK         0.0000 
     35 C35         1.1151   54.1591   29.3124 C.3       1 UNK         0.0000 
     36 C36         0.0585   53.0231   29.4074 C.3       1 UNK         0.0000 
     37 H37        -0.8929   53.4807   29.1527 H         1 UNK         0.0000 
     38 C38        -0.1463   52.4851   30.8368 C.3       1 UNK         0.0000 
     39 H39        -4.9471   44.0531   26.3981 H         1 UNK         0.0000 
     40 H40        -6.2880   45.1242   26.8323 H         1 UNK         0.0000 
     41 H41        -6.0500   44.6572   25.1531 H         1 UNK         0.0000 
     42 H42        -6.2972   47.3823   25.1917 H         1 UNK         0.0000 
     43 H43        -4.9248   49.3880   24.9113 H         1 UNK         0.0000 
     44 H44        -1.4504   47.1476   26.1562 H         1 UNK         0.0000 
     45 H45        -2.8417   45.1941   26.5086 H         1 UNK         0.0000 
     46 H46        -1.0303   49.0032   26.8087 H         1 UNK         0.0000 
     47 H47        -0.6273   51.9497   24.4948 H         1 UNK         0.0000 
     48 H48         1.1314   53.2859   25.6996 H         1 UNK         0.0000 
     49 H49         2.3495   52.1835   25.1918 H         1 UNK         0.0000 
     50 H50         0.3905   53.7270   23.3524 H         1 UNK         0.0000 
     51 H51         2.0310   54.2278   23.6420 H         1 UNK         0.0000 
     52 H52        -0.1677   51.5602   22.1501 H         1 UNK         0.0000 
     53 H53         1.0807   50.4516   21.6427 H         1 UNK         0.0000 
     54 H54         1.7663   50.0449   24.0745 H         1 UNK         0.0000 
     55 H55         0.1407   49.6340   23.7123 H         1 UNK         0.0000 
     56 H56         3.7116   53.6564   23.1279 H         1 UNK         0.0000 
     57 H57         4.0062   54.2695   19.5306 H         1 UNK         0.0000 
     58 H58         5.8697   55.5934   18.6371 H         1 UNK         0.0000 
     59 H59         7.7480   55.6157   22.4808 H         1 UNK         0.0000 
     60 H60         5.9217   54.2275   23.3983 H         1 UNK         0.0000 
     61 H61         1.9494   50.4822   28.0088 H         1 UNK         0.0000 
     62 H62         1.7791   51.0393   29.5868 H         1 UNK         0.0000 
     63 H63         2.8034   52.8736   27.3629 H         1 UNK         0.0000 
     64 H64         3.8024   52.0957   28.5434 H         1 UNK         0.0000 
     65 H65         3.2627   54.4786   29.1616 H         1 UNK         0.0000 
     66 H66         2.7976   53.3163   30.3821 H         1 UNK         0.0000 
     67 H67         0.9745   54.6779   28.3620 H         1 UNK         0.0000 
     68 H68         0.9383   54.9139   30.0795 H         1 UNK         0.0000 
     69 H69        -0.4864   53.2771   31.5062 H         1 UNK         0.0000 
     70 H70         0.7748   52.0997   31.2715 H         1 UNK         0.0000 
     71 H71        -0.8962   51.6903   30.8707 H         1 UNK         0.0000 
@<TRIPOS>BOND
     1    1    2 1    
     2    1   39 1    
     3    1   40 1    
     4    1   41 1    
     5    2    7 ar   
     6    2    3 ar   
     7    3    4 ar   
     8    3   42 1    
     9    4    5 ar   
    10    4   43 1    
    11    5    6 ar   
    12    5    8 1    
    13    6    7 ar   
    14    6   44 1    
    15    7   45 1    
    16    8    9 2    
    17    8   10 am   BACKBONE|DICT|INTERRES
    18   10   11 1    
    19   10   46 1    
    20   11   12 1    
    21   11   13 1    
    22   11   29 1    
    23   13   18 1    
    24   13   14 1    
    25   13   47 1    
    26   14   15 1    
    27   14   48 1    
    28   14   49 1    
    29   15   16 1    
    30   15   50 1    
    31   15   51 1    
    32   16   17 1    
    33   16   19 1    
    34   17   18 1    
    35   17   52 1    
    36   17   53 1    
    37   18   54 1    
    38   18   55 1    
    39   19   20 2    
    40   19   21 1    
    41   21   22 1    
    42   21   56 1    
    43   22   27 ar   
    44   22   23 ar   
    45   23   24 ar   
    46   23   57 1    
    47   24   25 ar   
    48   24   58 1    
    49   25   26 ar   
    50   25   28 1    
    51   26   27 ar   
    52   26   59 1    
    53   27   60 1    
    54   29   30 2    
    55   29   31 am   BACKBONE|DICT|INTERRES
    56   31   36 1    
    57   31   32 1    
    58   32   33 1    
    59   32   61 1    
    60   32   62 1    
    61   33   34 1    
    62   33   63 1    
    63   33   64 1    
    64   34   35 1    
    65   34   65 1    
    66   34   66 1    
    67   35   36 1    
    68   35   67 1    
    69   35   68 1    
    70   36   37 1    
    71   36   38 1    
    72   38   69 1    
    73   38   70 1    
    74   38   71 1    
@<TRIPOS>SUBSTRUCTURE
     1 UNK         1 GROUP             0       ****    0 ROOT    
