@<TRIPOS>MOLECULE
ZINC36743848_4722
33   35    1
SMALL
USER_CHARGES


@<TRIPOS>ATOM
      1 C1          1.6361   53.2786   27.4250 C.ar      1 UNK         0.0000 
      2 C2          2.8412   53.8343   26.9875 C.ar      1 UNK         0.0000 
      3 C3          3.9768   53.8123   27.8152 C.ar      1 UNK         0.0000 
      4 C4          3.8619   53.2723   29.0979 C.ar      1 UNK         0.0000 
      5 C5          2.6562   52.7335   29.5419 C.ar      1 UNK         0.0000 
      6 C6          1.5452   52.7248   28.7006 C.ar      1 UNK         0.0000 
      7 Cl7         2.5419   52.0967   31.1404 Cl        1 UNK         0.0000 
      8 N8          5.2283   54.3687   27.4728 N.am      1 UNK         0.0000 
      9 C9          5.7975   54.6190   26.2735 C.2       1 UNK         0.0000 
     10 O10         6.8183   55.2968   26.2366 O.2       1 UNK         0.0000 
     11 N11         5.1984   54.0973   25.1814 N.am      1 UNK         0.0000 
     12 C12         5.4373   54.3624   23.8113 C.ar      1 UNK         0.0000 
     13 C13         6.6634   54.8873   23.3386 C.ar      1 UNK         0.0000 
     14 C14         6.7853   55.1578   21.9814 C.ar      1 UNK         0.0000 
     15 C15         5.7761   54.9000   21.1036 C.ar      1 UNK         0.0000 
     16 C16         4.5654   54.3636   21.5160 C.ar      1 UNK         0.0000 
     17 C17         4.3937   54.0963   22.8821 C.ar      1 UNK         0.0000 
     18 N18         3.1481   53.5913   23.2717 N.pl3     1 UNK         0.0000 
     19 O19         6.1516   55.2876   19.8584 O.3       1 UNK         0.0000 
     20 C20         7.5070   55.6358   19.9516 C.3       1 UNK         0.0000 
     21 O21         7.8369   55.6989   21.3130 O.3       1 UNK         0.0000 
     22 H22         0.7680   53.2909   26.7843 H         1 UNK         0.0000 
     23 H23         2.8586   54.3066   26.0188 H         1 UNK         0.0000 
     24 H24         4.7048   53.2705   29.7661 H         1 UNK         0.0000 
     25 H25         0.6094   52.3053   29.0424 H         1 UNK         0.0000 
     26 H26         5.8007   54.6263   28.2641 H         1 UNK         0.0000 
     27 H27         4.4261   53.4808   25.3678 H         1 UNK         0.0000 
     28 H28         7.5013   55.0887   23.9863 H         1 UNK         0.0000 
     29 H29         3.7694   54.1819   20.8066 H         1 UNK         0.0000 
     30 H30         2.4464   53.4355   22.5628 H         1 UNK         0.0000 
     31 H31         2.9710   53.3441   24.2315 H         1 UNK         0.0000 
     32 H32         8.1104   54.8642   19.4740 H         1 UNK         0.0000 
     33 H33         7.6845   56.5964   19.4678 H         1 UNK         0.0000 
@<TRIPOS>BOND
     1    1    6 ar   
     2    1    2 ar   
     3    1   22 1    
     4    2    3 ar   
     5    2   23 1    
     6    3    4 ar   
     7    3    8 1    
     8    4    5 ar   
     9    4   24 1    
    10    5    6 ar   
    11    5    7 1    
    12    6   25 1    
    13    8    9 am   BACKBONE|DICT|INTERRES
    14    8   26 1    
    15    9   10 2    
    16    9   11 am   BACKBONE|DICT|INTERRES
    17   11   12 1    
    18   11   27 1    
    19   12   17 ar   
    20   12   13 ar   
    21   13   14 ar   
    22   13   28 1    
    23   14   21 1    
    24   14   15 ar   
    25   15   16 ar   
    26   15   19 1    
    27   16   17 ar   
    28   16   29 1    
    29   17   18 1    
    30   18   30 1    
    31   18   31 1    
    32   19   20 1    
    33   20   21 1    
    34   20   32 1    
    35   20   33 1    
@<TRIPOS>SUBSTRUCTURE
     1 UNK         1 GROUP             0       ****    0 ROOT    
