@<TRIPOS>MOLECULE
ZINC35057795_537
56   59    1
SMALL
USER_CHARGES


@<TRIPOS>ATOM
      1 C1         -2.0366   47.7211   25.6819 C.3       1 UNK         0.0000 
      2 C2         -0.8879   48.4445   24.9920 C.2       1 UNK         0.0000 
      3 O3         -0.1111   47.8037   24.2860 O.2       1 UNK         0.0000 
      4 N4         -0.8069   49.7688   25.2064 N.am      1 UNK         0.0000 
      5 C5          0.1830   50.7201   24.6731 C.3       1 UNK         0.0000 
      6 H6          1.0629   50.5010   25.2807 H         1 UNK         0.0000 
      7 C7         -0.1244   52.2159   24.9930 C.3       1 UNK         0.0000 
      8 H8         -0.0631   52.3533   26.0757 H         1 UNK         0.0000 
      9 C9          0.9302   53.1838   24.4001 C.3       1 UNK         0.0000 
     10 H10         0.5227   54.1951   24.4327 H         1 UNK         0.0000 
     11 C11         1.3257   52.8350   22.9517 C.3       1 UNK         0.0000 
     12 H12         0.5021   53.0525   22.2725 H         1 UNK         0.0000 
     13 C13         2.5534   53.6745   22.5465 C.3       1 UNK         0.0000 
     14 O14         3.5686   53.6813   23.5550 O.3       1 UNK         0.0000 
     15 C15         3.0656   54.0585   24.8106 C.3       1 UNK         0.0000 
     16 H16         2.6796   55.0745   24.7474 H         1 UNK         0.0000 
     17 O17         2.0880   53.1435   25.2331 O.3       1 UNK         0.0000 
     18 C18         4.2074   54.0966   25.8435 C.ar      1 UNK         0.0000 
     19 C19         3.9810   53.7340   27.1784 C.ar      1 UNK         0.0000 
     20 C20         5.0282   53.7450   28.0960 C.ar      1 UNK         0.0000 
     21 C21         6.3019   54.1229   27.6806 C.ar      1 UNK         0.0000 
     22 C22         6.5282   54.5005   26.3592 C.ar      1 UNK         0.0000 
     23 C23         5.4850   54.4932   25.4431 C.ar      1 UNK         0.0000 
     24 O24         1.7283   51.4673   22.9134 O.3       1 UNK         0.0000 
     25 C25         0.7077   50.5179   23.2186 C.3       1 UNK         0.0000 
     26 H26         1.1818   49.5398   23.1455 H         1 UNK         0.0000 
     27 S27        -0.6223   50.5102   21.9616 S.3       1 UNK         0.0000 
     28 C28         0.0774   50.1120   20.3828 C.ar      1 UNK         0.0000 
     29 C29        -0.7644   50.1062   19.2692 C.ar      1 UNK         0.0000 
     30 C30        -0.2506   49.8056   18.0100 C.ar      1 UNK         0.0000 
     31 C31         1.1044   49.5124   17.8718 C.ar      1 UNK         0.0000 
     32 C32         1.9473   49.5129   18.9805 C.ar      1 UNK         0.0000 
     33 C33         1.4360   49.8111   20.2398 C.ar      1 UNK         0.0000 
     34 O34        -1.4258   52.6581   24.5805 O.3       1 UNK         0.0000 
     35 C35        -2.4805   52.4956   25.5430 C.3       1 UNK         0.0000 
     36 C36        -3.7281   53.2967   25.1212 C.2       1 UNK         0.0000 
     37 O37        -3.6957   53.9943   24.0817 O.co2     1 UNK         0.0000 
     38 O38        -4.7117   53.2306   25.8931 O.co2     1 UNK         0.0000 
     39 H39        -2.8037   47.4515   24.9566 H         1 UNK         0.0000 
     40 H40        -1.6705   46.8111   26.1584 H         1 UNK         0.0000 
     41 H41        -2.4934   48.3354   26.4609 H         1 UNK         0.0000 
     42 H42        -1.3459   50.1073   25.9891 H         1 UNK         0.0000 
     43 H43         2.9752   53.3063   21.6107 H         1 UNK         0.0000 
     44 H44         2.2702   54.7086   22.3522 H         1 UNK         0.0000 
     45 H45         2.9974   53.4293   27.5041 H         1 UNK         0.0000 
     46 H46         4.8554   53.4561   29.1216 H         1 UNK         0.0000 
     47 H47         7.1159   54.1287   28.3915 H         1 UNK         0.0000 
     48 H48         7.5043   54.7941   26.0269 H         1 UNK         0.0000 
     49 H49         5.6741   54.7785   24.4184 H         1 UNK         0.0000 
     50 H50        -1.8137   50.3362   19.3785 H         1 UNK         0.0000 
     51 H51        -0.8953   49.8052   17.1433 H         1 UNK         0.0000 
     52 H52         1.5161   49.2893   16.8976 H         1 UNK         0.0000 
     53 H53         2.9996   49.2936   18.8595 H         1 UNK         0.0000 
     54 H54         2.1096   49.8083   21.0817 H         1 UNK         0.0000 
     55 H55        -2.7560   51.4456   25.6325 H         1 UNK         0.0000 
     56 H56        -2.1668   52.8718   26.5186 H         1 UNK         0.0000 
@<TRIPOS>BOND
     1    1    2 1    
     2    1   39 1    
     3    1   40 1    
     4    1   41 1    
     5    2    3 2    
     6    2    4 am   BACKBONE|DICT|INTERRES
     7    4    5 1    
     8    4   42 1    
     9    5    6 1    
    10    5   25 1    
    11    5    7 1    
    12    7    8 1    
    13    7    9 1    
    14    7   34 1    
    15    9   10 1    
    16    9   17 1    
    17    9   11 1    
    18   11   12 1    
    19   11   13 1    
    20   11   24 1    
    21   13   14 1    
    22   13   43 1    
    23   13   44 1    
    24   14   15 1    
    25   15   16 1    
    26   15   17 1    
    27   15   18 1    
    28   18   23 ar   
    29   18   19 ar   
    30   19   20 ar   
    31   19   45 1    
    32   20   21 ar   
    33   20   46 1    
    34   21   22 ar   
    35   21   47 1    
    36   22   23 ar   
    37   22   48 1    
    38   23   49 1    
    39   24   25 1    
    40   25   26 1    
    41   25   27 1    
    42   27   28 1    
    43   28   33 ar   
    44   28   29 ar   
    45   29   30 ar   
    46   29   50 1    
    47   30   31 ar   
    48   30   51 1    
    49   31   32 ar   
    50   31   52 1    
    51   32   33 ar   
    52   32   53 1    
    53   33   54 1    
    54   34   35 1    
    55   35   36 1    
    56   35   55 1    
    57   35   56 1    
    58   36   37 2    
    59   36   38 1    
@<TRIPOS>SUBSTRUCTURE
     1 UNK         1 GROUP             0       ****    0 ROOT    
