@<TRIPOS>MOLECULE
ZINC59310282_4509
58   63    1
SMALL
USER_CHARGES


@<TRIPOS>ATOM
      1 C1          5.8116   54.6873   21.4566 C.ar      1 UNK         0.0000 
      2 C2          6.6178   54.8982   22.5662 C.ar      1 UNK         0.0000 
      3 C3          6.1139   54.7297   23.8768 C.ar      1 UNK         0.0000 
      4 C4          6.8894   54.9687   25.0190 C.ar      1 UNK         0.0000 
      5 C5          6.3843   54.7795   26.2925 C.ar      1 UNK         0.0000 
      6 C6          5.0618   54.3441   26.4874 C.ar      1 UNK         0.0000 
      7 C7          4.5336   54.1136   27.7695 C.ar      1 UNK         0.0000 
      8 C8          3.2358   53.6641   27.9350 C.ar      1 UNK         0.0000 
      9 C9          2.3776   53.4309   26.8558 C.ar      1 UNK         0.0000 
     10 C10         2.8479   53.6889   25.5169 C.ar      1 UNK         0.0000 
     11 C11         4.2156   54.1217   25.3465 C.ar      1 UNK         0.0000 
     12 C12         4.7487   54.3135   24.0412 C.ar      1 UNK         0.0000 
     13 C13         3.9243   54.0957   22.8848 C.ar      1 UNK         0.0000 
     14 C14         4.4902   54.2896   21.6035 C.ar      1 UNK         0.0000 
     15 C15         2.5901   53.7111   23.0683 C.ar      1 UNK         0.0000 
     16 C16         2.0715   53.5118   24.3340 C.ar      1 UNK         0.0000 
     17 C17         1.0255   52.9059   27.1201 C.2       1 UNK         0.0000 
     18 N18         0.5735   52.5045   28.2444 N.2       1 UNK         0.0000 
     19 N19        -0.7588   52.0062   28.3383 N.pl3     1 UNK         0.0000 
     20 C20        -1.6292   51.7512   27.2917 C.ar      1 UNK         0.0000 
     21 N21        -2.1759   52.6204   26.4817 N.2       1 UNK         0.0000 
     22 C22        -2.7585   51.8539   25.5766 C.ar      1 UNK         0.0000 
     23 N23        -2.6677   50.5519   25.7755 N.2       1 UNK         0.0000 
     24 N24        -1.9340   50.4967   26.8818 N.pl3     1 UNK         0.0000 
     25 S25        -3.5838   52.5830   24.2082 S.3       1 UNK         0.0000 
     26 C26        -3.5029   51.2192   23.0051 C.3       1 UNK         0.0000 
     27 C27        -2.3044   51.3495   22.0644 C.2       1 UNK         0.0000 
     28 O28        -2.4714   51.7151   20.9010 O.2       1 UNK         0.0000 
     29 N29        -1.1019   51.0405   22.5797 N.am      1 UNK         0.0000 
     30 C30         0.1700   51.0712   21.8495 C.3       1 UNK         0.0000 
     31 C31         0.4575   49.8983   20.9074 C.ar      1 UNK         0.0000 
     32 C32         1.5611   49.9861   20.0509 C.ar      1 UNK         0.0000 
     33 C33         1.8532   48.9439   19.1731 C.ar      1 UNK         0.0000 
     34 C34         1.0436   47.8130   19.1497 C.ar      1 UNK         0.0000 
     35 C35        -0.0599   47.7172   19.9940 C.ar      1 UNK         0.0000 
     36 C36        -0.3523   48.7556   20.8733 C.ar      1 UNK         0.0000 
     37 F37         1.3273   46.7984   18.3030 F         1 UNK         0.0000 
     38 H38         6.2178   54.8294   20.4663 H         1 UNK         0.0000 
     39 H39         7.6441   55.2095   22.4322 H         1 UNK         0.0000 
     40 H40         7.9032   55.3039   24.8818 H         1 UNK         0.0000 
     41 H41         7.0121   54.9559   27.1548 H         1 UNK         0.0000 
     42 H42         5.1602   54.2779   28.6349 H         1 UNK         0.0000 
     43 H43         2.8973   53.4857   28.9458 H         1 UNK         0.0000 
     44 H44         3.8759   54.1329   20.7284 H         1 UNK         0.0000 
     45 H45         1.9603   53.5660   22.2001 H         1 UNK         0.0000 
     46 H46         1.0412   53.2009   24.3825 H         1 UNK         0.0000 
     47 H47         0.3851   52.8895   26.2499 H         1 UNK         0.0000 
     48 H48        -0.9875   51.6795   29.2689 H         1 UNK         0.0000 
     49 H49        -4.4218   51.2828   22.4333 H         1 UNK         0.0000 
     50 H50        -3.5284   50.2312   23.4602 H         1 UNK         0.0000 
     51 H51        -1.0654   50.7145   23.5354 H         1 UNK         0.0000 
     52 H52         0.9759   51.1072   22.5841 H         1 UNK         0.0000 
     53 H53         0.2350   52.0002   21.2777 H         1 UNK         0.0000 
     54 H54         2.1965   50.8607   20.0548 H         1 UNK         0.0000 
     55 H55         2.7024   49.0145   18.5057 H         1 UNK         0.0000 
     56 H56        -0.6825   46.8353   19.9648 H         1 UNK         0.0000 
     57 H57        -1.2097   48.6616   21.5221 H         1 UNK         0.0000 
     58 H58        -1.6957   49.6236   27.3681 H         1 UNK         0.0000 
@<TRIPOS>BOND
     1    1   14 ar   
     2    1    2 ar   
     3    1   38 1    
     4    2    3 ar   
     5    2   39 1    
     6    3   12 ar   
     7    3    4 ar   
     8    4    5 ar   
     9    4   40 1    
    10    5    6 ar   
    11    5   41 1    
    12    6   11 ar   
    13    6    7 ar   
    14    7    8 ar   
    15    7   42 1    
    16    8    9 ar   
    17    8   43 1    
    18    9   10 ar   
    19    9   17 1    
    20   10   16 ar   
    21   10   11 ar   
    22   11   12 ar   
    23   12   13 ar   
    24   13   14 ar   
    25   13   15 ar   
    26   14   44 1    
    27   15   16 ar   
    28   15   45 1    
    29   16   46 1    
    30   17   18 2    
    31   17   47 1    
    32   18   19 1    
    33   19   20 1    
    34   19   48 1    
    35   20   24 ar   
    36   20   21 ar   
    37   21   22 ar   
    38   22   23 ar   
    39   22   25 1    
    40   23   24 ar   
    41   24   58 1    
    42   25   26 1    
    43   26   27 1    
    44   26   49 1    
    45   26   50 1    
    46   27   28 2    
    47   27   29 am   BACKBONE|DICT|INTERRES
    48   29   30 1    
    49   29   51 1    
    50   30   31 1    
    51   30   52 1    
    52   30   53 1    
    53   31   36 ar   
    54   31   32 ar   
    55   32   33 ar   
    56   32   54 1    
    57   33   34 ar   
    58   33   55 1    
    59   34   35 ar   
    60   34   37 1    
    61   35   36 ar   
    62   35   56 1    
    63   36   57 1    
@<TRIPOS>SUBSTRUCTURE
     1 UNK         1 GROUP             0       ****    0 ROOT    
