@<TRIPOS>MOLECULE
ZINC14668604_2861
57   58    1
SMALL
USER_CHARGES


@<TRIPOS>ATOM
      1 C1          3.0771   53.3710   25.0886 C.3       1 UNK         0.0000 
      2 C2          1.5642   53.2779   24.8384 C.3       1 UNK         0.0000 
      3 C3          1.1076   54.1987   23.6948 C.3       1 UNK         0.0000 
      4 C4          1.0638   51.8337   24.6722 C.ar      1 UNK         0.0000 
      5 C5          0.2267   51.3052   25.6648 C.ar      1 UNK         0.0000 
      6 C6         -0.2529   50.0020   25.5750 C.ar      1 UNK         0.0000 
      7 C7          0.0798   49.2173   24.4767 C.ar      1 UNK         0.0000 
      8 C8          0.9088   49.7261   23.4790 C.ar      1 UNK         0.0000 
      9 C9          1.4311   51.0293   23.5699 C.ar      1 UNK         0.0000 
     10 O10         2.3042   51.5691   22.6393 O.3       1 UNK         0.0000 
     11 C11         2.8319   50.8103   21.5424 C.3       1 UNK         0.0000 
     12 C12         2.0572   51.1254   20.2508 C.2       1 UNK         0.0000 
     13 O13         0.9341   51.6353   20.3076 O.2       1 UNK         0.0000 
     14 N14         2.7044   50.8536   19.0938 N.am      1 UNK         0.0000 
     15 N15         2.1703   51.2984   17.8754 N.pl3     1 UNK         0.0000 
     16 C16         2.4242   52.5478   17.3753 C.2       1 UNK         0.0000 
     17 S17         1.6608   52.9467   15.9441 S.2       1 UNK         0.0000 
     18 N18         3.3236   53.3150   18.0808 N.am      1 UNK         0.0000 
     19 C19         3.6126   54.6407   18.0803 C.2       1 UNK         0.0000 
     20 O20         3.0442   55.4951   17.3967 O.2       1 UNK         0.0000 
     21 C21         4.7121   55.0332   19.0505 C.ar      1 UNK         0.0000 
     22 C22         4.8045   54.3892   20.2995 C.ar      1 UNK         0.0000 
     23 C23         5.7973   54.7330   21.2133 C.ar      1 UNK         0.0000 
     24 C24         6.7129   55.7288   20.8998 C.ar      1 UNK         0.0000 
     25 C25         6.6238   56.3952   19.6817 C.ar      1 UNK         0.0000 
     26 C26         5.6222   56.0725   18.7481 C.ar      1 UNK         0.0000 
     27 O27         5.5064   56.7153   17.5259 O.3       1 UNK         0.0000 
     28 C28         6.1959   57.9355   17.2564 C.3       1 UNK         0.0000 
     29 C29         7.5767   57.6306   16.6494 C.3       1 UNK         0.0000 
     30 C30         5.3097   58.7229   16.2832 C.3       1 UNK         0.0000 
     31 Br31        5.9257   53.8216   22.8786 Br        1 UNK         0.0000 
     32 H32         3.3556   52.8966   26.0277 H         1 UNK         0.0000 
     33 H33         3.6357   52.8974   24.2877 H         1 UNK         0.0000 
     34 H34         3.4080   54.4091   25.1505 H         1 UNK         0.0000 
     35 H35         1.1049   53.6831   25.7401 H         1 UNK         0.0000 
     36 H36         0.0205   54.2665   23.6829 H         1 UNK         0.0000 
     37 H37         1.5035   55.2056   23.8289 H         1 UNK         0.0000 
     38 H38         1.4375   53.8590   22.7129 H         1 UNK         0.0000 
     39 H39        -0.0529   51.9019   26.5215 H         1 UNK         0.0000 
     40 H40        -0.8824   49.5994   26.3577 H         1 UNK         0.0000 
     41 H41        -0.2965   48.2066   24.4086 H         1 UNK         0.0000 
     42 H42         1.1334   49.0784   22.6480 H         1 UNK         0.0000 
     43 H43         3.8674   51.1324   21.4201 H         1 UNK         0.0000 
     44 H44         2.8837   49.7365   21.7210 H         1 UNK         0.0000 
     45 H45         3.6384   50.4679   18.9920 H         1 UNK         0.0000 
     46 H46         2.0764   50.5287   17.2260 H         1 UNK         0.0000 
     47 H47         3.9084   52.7800   18.7024 H         1 UNK         0.0000 
     48 H48         4.0975   53.6227   20.5836 H         1 UNK         0.0000 
     49 H49         7.4938   55.9819   21.6027 H         1 UNK         0.0000 
     50 H50         7.3564   57.1570   19.4721 H         1 UNK         0.0000 
     51 H51         6.3010   58.5488   18.1540 H         1 UNK         0.0000 
     52 H52         8.1179   58.5506   16.4283 H         1 UNK         0.0000 
     53 H53         8.1966   57.0376   17.3209 H         1 UNK         0.0000 
     54 H54         7.4811   57.0703   15.7190 H         1 UNK         0.0000 
     55 H55         5.7463   59.6955   16.0505 H         1 UNK         0.0000 
     56 H56         5.1651   58.1847   15.3459 H         1 UNK         0.0000 
     57 H57         4.3240   58.9090   16.7154 H         1 UNK         0.0000 
@<TRIPOS>BOND
     1    1    2 1    
     2    1   32 1    
     3    1   33 1    
     4    1   34 1    
     5    2    3 1    
     6    2    4 1    
     7    2   35 1    
     8    3   36 1    
     9    3   37 1    
    10    3   38 1    
    11    4    9 ar   
    12    4    5 ar   
    13    5    6 ar   
    14    5   39 1    
    15    6    7 ar   
    16    6   40 1    
    17    7    8 ar   
    18    7   41 1    
    19    8    9 ar   
    20    8   42 1    
    21    9   10 1    
    22   10   11 1    
    23   11   12 1    
    24   11   43 1    
    25   11   44 1    
    26   12   13 2    
    27   12   14 am   BACKBONE|DICT|INTERRES
    28   14   15 1    
    29   14   45 1    
    30   15   16 1    
    31   15   46 1    
    32   16   17 2    
    33   16   18 am   BACKBONE|DICT|INTERRES
    34   18   19 am   BACKBONE|DICT|INTERRES
    35   18   47 1    
    36   19   20 2    
    37   19   21 1    
    38   21   26 ar   
    39   21   22 ar   
    40   22   23 ar   
    41   22   48 1    
    42   23   24 ar   
    43   23   31 1    
    44   24   25 ar   
    45   24   49 1    
    46   25   26 ar   
    47   25   50 1    
    48   26   27 1    
    49   27   28 1    
    50   28   29 1    
    51   28   30 1    
    52   28   51 1    
    53   29   52 1    
    54   29   53 1    
    55   29   54 1    
    56   30   55 1    
    57   30   56 1    
    58   30   57 1    
@<TRIPOS>SUBSTRUCTURE
     1 UNK         1 GROUP             0       ****    0 ROOT    
