@<TRIPOS>MOLECULE
ZINC02240365_4524
56   60    1
SMALL
USER_CHARGES


@<TRIPOS>ATOM
      1 C1          1.1410   55.7492   29.3520 C.3       1 UNK         0.0000 
      2 C2          0.8016   54.6224   30.3527 C.3       1 UNK         0.0000 
      3 C3          1.4062   53.1941   30.1302 C.3       1 UNK         0.0000 
      4 C4          2.8207   53.2142   29.4436 C.3       1 UNK         0.0000 
      5 C5          2.6903   53.3543   27.9219 C.2       1 UNK         0.0000 
      6 C6          1.4789   53.1076   27.2897 C.2       1 UNK         0.0000 
      7 S7          1.5044   53.2960   25.5616 S.3       1 UNK         0.0000 
      8 C8          3.1825   53.7397   25.6381 C.ar      1 UNK         0.0000 
      9 C9          3.7052   53.7102   26.9646 C.ar      1 UNK         0.0000 
     10 C10         5.0811   54.0388   27.0558 C.ar      1 UNK         0.0000 
     11 N11         5.8254   54.3086   25.9489 N.ar      1 UNK         0.0000 
     12 C12         5.1918   54.2735   24.7484 C.ar      1 UNK         0.0000 
     13 N13         3.8738   54.0431   24.5431 N.ar      1 UNK         0.0000 
     14 S14         6.1841   54.4967   23.2993 S.3       1 UNK         0.0000 
     15 C15         5.0758   54.4706   21.8341 C.3       1 UNK         0.0000 
     16 C16         4.4413   53.1086   21.5231 C.2       1 UNK         0.0000 
     17 O17         5.1043   52.0867   21.6815 O.2       1 UNK         0.0000 
     18 N18         3.1688   53.0998   21.0714 N.am      1 UNK         0.0000 
     19 C19         2.4526   51.9352   20.7369 C.ar      1 UNK         0.0000 
     20 C20         2.9629   51.0778   19.7599 C.ar      1 UNK         0.0000 
     21 C21         2.2915   49.9215   19.3892 C.ar      1 UNK         0.0000 
     22 C22         1.0844   49.5865   19.9901 C.ar      1 UNK         0.0000 
     23 C23         0.5192   50.4270   20.9799 C.ar      1 UNK         0.0000 
     24 C24         1.2034   51.6270   21.3608 C.ar      1 UNK         0.0000 
     25 C25         0.6080   52.4527   22.3528 C.ar      1 UNK         0.0000 
     26 C26        -0.6034   52.0984   22.9425 C.ar      1 UNK         0.0000 
     27 C27        -1.2593   50.9330   22.5690 C.ar      1 UNK         0.0000 
     28 C28        -0.7133   50.0993   21.5984 C.ar      1 UNK         0.0000 
     29 N29         5.7467   54.0963   28.2798 N.pl3     1 UNK         0.0000 
     30 C30         0.2143   52.7559   28.0388 C.3       1 UNK         0.0000 
     31 O31         0.5401   52.3533   29.3604 O.3       1 UNK         0.0000 
     32 C32         1.4664   52.3901   31.4423 C.3       1 UNK         0.0000 
     33 H33         0.7049   56.6930   29.6795 H         1 UNK         0.0000 
     34 H34         2.2149   55.9171   29.2749 H         1 UNK         0.0000 
     35 H35         0.7614   55.5500   28.3514 H         1 UNK         0.0000 
     36 H36        -0.2822   54.5286   30.4193 H         1 UNK         0.0000 
     37 H37         1.1033   54.9827   31.3350 H         1 UNK         0.0000 
     38 H38         3.3474   52.2796   29.6395 H         1 UNK         0.0000 
     39 H39         3.4377   53.9950   29.8858 H         1 UNK         0.0000 
     40 H40         5.6616   54.7654   20.9644 H         1 UNK         0.0000 
     41 H41         4.3006   55.2244   21.9630 H         1 UNK         0.0000 
     42 H42         2.6386   53.9610   21.0681 H         1 UNK         0.0000 
     43 H43         3.9036   51.3081   19.2814 H         1 UNK         0.0000 
     44 H44         2.7170   49.2852   18.6252 H         1 UNK         0.0000 
     45 H45         0.5701   48.6826   19.6971 H         1 UNK         0.0000 
     46 H46         1.1039   53.3625   22.6566 H         1 UNK         0.0000 
     47 H47        -1.0368   52.7353   23.7001 H         1 UNK         0.0000 
     48 H48        -2.1964   50.6709   23.0386 H         1 UNK         0.0000 
     49 H49        -1.2277   49.1929   21.3135 H         1 UNK         0.0000 
     50 H50         5.2445   53.8952   29.1307 H         1 UNK         0.0000 
     51 H51         6.7200   54.3670   28.3064 H         1 UNK         0.0000 
     52 H52        -0.4883   53.5889   28.0561 H         1 UNK         0.0000 
     53 H53        -0.3017   51.9264   27.5546 H         1 UNK         0.0000 
     54 H54         2.0469   52.8927   32.2044 H         1 UNK         0.0000 
     55 H55         0.4670   52.2379   31.8546 H         1 UNK         0.0000 
     56 H56         1.9048   51.4055   31.3027 H         1 UNK         0.0000 
@<TRIPOS>BOND
     1    1    2 1    
     2    1   33 1    
     3    1   34 1    
     4    1   35 1    
     5    2    3 1    
     6    2   36 1    
     7    2   37 1    
     8    3   31 1    
     9    3    4 1    
    10    3   32 1    
    11    4    5 1    
    12    4   38 1    
    13    4   39 1    
    14    5    9 1    
    15    5    6 2    
    16    6    7 1    
    17    6   30 1    
    18    7    8 1    
    19    8   13 ar   
    20    8    9 ar   
    21    9   10 ar   
    22   10   11 ar   
    23   10   29 1    
    24   11   12 ar   
    25   12   13 ar   
    26   12   14 1    
    27   14   15 1    
    28   15   16 1    
    29   15   40 1    
    30   15   41 1    
    31   16   17 2    
    32   16   18 am   BACKBONE|DICT|INTERRES
    33   18   19 1    
    34   18   42 1    
    35   19   24 ar   
    36   19   20 ar   
    37   20   21 ar   
    38   20   43 1    
    39   21   22 ar   
    40   21   44 1    
    41   22   23 ar   
    42   22   45 1    
    43   23   28 ar   
    44   23   24 ar   
    45   24   25 ar   
    46   25   26 ar   
    47   25   46 1    
    48   26   27 ar   
    49   26   47 1    
    50   27   28 ar   
    51   27   48 1    
    52   28   49 1    
    53   29   50 1    
    54   29   51 1    
    55   30   31 1    
    56   30   52 1    
    57   30   53 1    
    58   32   54 1    
    59   32   55 1    
    60   32   56 1    
@<TRIPOS>SUBSTRUCTURE
     1 UNK         1 GROUP             0       ****    0 ROOT    
