@<TRIPOS>MOLECULE
ZINC08951207_5385
56   61    1
SMALL
USER_CHARGES


@<TRIPOS>ATOM
      1 C1          5.6438   54.7421   21.3275 C.ar      1 UNK         0.0000 
      2 C2          6.7083   55.2322   22.0825 C.ar      1 UNK         0.0000 
      3 C3          6.6854   55.1042   23.4698 C.ar      1 UNK         0.0000 
      4 C4          5.5982   54.4951   24.1041 C.ar      1 UNK         0.0000 
      5 C5          4.5302   54.0168   23.3348 C.ar      1 UNK         0.0000 
      6 C6          4.5557   54.1334   21.9475 C.ar      1 UNK         0.0000 
      7 C7          5.5957   54.3514   25.5889 C.2       1 UNK         0.0000 
      8 C8          6.5198   54.6171   26.5836 C.2       1 UNK         0.0000 
      9 C9          5.9484   54.2433   27.7982 C.2       1 UNK         0.0000 
     10 C10         4.6864   53.7464   27.5123 C.2       1 UNK         0.0000 
     11 O11         4.4853   53.8325   26.1695 O.3       1 UNK         0.0000 
     12 C12         3.6478   53.1848   28.3511 C.2       1 UNK         0.0000 
     13 C13         2.3906   52.8245   28.0012 C.2       1 UNK         0.0000 
     14 C14         1.4678   52.2864   28.9761 C.2       1 UNK         0.0000 
     15 O15         1.7659   52.0972   30.1631 O.2       1 UNK         0.0000 
     16 N16         0.2432   52.0396   28.4025 N.am      1 UNK         0.0000 
     17 C17         0.1459   52.2313   27.0464 C.2       1 UNK         0.0000 
     18 C18        -0.9386   51.9543   26.2884 C.2       1 UNK         0.0000 
     19 C19        -2.1463   51.2285   26.8938 C.3       1 UNK         0.0000 
     20 H20        -2.0329   50.1744   26.6316 H         1 UNK         0.0000 
     21 C21        -2.0774   51.2967   28.4279 C.2       1 UNK         0.0000 
     22 C22        -0.9272   51.6437   29.0741 C.2       1 UNK         0.0000 
     23 N23        -0.8954   51.6960   30.4550 N.pl3     1 UNK         0.0000 
     24 C24        -3.2604   50.8996   29.1387 C.1       1 UNK         0.0000 
     25 N25        -4.2447   50.6172   29.6814 N.1       1 UNK         0.0000 
     26 C26        -3.4509   51.7985   26.3498 C.2       1 UNK         0.0000 
     27 C27        -3.8966   53.0865   26.0841 C.2       1 UNK         0.0000 
     28 C28        -5.1759   52.9733   25.5506 C.2       1 UNK         0.0000 
     29 C29        -5.4828   51.6188   25.5213 C.2       1 UNK         0.0000 
     30 O30        -4.4275   50.9142   26.0189 O.3       1 UNK         0.0000 
     31 C31        -6.6751   50.8550   25.0589 C.ar      1 UNK         0.0000 
     32 C32        -6.7959   49.4858   25.3186 C.ar      1 UNK         0.0000 
     33 C33        -7.9161   48.7868   24.8770 C.ar      1 UNK         0.0000 
     34 C34        -8.9160   49.4583   24.1738 C.ar      1 UNK         0.0000 
     35 C35        -8.8032   50.8211   23.9085 C.ar      1 UNK         0.0000 
     36 C36        -7.6832   51.5190   24.3507 C.ar      1 UNK         0.0000 
     37 C37        -0.9688   52.2788   24.8940 C.1       1 UNK         0.0000 
     38 N38        -1.0228   52.5611   23.7732 N.1       1 UNK         0.0000 
     39 S39         1.6204   52.9526   26.4252 S.3       1 UNK         0.0000 
     40 H40         5.6631   54.8326   20.2498 H         1 UNK         0.0000 
     41 H41         7.5535   55.6994   21.5975 H         1 UNK         0.0000 
     42 H42         7.5041   55.4915   24.0499 H         1 UNK         0.0000 
     43 H43         3.6805   53.5443   23.8078 H         1 UNK         0.0000 
     44 H44         3.7323   53.7582   21.3553 H         1 UNK         0.0000 
     45 H45         7.5033   55.0213   26.4425 H         1 UNK         0.0000 
     46 H46         6.4093   54.3159   28.7749 H         1 UNK         0.0000 
     47 H47         3.9730   53.0686   29.3761 H         1 UNK         0.0000 
     48 H48        -1.6325   51.3090   31.0373 H         1 UNK         0.0000 
     49 H49        -0.0433   51.9591   30.9381 H         1 UNK         0.0000 
     50 H50        -3.3426   53.9991   26.2482 H         1 UNK         0.0000 
     51 H51        -5.8127   53.7793   25.2200 H         1 UNK         0.0000 
     52 H52        -6.0257   48.9607   25.8664 H         1 UNK         0.0000 
     53 H53        -8.0113   47.7307   25.0797 H         1 UNK         0.0000 
     54 H54        -9.7855   48.9162   23.8317 H         1 UNK         0.0000 
     55 H55        -9.5801   51.3352   23.3613 H         1 UNK         0.0000 
     56 H56        -7.6014   52.5742   24.1335 H         1 UNK         0.0000 
@<TRIPOS>BOND
     1    1    6 ar   
     2    1    2 ar   
     3    1   40 1    
     4    2    3 ar   
     5    2   41 1    
     6    3    4 ar   
     7    3   42 1    
     8    4    5 ar   
     9    4    7 1    
    10    5    6 ar   
    11    5   43 1    
    12    6   44 1    
    13    7   11 1    
    14    7    8 2    
    15    8    9 1    
    16    8   45 1    
    17    9   10 2    
    18    9   46 1    
    19   10   11 1    
    20   10   12 1    
    21   12   13 2    
    22   12   47 1    
    23   13   39 1    
    24   13   14 1    
    25   14   15 2    
    26   14   16 am   BACKBONE|DICT|INTERRES
    27   16   22 1    
    28   16   17 am   BACKBONE|DICT|INTERRES
    29   17   18 2    
    30   17   39 1    
    31   18   19 1    
    32   18   37 1    
    33   19   20 1    
    34   19   21 1    
    35   19   26 1    
    36   21   22 2    
    37   21   24 1    
    38   22   23 1    
    39   23   48 1    
    40   23   49 1    
    41   24   25 3    
    42   26   30 1    
    43   26   27 2    
    44   27   28 1    
    45   27   50 1    
    46   28   29 2    
    47   28   51 1    
    48   29   30 1    
    49   29   31 1    
    50   31   36 ar   
    51   31   32 ar   
    52   32   33 ar   
    53   32   52 1    
    54   33   34 ar   
    55   33   53 1    
    56   34   35 ar   
    57   34   54 1    
    58   35   36 ar   
    59   35   55 1    
    60   36   56 1    
    61   37   38 3    
@<TRIPOS>SUBSTRUCTURE
     1 UNK         1 GROUP             0       ****    0 ROOT    
