@<TRIPOS>MOLECULE
ZINC09489953_6131
56   60    1
SMALL
USER_CHARGES


@<TRIPOS>ATOM
      1 C1          2.4542   55.4421   29.2817 C.3       1 UNK         0.0000 
      2 C2          3.1682   54.0707   29.2552 C.3       1 UNK         0.0000 
      3 H3          3.3688   53.7997   30.2914 H         1 UNK         0.0000 
      4 C4          2.3077   52.9260   28.6771 C.3       1 UNK         0.0000 
      5 C5          1.8834   53.2174   27.2202 C.3       1 UNK         0.0000 
      6 C6          3.0951   53.6996   26.4109 C.2       1 UNK         0.0000 
      7 C7          4.2967   54.0808   27.0329 C.2       1 UNK         0.0000 
      8 S8          5.5212   54.4944   25.8866 S.3       1 UNK         0.0000 
      9 C9          4.4333   54.1778   24.5545 C.2       1 UNK         0.0000 
     10 C10         3.1616   53.7966   25.0046 C.2       1 UNK         0.0000 
     11 C11         2.0253   53.5292   24.1255 C.1       1 UNK         0.0000 
     12 N12         1.1250   53.3212   23.4308 N.1       1 UNK         0.0000 
     13 N13         4.7995   54.3769   23.2234 N.am      1 UNK         0.0000 
     14 C14         6.0456   54.4908   22.7146 C.2       1 UNK         0.0000 
     15 O15         7.0883   54.2776   23.3350 O.2       1 UNK         0.0000 
     16 C16         6.0718   54.9002   21.3294 C.ar      1 UNK         0.0000 
     17 C17         5.0650   54.6843   20.3679 C.ar      1 UNK         0.0000 
     18 C18         5.4912   55.3022   19.2122 C.ar      1 UNK         0.0000 
     19 N19         6.7469   55.7928   19.5044 N.pl3     1 UNK         0.0000 
     20 N20         7.1033   55.5039   20.7677 N.2       1 UNK         0.0000 
     21 C21         7.6803   56.3919   18.5473 C.3       1 UNK         0.0000 
     22 H22         8.2726   57.1422   19.0733 H         1 UNK         0.0000 
     23 C23         6.8009   57.1016   17.4865 C.3       1 UNK         0.0000 
     24 C24         5.6495   56.2138   16.9387 C.3       1 UNK         0.0000 
     25 H25         6.1059   55.3976   16.3752 H         1 UNK         0.0000 
     26 N26         4.8788   55.5486   17.9984 N.pl3     1 UNK         0.0000 
     27 C27         4.7838   56.9465   15.9144 C.ar      1 UNK         0.0000 
     28 C28         4.0570   58.0819   16.2902 C.ar      1 UNK         0.0000 
     29 C29         3.2832   58.7630   15.3554 C.ar      1 UNK         0.0000 
     30 C30         3.2278   58.3033   14.0408 C.ar      1 UNK         0.0000 
     31 C31         3.9468   57.1732   13.6555 C.ar      1 UNK         0.0000 
     32 C32         4.7281   56.4959   14.5908 C.ar      1 UNK         0.0000 
     33 Cl33        2.2656   59.1437   12.8788 Cl        1 UNK         0.0000 
     34 C34         8.6828   55.3710   17.9484 C.3       1 UNK         0.0000 
     35 F35         9.4462   55.9398   17.0152 F         1 UNK         0.0000 
     36 F36         9.5003   54.8957   18.8816 F         1 UNK         0.0000 
     37 F37         8.0814   54.3266   17.3789 F         1 UNK         0.0000 
     38 C38         4.5397   54.0967   28.5389 C.3       1 UNK         0.0000 
     39 H39         2.1598   55.7710   28.2860 H         1 UNK         0.0000 
     40 H40         1.5558   55.4084   29.8988 H         1 UNK         0.0000 
     41 H41         3.0999   56.2230   29.6817 H         1 UNK         0.0000 
     42 H42         1.4029   52.7992   29.2733 H         1 UNK         0.0000 
     43 H43         2.8524   51.9802   28.7202 H         1 UNK         0.0000 
     44 H44         1.4438   52.3200   26.7818 H         1 UNK         0.0000 
     45 H45         1.1033   53.9766   27.2050 H         1 UNK         0.0000 
     46 H46         4.0440   54.3733   22.5556 H         1 UNK         0.0000 
     47 H47         4.1103   54.1952   20.5004 H         1 UNK         0.0000 
     48 H48         6.4085   58.0282   17.9106 H         1 UNK         0.0000 
     49 H49         7.4212   57.4385   16.6535 H         1 UNK         0.0000 
     50 H50         4.2156   54.8827   17.6279 H         1 UNK         0.0000 
     51 H51         4.1011   58.4530   17.3017 H         1 UNK         0.0000 
     52 H52         2.7421   59.6503   15.6544 H         1 UNK         0.0000 
     53 H53         3.9034   56.8235   12.6345 H         1 UNK         0.0000 
     54 H54         5.2861   55.6247   14.2800 H         1 UNK         0.0000 
     55 H55         5.1159   54.9737   28.8372 H         1 UNK         0.0000 
     56 H56         5.1311   53.2301   28.8404 H         1 UNK         0.0000 
@<TRIPOS>BOND
     1    1    2 1    
     2    1   39 1    
     3    1   40 1    
     4    1   41 1    
     5    2    3 1    
     6    2   38 1    
     7    2    4 1    
     8    4    5 1    
     9    4   42 1    
    10    4   43 1    
    11    5    6 1    
    12    5   44 1    
    13    5   45 1    
    14    6   10 1    
    15    6    7 2    
    16    7    8 1    
    17    7   38 1    
    18    8    9 1    
    19    9   10 2    
    20    9   13 am   BACKBONE|DICT|INTERRES
    21   10   11 1    
    22   11   12 3    
    23   13   14 am   BACKBONE|DICT|INTERRES
    24   13   46 1    
    25   14   15 2    
    26   14   16 1    
    27   16   20 ar   
    28   16   17 ar   
    29   17   18 ar   
    30   17   47 1    
    31   18   26 1    
    32   18   19 ar   
    33   19   20 ar   
    34   19   21 1    
    35   21   22 1    
    36   21   23 1    
    37   21   34 1    
    38   23   24 1    
    39   23   48 1    
    40   23   49 1    
    41   24   25 1    
    42   24   26 1    
    43   24   27 1    
    44   26   50 1    
    45   27   32 ar   
    46   27   28 ar   
    47   28   29 ar   
    48   28   51 1    
    49   29   30 ar   
    50   29   52 1    
    51   30   31 ar   
    52   30   33 1    
    53   31   32 ar   
    54   31   53 1    
    55   32   54 1    
    56   34   35 1    
    57   34   36 1    
    58   34   37 1    
    59   38   55 1    
    60   38   56 1    
@<TRIPOS>SUBSTRUCTURE
     1 UNK         1 GROUP             0       ****    0 ROOT    
