ZINC48837297_4739
                    3D
 Schrodinger Suite 2024-2.
 36 37  0  0  1  0            999 V2000
    5.9306   54.4980   27.3198 C   0  0  0  0  0  0
    5.0522   53.9890   28.2679 C   0  0  0  0  0  0
    3.7565   53.5650   27.9242 C   0  0  0  0  0  0
    3.3395   53.6965   26.5686 C   0  0  0  0  0  0
    4.2382   54.2330   25.6292 C   0  0  0  0  0  0
    5.5193   54.6171   26.0009 C   0  0  0  0  0  0
    6.7044   55.2966   24.6865 Br  0  0  0  0  0  0
    2.0454   53.2536   26.2015 N   0  0  0  0  0  0
    1.4188   53.1902   25.0010 C   0  0  0  0  0  0
    1.8698   53.7032   23.9759 O   0  0  0  0  0  0
    0.2427   52.4914   24.9951 N   0  0  0  0  0  0
   -0.4588   52.2610   23.7174 C   0  0  0  0  0  0
   -0.5654   50.7364   23.5476 C   0  0  0  0  0  0
   -1.4045   50.1145   24.6740 C   0  0  0  0  0  0
   -0.9648   50.5770   26.0825 C   0  0  2  0  0  0
   -1.7488   50.3603   26.8140 H   0  0  0  0  0  0
   -0.4833   52.0533   26.2188 C   0  0  0  0  0  0
    0.2293   49.6972   26.4817 N   0  3  0  0  0  0
    2.8934   52.9703   29.0112 C   0  0  0  0  0  0
    2.0199   52.1305   28.6835 O   0  0  0  0  0  0
    3.1065   53.3385   30.1913 O   0  5  0  0  0  0
    6.9244   54.8023   27.6148 H   0  0  0  0  0  0
    5.4069   53.9052   29.2819 H   0  0  0  0  0  0
    3.9902   54.3513   24.5884 H   0  0  0  0  0  0
    1.5711   52.8156   26.9824 H   0  0  0  0  0  0
   -1.4513   52.7073   23.7929 H   0  0  0  0  0  0
    0.0192   52.7356   22.8581 H   0  0  0  0  0  0
   -1.0315   50.5117   22.5871 H   0  0  0  0  0  0
    0.4300   50.2899   23.5019 H   0  0  0  0  0  0
   -2.4366   50.4340   24.5182 H   0  0  0  0  0  0
   -1.3879   49.0265   24.5822 H   0  0  0  0  0  0
    0.1420   52.1024   27.1083 H   0  0  0  0  0  0
   -1.3466   52.6975   26.3897 H   0  0  0  0  0  0
    0.8899   49.5993   25.7253 H   0  0  0  0  0  0
    0.6967   50.0894   27.2881 H   0  0  0  0  0  0
   -0.1144   48.7805   26.7536 H   0  0  0  0  0  0
  1  6  2  0  0  0
  1  2  1  0  0  0
  1 22  1  0  0  0
  2  3  2  0  0  0
  2 23  1  0  0  0
  3  4  1  0  0  0
  3 19  1  0  0  0
  4  5  2  0  0  0
  4  8  1  0  0  0
  5  6  1  0  0  0
  5 24  1  0  0  0
  6  7  1  0  0  0
  8  9  1  0  0  0
  8 25  1  0  0  0
  9 10  2  0  0  0
  9 11  1  0  0  0
 11 17  1  0  0  0
 11 12  1  0  0  0
 12 13  1  0  0  0
 12 26  1  0  0  0
 12 27  1  0  0  0
 13 14  1  0  0  0
 13 28  1  0  0  0
 13 29  1  0  0  0
 14 15  1  0  0  0
 14 30  1  0  0  0
 14 31  1  0  0  0
 15 16  1  0  0  0
 15 17  1  0  0  0
 15 18  1  0  0  0
 17 32  1  0  0  0
 17 33  1  0  0  0
 18 34  1  0  0  0
 18 35  1  0  0  0
 18 36  1  0  0  0
 19 20  2  0  0  0
 19 21  1  0  0  0
M  CHG  2  18   1  21  -1
M  END
> <i_i_glide_confnum>
31

> <i_i_glide_lignum>
4740

> <i_i_glide_posenum>
354

> <i_i_glide_rotatable_bonds>
4

> <i_m_Source_File_Index>
2439

> <b_m_subgroup_collapsed>
0

> <r_i_docking_score>
-6.01901

> <r_i_glide_ecoul>
-5.95912

> <r_i_glide_eff_state_penalty>
0

> <r_i_glide_einternal>
3.11594

> <r_i_glide_emodel>
-56.7985

> <r_i_glide_energy>
-37.7501

> <r_i_glide_erotb>
0.485752

> <r_i_glide_esite>
-0.0759879

> <r_i_glide_evdw>
-31.791

> <r_i_glide_gscore>
-6.01901

> <r_i_glide_hbond>
-0.238963

> <r_i_glide_ligand_efficiency>
-0.300951

> <r_i_glide_ligand_efficiency_ln>
-1.50636

> <r_i_glide_ligand_efficiency_sa>
-0.816906

> <r_i_glide_lipo>
-1.87045

> <r_i_glide_metal>
0

> <r_i_glide_rewards>
-1.83595

> <s_i_glide_gridfile>
wee1_glide-grid

> <s_m_Source_File>
wee1_decoys_glide_SP.sdf

> <s_m_Source_Path>
/Users/zhangxujun/Desktop

> <s_m_entry_id>
2714

> <s_m_entry_name>
wee1_decoys_glide_SP.2439

> <s_m_subgroup_title>
wee1_decoys_glide_SP

> <s_m_subgroupid>
wee1_decoys_glide_SP


$$$$
