@<TRIPOS>MOLECULE
ZINC13223378_5785
53   56    1
SMALL
USER_CHARGES


@<TRIPOS>ATOM
      1 C1          2.9223   52.3501   20.7025 C.3       1 UNK         0.0000 
      2 C2          2.2684   52.3510   22.0726 C.ar      1 UNK         0.0000 
      3 C3          2.0383   53.5579   22.7365 C.ar      1 UNK         0.0000 
      4 C4          1.4399   53.5580   23.9924 C.ar      1 UNK         0.0000 
      5 C5          1.0966   52.3445   24.5943 C.ar      1 UNK         0.0000 
      6 C6          1.3045   51.1371   23.9221 C.ar      1 UNK         0.0000 
      7 C7          1.9004   51.1423   22.6633 C.ar      1 UNK         0.0000 
      8 N8          0.4919   52.3366   25.8685 N.pl3     1 UNK         0.0000 
      9 C9          1.0027   52.6682   27.1224 C.ar      1 UNK         0.0000 
     10 N10         0.0749   52.5245   28.0411 N.2       1 UNK         0.0000 
     11 N11        -1.0833   52.0949   27.4129 N.2       1 UNK         0.0000 
     12 C12        -0.8192   51.9808   26.1369 C.ar      1 UNK         0.0000 
     13 S13        -2.0167   51.4742   24.9416 S.3       1 UNK         0.0000 
     14 C14        -2.2046   49.7288   25.4620 C.3       1 UNK         0.0000 
     15 C15        -3.4859   49.4235   26.2548 C.2       1 UNK         0.0000 
     16 O16        -4.2316   50.3360   26.6174 O.2       1 UNK         0.0000 
     17 N17        -3.7207   48.1121   26.4808 N.am      1 UNK         0.0000 
     18 C18        -4.7273   47.4952   27.2584 C.ar      1 UNK         0.0000 
     19 C19        -5.3239   48.1828   28.3320 C.ar      1 UNK         0.0000 
     20 C20        -6.3112   47.5859   29.1083 C.ar      1 UNK         0.0000 
     21 C21        -6.7264   46.2914   28.8244 C.ar      1 UNK         0.0000 
     22 C22        -6.1318   45.5864   27.7824 C.ar      1 UNK         0.0000 
     23 C23        -5.1149   46.1526   26.9903 C.ar      1 UNK         0.0000 
     24 C24        -4.4955   45.2966   25.9082 C.2       1 UNK         0.0000 
     25 O25        -3.4863   45.6990   25.2828 O.co2     1 UNK         0.0000 
     26 Cl26       -7.0143   48.4456   30.4299 Cl        1 UNK         0.0000 
     27 N27         2.3024   53.0516   27.4135 N.pl3     1 UNK         0.0000 
     28 C28         2.7387   53.3827   28.7747 C.3       1 UNK         0.0000 
     29 C29         4.0074   54.2309   28.6599 C.3       1 UNK         0.0000 
     30 C30         4.5654   53.8211   27.3106 C.3       1 UNK         0.0000 
     31 C31         3.2956   53.6038   26.4933 C.3       1 UNK         0.0000 
     32 H32         3.3325   53.3270   20.4429 H         1 UNK         0.0000 
     33 H33         3.7424   51.6312   20.6752 H         1 UNK         0.0000 
     34 H34         2.2030   52.0566   19.9380 H         1 UNK         0.0000 
     35 H35         2.3085   54.4963   22.2735 H         1 UNK         0.0000 
     36 H36         1.2441   54.4971   24.4891 H         1 UNK         0.0000 
     37 H37         1.0232   50.1968   24.3758 H         1 UNK         0.0000 
     38 H38         2.0726   50.2074   22.1506 H         1 UNK         0.0000 
     39 H39        -1.3423   49.4082   26.0504 H         1 UNK         0.0000 
     40 H40        -2.2126   49.1206   24.5567 H         1 UNK         0.0000 
     41 H41        -3.1476   47.4386   25.9822 H         1 UNK         0.0000 
     42 H42        -5.0116   49.1823   28.5935 H         1 UNK         0.0000 
     43 H43        -7.5011   45.8269   29.4174 H         1 UNK         0.0000 
     44 H44        -6.4702   44.5754   27.5997 H         1 UNK         0.0000 
     45 H45         1.9781   53.9959   29.2612 H         1 UNK         0.0000 
     46 H46         2.9268   52.4837   29.3628 H         1 UNK         0.0000 
     47 H47         3.7652   55.2952   28.6862 H         1 UNK         0.0000 
     48 H48         4.7074   54.0341   29.4725 H         1 UNK         0.0000 
     49 H49         5.1536   52.9027   27.3634 H         1 UNK         0.0000 
     50 H50         5.2066   54.5890   26.8751 H         1 UNK         0.0000 
     51 H51         3.4965   52.8966   25.6907 H         1 UNK         0.0000 
     52 H52         2.9507   54.5453   26.0670 H         1 UNK         0.0000 
     53 O53        -4.9842   44.1664   25.6821 O.co2     1 UNK         0.0000 
@<TRIPOS>BOND
     1    1    2 1    
     2    1   32 1    
     3    1   33 1    
     4    1   34 1    
     5    2    7 ar   
     6    2    3 ar   
     7    3    4 ar   
     8    3   35 1    
     9    4    5 ar   
    10    4   36 1    
    11    5    6 ar   
    12    5    8 1    
    13    6    7 ar   
    14    6   37 1    
    15    7   38 1    
    16    8   12 ar   
    17    8    9 ar   
    18    9   10 ar   
    19    9   27 1    
    20   10   11 ar   
    21   11   12 ar   
    22   12   13 1    
    23   13   14 1    
    24   14   15 1    
    25   14   39 1    
    26   14   40 1    
    27   15   16 2    
    28   15   17 am   BACKBONE|DICT|INTERRES
    29   17   18 1    
    30   17   41 1    
    31   18   23 ar   
    32   18   19 ar   
    33   19   20 ar   
    34   19   42 1    
    35   20   21 ar   
    36   20   26 1    
    37   21   22 ar   
    38   21   43 1    
    39   22   23 ar   
    40   22   44 1    
    41   23   24 1    
    42   24   25 2    
    43   24   53 1    
    44   27   31 1    
    45   27   28 1    
    46   28   29 1    
    47   28   45 1    
    48   28   46 1    
    49   29   30 1    
    50   29   47 1    
    51   29   48 1    
    52   30   31 1    
    53   30   49 1    
    54   30   50 1    
    55   31   51 1    
    56   31   52 1    
@<TRIPOS>SUBSTRUCTURE
     1 UNK         1 GROUP             0       ****    0 ROOT    
