ZINC39974389_5413
                    3D
 Schrodinger Suite 2024-2.
 71 74  0  0  1  0            999 V2000
   10.8756   55.6219   17.1354 C   0  0  0  0  0  0
   10.0453   56.8851   17.2654 C   0  0  0  0  0  0
   10.5605   58.1200   16.8634 C   0  0  0  0  0  0
    9.7853   59.2729   16.9834 C   0  0  0  0  0  0
    8.4975   59.1970   17.5137 C   0  0  0  0  0  0
    7.9724   57.9698   17.9321 C   0  0  0  0  0  0
    8.7559   56.8140   17.7970 C   0  0  0  0  0  0
    6.5547   57.9272   18.5095 C   0  0  0  0  0  0
    6.2321   56.7394   19.3043 N   0  0  0  0  0  0
    5.4402   55.6662   18.9680 C   0  0  0  0  0  0
    5.5578   54.7996   20.0494 C   0  0  0  0  0  0
    6.4870   55.4006   20.9234 C   0  0  0  0  0  0
    6.8491   56.5781   20.4807 N   0  0  0  0  0  0
    7.1042   54.8964   22.2077 C   0  0  0  0  0  0
    4.9388   53.5620   20.1444 N   0  0  0  0  0  0
    3.9860   53.2117   21.0636 C   0  0  0  0  0  0
    3.6281   54.0575   22.4814 S   0  0  0  0  0  0
    3.3108   52.0947   20.6526 N   0  0  0  0  0  0
    2.1640   51.4925   21.1922 C   0  0  0  0  0  0
    2.2093   50.1372   21.5139 C   0  0  0  0  0  0
    1.0989   49.5326   22.0917 C   0  0  0  0  0  0
   -0.0588   50.2741   22.3297 C   0  0  0  0  0  0
   -0.1219   51.6175   21.9624 C   0  0  0  0  0  0
    0.9860   52.2236   21.3833 C   0  0  0  0  0  0
   -1.4728   49.5410   23.1450 S   0  0  0  0  0  0
   -2.6534   50.0796   22.4584 O   0  0  0  0  0  0
   -1.2595   48.0895   23.2023 O   0  0  0  0  0  0
   -1.4266   50.2153   24.8024 N   0  0  0  0  0  0
   -2.6085   50.9990   25.2671 C   0  0  2  0  0  0
   -3.1089   51.4181   24.3933 H   0  0  0  0  0  0
   -2.1464   52.1858   26.1393 C   0  0  0  0  0  0
   -1.2676   51.7234   27.3197 C   0  0  0  0  0  0
   -0.0709   50.8868   26.8191 C   0  0  0  0  0  0
   -0.5109   49.7227   25.8957 C   0  0  2  0  0  0
   -1.0881   49.0114   26.4815 H   0  0  0  0  0  0
    0.7081   48.9412   25.3802 C   0  0  0  0  0  0
   -3.6022   50.0431   25.9584 C   0  0  0  0  0  0
    4.6533   55.5800   17.6770 C   0  0  0  0  0  0
   10.4501   54.9631   16.3770 H   0  0  0  0  0  0
   11.9138   55.8380   16.8794 H   0  0  0  0  0  0
   10.8768   55.0745   18.0798 H   0  0  0  0  0  0
   11.5578   58.1862   16.4538 H   0  0  0  0  0  0
   10.1798   60.2238   16.6587 H   0  0  0  0  0  0
    7.9044   60.0970   17.5961 H   0  0  0  0  0  0
    8.3712   55.8518   18.1023 H   0  0  0  0  0  0
    6.4022   58.7998   19.1487 H   0  0  0  0  0  0
    5.8330   58.0228   17.6983 H   0  0  0  0  0  0
    6.6785   53.9476   22.5358 H   0  0  0  0  0  0
    8.1752   54.7300   22.0816 H   0  0  0  0  0  0
    6.9773   55.6052   23.0289 H   0  0  0  0  0  0
    4.9933   52.9877   19.3143 H   0  0  0  0  0  0
    3.7216   51.5852   19.8820 H   0  0  0  0  0  0
    3.1043   49.5576   21.3471 H   0  0  0  0  0  0
    1.1543   48.4969   22.3822 H   0  0  0  0  0  0
   -1.0182   52.1943   22.1417 H   0  0  0  0  0  0
    0.9418   53.2689   21.1110 H   0  0  0  0  0  0
   -1.5312   52.8469   25.5278 H   0  0  0  0  0  0
   -2.9964   52.7744   26.4813 H   0  0  0  0  0  0
   -0.8989   52.5863   27.8772 H   0  0  0  0  0  0
   -1.8576   51.1341   28.0242 H   0  0  0  0  0  0
    0.6007   51.5543   26.2790 H   0  0  0  0  0  0
    0.4482   50.4977   27.6948 H   0  0  0  0  0  0
    1.3379   48.6387   26.2174 H   0  0  0  0  0  0
    0.4457   48.0125   24.8797 H   0  0  0  0  0  0
    1.3308   49.5439   24.7230 H   0  0  0  0  0  0
   -4.5083   50.5744   26.2447 H   0  0  0  0  0  0
   -3.9037   49.2367   25.2892 H   0  0  0  0  0  0
   -3.1976   49.5885   26.8636 H   0  0  0  0  0  0
    4.1144   54.6366   17.5889 H   0  0  0  0  0  0
    3.9124   56.3769   17.6049 H   0  0  0  0  0  0
    5.3014   55.6594   16.8038 H   0  0  0  0  0  0
  1  2  1  0  0  0
  1 39  1  0  0  0
  1 40  1  0  0  0
  1 41  1  0  0  0
  2  7  2  0  0  0
  2  3  1  0  0  0
  3  4  2  0  0  0
  3 42  1  0  0  0
  4  5  1  0  0  0
  4 43  1  0  0  0
  5  6  2  0  0  0
  5 44  1  0  0  0
  6  7  1  0  0  0
  6  8  1  0  0  0
  7 45  1  0  0  0
  8  9  1  0  0  0
  8 46  1  0  0  0
  8 47  1  0  0  0
  9 13  1  0  0  0
  9 10  1  0  0  0
 10 11  2  0  0  0
 10 38  1  0  0  0
 11 12  1  0  0  0
 11 15  1  0  0  0
 12 13  2  0  0  0
 12 14  1  0  0  0
 14 48  1  0  0  0
 14 49  1  0  0  0
 14 50  1  0  0  0
 15 16  1  0  0  0
 15 51  1  0  0  0
 16 17  2  0  0  0
 16 18  1  0  0  0
 18 19  1  0  0  0
 18 52  1  0  0  0
 19 24  2  0  0  0
 19 20  1  0  0  0
 20 21  2  0  0  0
 20 53  1  0  0  0
 21 22  1  0  0  0
 21 54  1  0  0  0
 22 23  2  0  0  0
 22 25  1  0  0  0
 23 24  1  0  0  0
 23 55  1  0  0  0
 24 56  1  0  0  0
 25 26  2  0  0  0
 25 27  2  0  0  0
 25 28  1  0  0  0
 28 34  1  0  0  0
 28 29  1  0  0  0
 29 30  1  0  0  0
 29 31  1  0  0  0
 29 37  1  0  0  0
 31 32  1  0  0  0
 31 57  1  0  0  0
 31 58  1  0  0  0
 32 33  1  0  0  0
 32 59  1  0  0  0
 32 60  1  0  0  0
 33 34  1  0  0  0
 33 61  1  0  0  0
 33 62  1  0  0  0
 34 35  1  0  0  0
 34 36  1  0  0  0
 36 63  1  0  0  0
 36 64  1  0  0  0
 36 65  1  0  0  0
 37 66  1  0  0  0
 37 67  1  0  0  0
 37 68  1  0  0  0
 38 69  1  0  0  0
 38 70  1  0  0  0
 38 71  1  0  0  0
M  END
> <i_i_glide_confnum>
18

> <i_i_glide_lignum>
5414

> <i_i_glide_posenum>
332

> <i_i_glide_rotatable_bonds>
8

> <i_m_Source_File_Index>
1523

> <b_m_subgroup_collapsed>
0

> <r_i_docking_score>
-2.66022

> <r_i_glide_ecoul>
-4.26758

> <r_i_glide_eff_state_penalty>
0

> <r_i_glide_einternal>
5.24391

> <r_i_glide_emodel>
-46.863

> <r_i_glide_energy>
-44.0974

> <r_i_glide_erotb>
0.595806

> <r_i_glide_esite>
-0.0593658

> <r_i_glide_evdw>
-39.8299

> <r_i_glide_gscore>
-2.66022

> <r_i_glide_hbond>
-0.283309

> <r_i_glide_ligand_efficiency>
-0.0738949

> <r_i_glide_ligand_efficiency_ln>
-0.580388

> <r_i_glide_ligand_efficiency_sa>
-0.243996

> <r_i_glide_lipo>
-0.811465

> <r_i_glide_metal>
0

> <r_i_glide_rewards>
0.529746

> <s_i_glide_gridfile>
wee1_glide-grid

> <s_m_Source_File>
wee1_decoys_glide_SP.sdf

> <s_m_Source_Path>
/Users/zhangxujun/Desktop

> <s_m_entry_id>
1798

> <s_m_entry_name>
wee1_decoys_glide_SP.1523

> <s_m_subgroup_title>
wee1_decoys_glide_SP

> <s_m_subgroupid>
wee1_decoys_glide_SP


$$$$
