ZINC39836471_5310
                    3D
 Schrodinger Suite 2024-2.
 66 69  0  0  1  0            999 V2000
    0.8890   53.7434   29.6772 C   0  0  0  0  0  0
    2.2540   53.6579   28.9476 C   0  0  0  0  0  0
    3.0975   54.8741   29.4016 C   0  0  0  0  0  0
    2.9760   52.3711   29.4311 C   0  0  0  0  0  0
    2.0457   53.6887   27.3838 C   0  0  2  0  0  0
    1.4101   54.5504   27.1876 H   0  0  0  0  0  0
    1.3115   52.4396   26.8358 C   0  0  0  0  0  0
    0.9110   52.5545   25.3493 C   0  0  0  0  0  0
    2.0957   53.0452   24.5043 C   0  0  0  0  0  0
    3.1751   53.6968   25.1118 C   0  0  0  0  0  0
    4.3958   54.1351   23.9808 S   0  0  0  0  0  0
    3.5010   53.4436   22.6526 C   0  0  0  0  0  0
    2.2892   52.8676   23.1007 C   0  0  0  0  0  0
    1.4131   52.0619   22.2704 C   0  0  0  0  0  0
    0.9006   51.0265   22.6952 O   0  0  0  0  0  0
    1.2422   52.4966   21.0073 N   0  0  0  0  0  0
    0.5137   51.7591   19.9767 C   0  0  2  0  0  0
    0.9707   50.7870   19.7698 H   0  0  0  0  0  0
    0.5517   52.5600   18.6560 C   0  0  0  0  0  0
   -0.4542   51.9532   17.6695 C   0  0  0  0  0  0
   -1.9074   51.4500   18.7360 S   0  0  0  0  0  0
   -2.2597   50.0584   18.4431 O   0  0  0  0  0  0
   -2.9319   52.4978   18.7416 O   0  0  0  0  0  0
   -0.9704   51.5555   20.3469 C   0  0  0  0  0  0
    4.0364   53.3738   21.3598 N   0  0  0  0  0  0
    5.1043   54.0326   20.8600 C   0  0  0  0  0  0
    5.7445   54.8967   21.4625 O   0  0  0  0  0  0
    5.4719   53.5921   19.5327 C   0  0  0  0  0  0
    6.5462   54.0974   18.8833 C   0  0  0  0  0  0
    7.0402   53.7093   17.5454 C   0  0  0  0  0  0
    6.2983   52.8970   16.6779 C   0  0  0  0  0  0
    6.8164   52.5327   15.4378 C   0  0  0  0  0  0
    8.0780   52.9824   15.0566 C   0  0  0  0  0  0
    8.8271   53.7906   15.9086 C   0  0  0  0  0  0
    8.3085   54.1517   17.1505 C   0  0  0  0  0  0
    3.3775   53.8974   26.6052 C   0  0  0  0  0  0
    0.2808   52.8524   29.5257 H   0  0  0  0  0  0
    1.0114   53.8518   30.7565 H   0  0  0  0  0  0
    0.3059   54.5975   29.3352 H   0  0  0  0  0  0
    4.1182   54.8424   29.0200 H   0  0  0  0  0  0
    2.6525   55.8191   29.0866 H   0  0  0  0  0  0
    3.1883   54.8969   30.4817 H   0  0  0  0  0  0
    3.9481   52.2368   28.9577 H   0  0  0  0  0  0
    3.1513   52.3952   30.5080 H   0  0  0  0  0  0
    2.3890   51.4743   29.2332 H   0  0  0  0  0  0
    1.9043   51.5477   27.0175 H   0  0  0  0  0  0
    0.3971   52.2635   27.4006 H   0  0  0  0  0  0
    0.0773   53.2453   25.2331 H   0  0  0  0  0  0
    0.5373   51.5831   25.0311 H   0  0  0  0  0  0
    1.5090   53.4481   20.7763 H   0  0  0  0  0  0
    1.5608   52.5801   18.2405 H   0  0  0  0  0  0
    0.3044   53.6064   18.8384 H   0  0  0  0  0  0
   -0.0178   51.0346   17.2755 H   0  0  0  0  0  0
   -0.7781   52.5575   16.8226 H   0  0  0  0  0  0
   -1.3229   52.4933   20.7736 H   0  0  0  0  0  0
   -1.2339   50.7627   21.0459 H   0  0  0  0  0  0
    3.5330   52.7815   20.7155 H   0  0  0  0  0  0
    4.8614   52.8210   19.0834 H   0  0  0  0  0  0
    7.1278   54.8706   19.3690 H   0  0  0  0  0  0
    5.3271   52.5158   16.9596 H   0  0  0  0  0  0
    6.2431   51.8943   14.7804 H   0  0  0  0  0  0
    8.4816   52.6954   14.0959 H   0  0  0  0  0  0
    9.8079   54.1310   15.6098 H   0  0  0  0  0  0
    8.9055   54.7701   17.8060 H   0  0  0  0  0  0
    4.1289   53.1844   26.9428 H   0  0  0  0  0  0
    3.7762   54.8962   26.7803 H   0  0  0  0  0  0
  1  2  1  0  0  0
  1 37  1  0  0  0
  1 38  1  0  0  0
  1 39  1  0  0  0
  2  3  1  0  0  0
  2  4  1  0  0  0
  2  5  1  0  0  0
  3 40  1  0  0  0
  3 41  1  0  0  0
  3 42  1  0  0  0
  4 43  1  0  0  0
  4 44  1  0  0  0
  4 45  1  0  0  0
  5  6  1  0  0  0
  5 36  1  0  0  0
  5  7  1  0  0  0
  7  8  1  0  0  0
  7 46  1  0  0  0
  7 47  1  0  0  0
  8  9  1  0  0  0
  8 48  1  0  0  0
  8 49  1  0  0  0
  9 13  1  0  0  0
  9 10  2  0  0  0
 10 11  1  0  0  0
 10 36  1  0  0  0
 11 12  1  0  0  0
 12 13  2  0  0  0
 12 25  1  0  0  0
 13 14  1  0  0  0
 14 15  2  0  0  0
 14 16  1  0  0  0
 16 17  1  0  0  0
 16 50  1  0  0  0
 17 18  1  0  0  0
 17 24  1  0  0  0
 17 19  1  0  0  0
 19 20  1  0  0  0
 19 51  1  0  0  0
 19 52  1  0  0  0
 20 21  1  0  0  0
 20 53  1  0  0  0
 20 54  1  0  0  0
 21 22  2  0  0  0
 21 23  2  0  0  0
 21 24  1  0  0  0
 24 55  1  0  0  0
 24 56  1  0  0  0
 25 26  1  0  0  0
 25 57  1  0  0  0
 26 27  2  0  0  0
 26 28  1  0  0  0
 28 29  2  0  0  0
 28 58  1  0  0  0
 29 30  1  0  0  0
 29 59  1  0  0  0
 30 35  2  0  0  0
 30 31  1  0  0  0
 31 32  2  0  0  0
 31 60  1  0  0  0
 32 33  1  0  0  0
 32 61  1  0  0  0
 33 34  2  0  0  0
 33 62  1  0  0  0
 34 35  1  0  0  0
 34 63  1  0  0  0
 35 64  1  0  0  0
 36 65  1  0  0  0
 36 66  1  0  0  0
M  END
> <i_i_glide_confnum>
103

> <i_i_glide_lignum>
5311

> <i_i_glide_posenum>
246

> <i_i_glide_rotatable_bonds>
8

> <i_m_Source_File_Index>
543

> <b_m_subgroup_collapsed>
0

> <r_i_docking_score>
-5.1473

> <r_i_glide_ecoul>
-5.92162

> <r_i_glide_eff_state_penalty>
0

> <r_i_glide_einternal>
6.81832

> <r_i_glide_emodel>
-56.9237

> <r_i_glide_energy>
-42.9198

> <r_i_glide_erotb>
0.488789

> <r_i_glide_esite>
-0.0996057

> <r_i_glide_evdw>
-36.9982

> <r_i_glide_gscore>
-5.1473

> <r_i_glide_hbond>
-0.32

> <r_i_glide_ligand_efficiency>
-0.151391

> <r_i_glide_ligand_efficiency_ln>
-1.13718

> <r_i_glide_ligand_efficiency_sa>
-0.490448

> <r_i_glide_lipo>
-2.26954

> <r_i_glide_metal>
0

> <r_i_glide_rewards>
-0.208788

> <s_i_glide_gridfile>
wee1_glide-grid

> <s_m_Source_File>
wee1_decoys_glide_SP.sdf

> <s_m_Source_Path>
/Users/zhangxujun/Desktop

> <s_m_entry_id>
818

> <s_m_entry_name>
wee1_decoys_glide_SP.543

> <s_m_subgroup_title>
wee1_decoys_glide_SP

> <s_m_subgroupid>
wee1_decoys_glide_SP


$$$$
