@<TRIPOS>MOLECULE
ZINC15868402_934
59   62    1
SMALL
USER_CHARGES


@<TRIPOS>ATOM
      1 C1         -0.0103   52.2625   29.8666 C.3       1 UNK         0.0000 
      2 C2          1.2313   52.7978   29.1386 C.3       1 UNK         0.0000 
      3 C3          2.5216   52.1066   29.6241 C.3       1 UNK         0.0000 
      4 N4          1.0639   52.6885   27.6914 N.am      1 UNK         0.0000 
      5 C5          1.8212   53.2964   26.7594 C.2       1 UNK         0.0000 
      6 O6          2.7009   54.1129   27.0388 O.2       1 UNK         0.0000 
      7 C7          1.5322   52.9224   25.3222 C.ar      1 UNK         0.0000 
      8 C8          1.9024   53.7854   24.2830 C.ar      1 UNK         0.0000 
      9 C9          1.7170   53.4146   22.9542 C.ar      1 UNK         0.0000 
     10 C10         1.2012   52.1543   22.6295 C.ar      1 UNK         0.0000 
     11 C11         0.7842   51.3136   23.6692 C.ar      1 UNK         0.0000 
     12 C12         0.9382   51.6962   24.9962 C.ar      1 UNK         0.0000 
     13 C13         1.0572   51.7345   21.1547 C.3       1 UNK         0.0000 
     14 H14         0.1348   52.2474   20.8776 H         1 UNK         0.0000 
     15 N15         0.7728   50.3113   20.9346 N.pl3     1 UNK         0.0000 
     16 C16         0.8577   49.7351   19.6515 C.ar      1 UNK         0.0000 
     17 C17         0.5993   48.3675   19.5369 C.ar      1 UNK         0.0000 
     18 C18         0.7199   47.7251   18.3044 C.ar      1 UNK         0.0000 
     19 C19         1.1044   48.4512   17.1780 C.ar      1 UNK         0.0000 
     20 C20         1.3709   49.8151   17.2827 C.ar      1 UNK         0.0000 
     21 C21         1.2417   50.4647   18.5112 C.ar      1 UNK         0.0000 
     22 S22         1.5394   52.2246   18.5825 S.o2      1 UNK         0.0000 
     23 O23         0.2357   52.8956   18.4812 O.2       1 UNK         0.0000 
     24 O24         2.6034   52.5865   17.6409 O.2       1 UNK         0.0000 
     25 N25         2.1092   52.2846   20.2556 N.pl3     1 UNK         0.0000 
     26 C26         3.5153   51.8406   20.4947 C.3       1 UNK         0.0000 
     27 C27         4.4513   53.0172   20.7628 C.ar      1 UNK         0.0000 
     28 C28         4.9137   53.8260   19.7202 C.ar      1 UNK         0.0000 
     29 C29         5.7735   54.8934   19.9866 C.ar      1 UNK         0.0000 
     30 C30         6.1868   55.1546   21.2930 C.ar      1 UNK         0.0000 
     31 C31         5.7354   54.3526   22.3500 C.ar      1 UNK         0.0000 
     32 C32         4.8629   53.2966   22.0690 C.ar      1 UNK         0.0000 
     33 C33         6.1770   54.5964   23.7913 C.3       1 UNK         0.0000 
     34 F34         6.7047   55.8041   23.9657 F         1 UNK         0.0000 
     35 F35         5.1478   54.4747   24.6292 F         1 UNK         0.0000 
     36 F36         7.1042   53.6967   24.1183 F         1 UNK         0.0000 
     37 H37         0.1196   52.2962   30.9480 H         1 UNK         0.0000 
     38 H38        -0.2102   51.2216   29.6123 H         1 UNK         0.0000 
     39 H39        -0.8952   52.8554   29.6387 H         1 UNK         0.0000 
     40 H40         1.3030   53.8616   29.3841 H         1 UNK         0.0000 
     41 H41         2.5754   52.0988   30.7139 H         1 UNK         0.0000 
     42 H42         2.5650   51.0689   29.2819 H         1 UNK         0.0000 
     43 H43         3.4094   52.6310   29.2658 H         1 UNK         0.0000 
     44 H44         0.3001   52.1086   27.3783 H         1 UNK         0.0000 
     45 H45         2.3545   54.7450   24.4911 H         1 UNK         0.0000 
     46 H46         2.0140   54.0971   22.1709 H         1 UNK         0.0000 
     47 H47         0.3548   50.3450   23.4704 H         1 UNK         0.0000 
     48 H48         0.6413   50.9951   25.7625 H         1 UNK         0.0000 
     49 H49         0.4442   49.7876   21.7332 H         1 UNK         0.0000 
     50 H50         0.3118   47.7927   20.4058 H         1 UNK         0.0000 
     51 H51         0.5269   46.6660   18.2232 H         1 UNK         0.0000 
     52 H52         1.2189   47.9569   16.2254 H         1 UNK         0.0000 
     53 H53         1.6894   50.3658   16.4077 H         1 UNK         0.0000 
     54 H54         3.5332   51.1569   21.3450 H         1 UNK         0.0000 
     55 H55         3.8793   51.2693   19.6375 H         1 UNK         0.0000 
     56 H56         4.6194   53.6242   18.7020 H         1 UNK         0.0000 
     57 H57         6.1273   55.5118   19.1742 H         1 UNK         0.0000 
     58 H58         6.8638   55.9749   21.4797 H         1 UNK         0.0000 
     59 H59         4.4956   52.6926   22.8813 H         1 UNK         0.0000 
@<TRIPOS>BOND
     1    1    2 1    
     2    1   37 1    
     3    1   38 1    
     4    1   39 1    
     5    2    3 1    
     6    2    4 1    
     7    2   40 1    
     8    3   41 1    
     9    3   42 1    
    10    3   43 1    
    11    4    5 am   BACKBONE|DICT|INTERRES
    12    4   44 1    
    13    5    6 2    
    14    5    7 1    
    15    7   12 ar   
    16    7    8 ar   
    17    8    9 ar   
    18    8   45 1    
    19    9   10 ar   
    20    9   46 1    
    21   10   11 ar   
    22   10   13 1    
    23   11   12 ar   
    24   11   47 1    
    25   12   48 1    
    26   13   14 1    
    27   13   25 1    
    28   13   15 1    
    29   15   16 1    
    30   15   49 1    
    31   16   21 ar   
    32   16   17 ar   
    33   17   18 ar   
    34   17   50 1    
    35   18   19 ar   
    36   18   51 1    
    37   19   20 ar   
    38   19   52 1    
    39   20   21 ar   
    40   20   53 1    
    41   21   22 1    
    42   22   23 2    
    43   22   24 2    
    44   22   25 1    
    45   25   26 1    
    46   26   27 1    
    47   26   54 1    
    48   26   55 1    
    49   27   32 ar   
    50   27   28 ar   
    51   28   29 ar   
    52   28   56 1    
    53   29   30 ar   
    54   29   57 1    
    55   30   31 ar   
    56   30   58 1    
    57   31   32 ar   
    58   31   33 1    
    59   32   59 1    
    60   33   34 1    
    61   33   35 1    
    62   33   36 1    
@<TRIPOS>SUBSTRUCTURE
     1 UNK         1 GROUP             0       ****    0 ROOT    
