ZINC12533004_2708
                    3D
 Schrodinger Suite 2024-2.
 54 59  0  0  1  0            999 V2000
    3.9256   56.7862   14.7227 C   0  0  0  0  0  0
    4.0147   56.2810   16.1749 C   0  0  1  0  0  0
    3.2151   56.7784   16.7297 H   0  0  0  0  0  0
    3.8493   54.7485   16.2483 C   0  0  0  0  0  0
    3.7111   54.2441   17.7008 C   0  0  0  0  0  0
    4.7681   54.9138   18.5830 C   0  0  0  0  0  0
    5.5026   56.0279   18.1654 C   0  0  0  0  0  0
    6.6708   56.5878   19.3399 S   0  0  0  0  0  0
    6.1098   55.3874   20.4790 C   0  0  0  0  0  0
    5.0896   54.5508   19.9331 C   0  0  0  0  0  0
    4.5943   53.5613   20.8207 C   0  0  0  0  0  0
    5.0432   53.4626   22.0954 N   0  0  0  0  0  0
    6.0114   54.3311   22.4734 C   0  0  0  0  0  0
    6.5948   55.2974   21.7196 N   0  0  0  0  0  0
    6.4892   54.2278   23.9044 C   0  0  0  0  0  0
    5.9215   55.6273   24.9085 S   0  0  0  0  0  0
    4.6894   54.7621   25.8285 C   0  0  0  0  0  0
    3.5039   54.4891   25.3530 N   0  0  0  0  0  0
    2.8015   53.8412   26.3578 N   0  0  0  0  0  0
    3.5758   53.7472   27.4165 C   0  0  0  0  0  0
    4.8222   54.2932   27.1223 N   0  0  0  0  0  0
    5.9957   54.4750   27.9786 C   0  0  0  0  0  0
    6.8773   53.2971   28.3323 C   0  0  0  0  0  0
    7.3788   54.2831   27.3621 C   0  0  0  0  0  0
    3.0707   53.1772   28.7237 C   0  0  0  0  0  0
    1.6922   53.2010   29.0029 C   0  0  0  0  0  0
    1.2200   52.6746   30.2082 C   0  0  0  0  0  0
    2.0371   52.1371   31.1476 N   0  0  0  0  0  0
    3.3647   52.1123   30.8800 C   0  0  0  0  0  0
    3.9037   52.5977   29.6892 C   0  0  0  0  0  0
    3.6171   52.6407   20.4477 N   0  0  0  0  0  0
    5.3732   56.6861   16.7967 C   0  0  0  0  0  0
    4.6966   56.3381   14.0944 H   0  0  0  0  0  0
    2.9576   56.5469   14.2809 H   0  0  0  0  0  0
    4.0425   57.8704   14.6754 H   0  0  0  0  0  0
    4.6672   54.2499   15.7239 H   0  0  0  0  0  0
    2.9583   54.4508   15.6953 H   0  0  0  0  0  0
    2.7127   54.4625   18.0810 H   0  0  0  0  0  0
    3.8201   53.1588   17.7058 H   0  0  0  0  0  0
    6.1582   53.2962   24.3513 H   0  0  0  0  0  0
    7.5744   54.1795   23.9156 H   0  0  0  0  0  0
    5.8706   55.2745   28.7096 H   0  0  0  0  0  0
    7.3953   53.2969   29.2815 H   0  0  0  0  0  0
    6.6035   52.3029   27.9884 H   0  0  0  0  0  0
    7.5043   53.9232   26.3475 H   0  0  0  0  0  0
    8.2019   54.9010   27.6902 H   0  0  0  0  0  0
    0.9926   53.6237   28.2964 H   0  0  0  0  0  0
    0.1640   52.6777   30.4429 H   0  0  0  0  0  0
    4.0032   51.6942   31.6432 H   0  0  0  0  0  0
    4.9551   52.4934   29.5369 H   0  0  0  0  0  0
    3.2632   52.6500   19.5007 H   0  0  0  0  0  0
    3.2971   51.9583   21.1173 H   0  0  0  0  0  0
    6.1931   56.3545   16.1591 H   0  0  0  0  0  0
    5.4466   57.7721   16.8746 H   0  0  0  0  0  0
  1  2  1  0  0  0
  1 33  1  0  0  0
  1 34  1  0  0  0
  1 35  1  0  0  0
  2  3  1  0  0  0
  2 32  1  0  0  0
  2  4  1  0  0  0
  4  5  1  0  0  0
  4 36  1  0  0  0
  4 37  1  0  0  0
  5  6  1  0  0  0
  5 38  1  0  0  0
  5 39  1  0  0  0
  6 10  1  0  0  0
  6  7  2  0  0  0
  7  8  1  0  0  0
  7 32  1  0  0  0
  8  9  1  0  0  0
  9 14  2  0  0  0
  9 10  1  0  0  0
 10 11  2  0  0  0
 11 12  1  0  0  0
 11 31  1  0  0  0
 12 13  2  0  0  0
 13 14  1  0  0  0
 13 15  1  0  0  0
 15 16  1  0  0  0
 15 40  1  0  0  0
 15 41  1  0  0  0
 16 17  1  0  0  0
 17 21  1  0  0  0
 17 18  2  0  0  0
 18 19  1  0  0  0
 19 20  2  0  0  0
 20 21  1  0  0  0
 20 25  1  0  0  0
 21 22  1  0  0  0
 22 24  1  0  0  0
 22 23  1  0  0  0
 22 42  1  0  0  0
 23 24  1  0  0  0
 23 43  1  0  0  0
 23 44  1  0  0  0
 24 45  1  0  0  0
 24 46  1  0  0  0
 25 30  2  0  0  0
 25 26  1  0  0  0
 26 27  2  0  0  0
 26 47  1  0  0  0
 27 28  1  0  0  0
 27 48  1  0  0  0
 28 29  2  0  0  0
 29 30  1  0  0  0
 29 49  1  0  0  0
 30 50  1  0  0  0
 31 51  1  0  0  0
 31 52  1  0  0  0
 32 53  1  0  0  0
 32 54  1  0  0  0
M  END
> <i_i_glide_confnum>
237

> <i_i_glide_lignum>
2709

> <i_i_glide_posenum>
391

> <i_i_glide_rotatable_bonds>
5

> <i_m_Source_File_Index>
5857

> <b_m_subgroup_collapsed>
0

> <r_i_docking_score>
-6.19988

> <r_i_glide_ecoul>
-2.65627

> <r_i_glide_eff_state_penalty>
0

> <r_i_glide_einternal>
3.70087

> <r_i_glide_emodel>
-65.1735

> <r_i_glide_energy>
-48.3441

> <r_i_glide_erotb>
0.495757

> <r_i_glide_esite>
0

> <r_i_glide_evdw>
-45.6878

> <r_i_glide_gscore>
-6.19988

> <r_i_glide_hbond>
-0.203864

> <r_i_glide_ligand_efficiency>
-0.199996

> <r_i_glide_ligand_efficiency_ln>
-1.39826

> <r_i_glide_ligand_efficiency_sa>
-0.628264

> <r_i_glide_lipo>
-2.10496

> <r_i_glide_metal>
0

> <r_i_glide_rewards>
-1.70399

> <s_i_glide_gridfile>
wee1_glide-grid

> <s_m_Source_File>
wee1_decoys_glide_SP.sdf

> <s_m_Source_Path>
/Users/zhangxujun/Desktop

> <s_m_entry_id>
6132

> <s_m_entry_name>
wee1_decoys_glide_SP.5857

> <s_m_subgroup_title>
wee1_decoys_glide_SP

> <s_m_subgroupid>
wee1_decoys_glide_SP


$$$$
