ZINC13048892_5967
                    3D
 Schrodinger Suite 2024-2.
 69 73  0  0  1  0            999 V2000
   -5.9616   51.3304   26.0638 C   0  0  0  0  0  0
   -4.8662   51.1681   27.1454 C   0  0  1  0  0  0
   -4.5915   52.1760   27.4657 H   0  0  0  0  0  0
   -5.3289   50.4170   28.4453 C   0  0  0  0  0  0
   -6.4788   51.1828   29.1810 C   0  0  0  0  0  0
   -6.9035   50.4480   30.4824 C   0  0  2  0  0  0
   -5.6942   50.3511   31.4453 C   0  0  0  0  0  0
   -4.5509   49.5748   30.7522 C   0  0  2  0  0  0
   -4.1344   50.3058   29.4530 C   0  0  0  0  0  0
   -5.0283   48.1445   30.3880 C   0  0  0  0  0  0
   -6.2457   48.2323   29.4359 C   0  0  1  0  0  0
   -7.3910   49.0197   30.1285 C   0  0  0  0  0  0
   -5.8274   48.9647   28.1373 C   0  0  0  0  0  0
   -3.6527   50.5737   26.5699 N   0  0  0  0  0  0
   -2.8018   51.1757   25.7208 C   0  0  0  0  0  0
   -2.9391   52.3438   25.3576 O   0  0  0  0  0  0
   -1.6392   50.3081   25.2238 C   0  0  0  0  0  0
   -0.7845   50.9642   23.7392 S   0  0  0  0  0  0
    0.5402   52.0037   24.4273 C   0  0  0  0  0  0
    0.6977   51.9752   25.6985 N   0  0  0  0  0  0
    1.7057   52.7049   26.3240 C   0  0  0  0  0  0
    1.9182   52.5003   27.6824 C   0  0  0  0  0  0
    2.9644   53.1665   28.3390 C   0  0  0  0  0  0
    3.7309   54.0989   27.6186 C   0  0  0  0  0  0
    3.5084   54.3169   26.2576 C   0  0  0  0  0  0
    2.5084   53.5854   25.6075 C   0  0  0  0  0  0
    2.2985   53.6939   24.1159 C   0  0  0  0  0  0
    2.9258   54.4967   23.4184 O   0  0  0  0  0  0
    1.3510   52.8077   23.6286 N   0  0  0  0  0  0
    1.2548   52.7298   22.1420 C   0  0  0  0  0  0
    2.2395   51.7666   21.4105 C   0  0  0  0  0  0
    3.6615   52.3421   21.2737 C   0  0  0  0  0  0
    2.2704   50.3295   21.9672 C   0  0  0  0  0  0
    3.2780   52.8692   29.7733 C   0  0  0  0  0  0
    3.1044   51.6973   30.1844 O   0  0  0  0  0  0
    3.7017   53.8100   30.4795 O   0  5  0  0  0  0
   -6.8799   51.7475   26.4668 H   0  0  0  0  0  0
   -5.6462   52.0158   25.2767 H   0  0  0  0  0  0
   -6.2210   50.3778   25.6069 H   0  0  0  0  0  0
   -6.1642   52.1990   29.4170 H   0  0  0  0  0  0
   -7.3569   51.2794   28.5433 H   0  0  0  0  0  0
   -7.7093   50.9999   30.9680 H   0  0  0  0  0  0
   -5.9773   49.8488   32.3720 H   0  0  0  0  0  0
   -5.3506   51.3428   31.7375 H   0  0  0  0  0  0
   -3.6947   49.5226   31.4249 H   0  0  0  0  0  0
   -3.2968   49.7624   29.0134 H   0  0  0  0  0  0
   -3.7444   51.2966   29.6818 H   0  0  0  0  0  0
   -4.2139   47.5882   29.9196 H   0  0  0  0  0  0
   -5.2992   47.5879   31.2839 H   0  0  0  0  0  0
   -6.5906   47.2265   29.1922 H   0  0  0  0  0  0
   -7.7174   48.4980   31.0312 H   0  0  0  0  0  0
   -8.2640   49.0695   29.4757 H   0  0  0  0  0  0
   -6.6742   48.9832   27.4493 H   0  0  0  0  0  0
   -5.0461   48.3920   27.6311 H   0  0  0  0  0  0
   -3.3950   49.6655   26.9315 H   0  0  0  0  0  0
   -2.0472   49.3369   24.9463 H   0  0  0  0  0  0
   -0.9527   50.1143   26.0461 H   0  0  0  0  0  0
    1.3046   51.7829   28.2097 H   0  0  0  0  0  0
    4.5297   54.6356   28.1132 H   0  0  0  0  0  0
    4.1352   55.0085   25.7154 H   0  0  0  0  0  0
    0.2404   52.4537   21.8543 H   0  0  0  0  0  0
    1.3627   53.7213   21.7036 H   0  0  0  0  0  0
    1.8639   51.6969   20.3852 H   0  0  0  0  0  0
    4.1649   52.4223   22.2373 H   0  0  0  0  0  0
    4.2785   51.7158   20.6281 H   0  0  0  0  0  0
    3.6401   53.3399   20.8299 H   0  0  0  0  0  0
    2.6409   50.2966   22.9913 H   0  0  0  0  0  0
    1.2786   49.8773   21.9547 H   0  0  0  0  0  0
    2.9172   49.6916   21.3647 H   0  0  0  0  0  0
  1  2  1  0  0  0
  1 37  1  0  0  0
  1 38  1  0  0  0
  1 39  1  0  0  0
  2  3  1  0  0  0
  2  4  1  0  0  0
  2 14  1  0  0  0
  4  9  1  0  0  0
  4 13  1  0  0  0
  4  5  1  0  0  0
  5  6  1  0  0  0
  5 40  1  0  0  0
  5 41  1  0  0  0
  6 12  1  0  0  0
  6  7  1  0  0  0
  6 42  1  0  0  0
  7  8  1  0  0  0
  7 43  1  0  0  0
  7 44  1  0  0  0
  8  9  1  0  0  0
  8 10  1  0  0  0
  8 45  1  0  0  0
  9 46  1  0  0  0
  9 47  1  0  0  0
 10 11  1  0  0  0
 10 48  1  0  0  0
 10 49  1  0  0  0
 11 12  1  0  0  0
 11 13  1  0  0  0
 11 50  1  0  0  0
 12 51  1  0  0  0
 12 52  1  0  0  0
 13 53  1  0  0  0
 13 54  1  0  0  0
 14 15  1  0  0  0
 14 55  1  0  0  0
 15 16  2  0  0  0
 15 17  1  0  0  0
 17 18  1  0  0  0
 17 56  1  0  0  0
 17 57  1  0  0  0
 18 19  1  0  0  0
 19 29  1  0  0  0
 19 20  2  0  0  0
 20 21  1  0  0  0
 21 26  2  0  0  0
 21 22  1  0  0  0
 22 23  2  0  0  0
 22 58  1  0  0  0
 23 24  1  0  0  0
 23 34  1  0  0  0
 24 25  2  0  0  0
 24 59  1  0  0  0
 25 26  1  0  0  0
 25 60  1  0  0  0
 26 27  1  0  0  0
 27 28  2  0  0  0
 27 29  1  0  0  0
 29 30  1  0  0  0
 30 31  1  0  0  0
 30 61  1  0  0  0
 30 62  1  0  0  0
 31 32  1  0  0  0
 31 33  1  0  0  0
 31 63  1  0  0  0
 32 64  1  0  0  0
 32 65  1  0  0  0
 32 66  1  0  0  0
 33 67  1  0  0  0
 33 68  1  0  0  0
 33 69  1  0  0  0
 34 35  2  0  0  0
 34 36  1  0  0  0
M  CHG  1  36  -1
M  END
> <i_i_glide_confnum>
18

> <i_i_glide_lignum>
5968

> <i_i_glide_posenum>
2

> <i_i_glide_rotatable_bonds>
9

> <i_m_Source_File_Index>
3584

> <b_m_subgroup_collapsed>
0

> <r_i_docking_score>
-5.74673

> <r_i_glide_ecoul>
-11.0235

> <r_i_glide_eff_state_penalty>
0

> <r_i_glide_einternal>
2.8148

> <r_i_glide_emodel>
-64.5451

> <r_i_glide_energy>
-47.3262

> <r_i_glide_erotb>
0.496089

> <r_i_glide_esite>
-0.0648425

> <r_i_glide_evdw>
-36.3026

> <r_i_glide_gscore>
-5.74673

> <r_i_glide_hbond>
-0.32

> <r_i_glide_ligand_efficiency>
-0.164192

> <r_i_glide_ligand_efficiency_ln>
-1.26154

> <r_i_glide_ligand_efficiency_sa>
-0.537084

> <r_i_glide_lipo>
-1.72871

> <r_i_glide_metal>
0

> <r_i_glide_rewards>
-0.660608

> <s_i_glide_gridfile>
wee1_glide-grid

> <s_m_Source_File>
wee1_decoys_glide_SP.sdf

> <s_m_Source_Path>
/Users/zhangxujun/Desktop

> <s_m_entry_id>
3859

> <s_m_entry_name>
wee1_decoys_glide_SP.3584

> <s_m_subgroup_title>
wee1_decoys_glide_SP

> <s_m_subgroupid>
wee1_decoys_glide_SP


$$$$
