@<TRIPOS>MOLECULE
ZINC40947240_3743
44   46    1
SMALL
USER_CHARGES


@<TRIPOS>ATOM
      1 C1          4.2697   54.5230   26.2779 C.ar      1 UNK         0.0000 
      2 C2          4.2900   54.4942   24.8866 C.ar      1 UNK         0.0000 
      3 C3          5.4890   54.2640   24.2186 C.ar      1 UNK         0.0000 
      4 C4          6.6733   54.0967   24.9297 C.ar      1 UNK         0.0000 
      5 C5          6.6481   54.1060   26.3223 C.ar      1 UNK         0.0000 
      6 C6          5.4479   54.3080   27.0057 C.ar      1 UNK         0.0000 
      7 C7          5.4826   54.2621   28.5371 C.3       1 UNK         0.0000 
      8 O8          4.2991   54.7658   29.1642 O.3       1 UNK         0.0000 
      9 C9          3.1569   53.9931   29.2351 C.ar      1 UNK         0.0000 
     10 C10         3.0787   52.6505   28.8382 C.ar      1 UNK         0.0000 
     11 C11         1.8525   51.9946   28.8366 C.ar      1 UNK         0.0000 
     12 C12         0.6941   52.6670   29.2385 C.ar      1 UNK         0.0000 
     13 C13         0.7871   53.9788   29.7068 C.ar      1 UNK         0.0000 
     14 C14         2.0098   54.6408   29.6873 C.ar      1 UNK         0.0000 
     15 C15        -0.6329   52.0463   29.1069 C.2       1 UNK         0.0000 
     16 N16        -1.2188   51.6965   28.0226 N.2       1 UNK         0.0000 
     17 N17        -0.5049   51.8532   26.8827 N.am      1 UNK         0.0000 
     18 C18        -1.0062   51.6471   25.6501 C.2       1 UNK         0.0000 
     19 O19        -2.1986   51.4531   25.4021 O.2       1 UNK         0.0000 
     20 C20         0.0063   51.6717   24.5025 C.3       1 UNK         0.0000 
     21 S21         0.3298   49.9932   23.8785 S.3       1 UNK         0.0000 
     22 C22         1.4413   50.2949   22.5381 C.2       1 UNK         0.0000 
     23 N23         1.8114   49.3468   21.7104 N.2       1 UNK         0.0000 
     24 N24         2.7037   49.7769   20.7393 N.2       1 UNK         0.0000 
     25 C25         3.0129   51.0372   20.8708 C.2       1 UNK         0.0000 
     26 S26         2.1910   51.8358   22.1767 S.3       1 UNK         0.0000 
     27 N27         3.9044   51.6967   20.0817 N.pl3     1 UNK         0.0000 
     28 Br28        5.5029   54.1351   22.3214 Br        1 UNK         0.0000 
     29 H29         3.3285   54.7030   26.7717 H         1 UNK         0.0000 
     30 H30         3.3768   54.6341   24.3272 H         1 UNK         0.0000 
     31 H31         7.5977   53.9226   24.3998 H         1 UNK         0.0000 
     32 H32         7.5559   53.9350   26.8800 H         1 UNK         0.0000 
     33 H33         6.3013   54.8963   28.8703 H         1 UNK         0.0000 
     34 H34         5.7368   53.2591   28.8814 H         1 UNK         0.0000 
     35 H35         3.9432   52.1140   28.4800 H         1 UNK         0.0000 
     36 H36         1.8012   50.9722   28.4861 H         1 UNK         0.0000 
     37 H37        -0.0946   54.5115   30.0327 H         1 UNK         0.0000 
     38 H38         2.0634   55.6748   29.9972 H         1 UNK         0.0000 
     39 H39        -1.1418   51.9054   30.0574 H         1 UNK         0.0000 
     40 H40         0.4635   52.0999   27.0211 H         1 UNK         0.0000 
     41 H41         0.9445   52.1298   24.8191 H         1 UNK         0.0000 
     42 H42        -0.4020   52.2833   23.6972 H         1 UNK         0.0000 
     43 H43         4.3938   51.2156   19.3209 H         1 UNK         0.0000 
     44 H44         4.0541   52.6923   20.1545 H         1 UNK         0.0000 
@<TRIPOS>BOND
     1    1    6 ar   
     2    1    2 ar   
     3    1   29 1    
     4    2    3 ar   
     5    2   30 1    
     6    3    4 ar   
     7    3   28 1    
     8    4    5 ar   
     9    4   31 1    
    10    5    6 ar   
    11    5   32 1    
    12    6    7 1    
    13    7    8 1    
    14    7   33 1    
    15    7   34 1    
    16    8    9 1    
    17    9   14 ar   
    18    9   10 ar   
    19   10   11 ar   
    20   10   35 1    
    21   11   12 ar   
    22   11   36 1    
    23   12   13 ar   
    24   12   15 1    
    25   13   14 ar   
    26   13   37 1    
    27   14   38 1    
    28   15   16 2    
    29   15   39 1    
    30   16   17 1    
    31   17   18 am   BACKBONE|DICT|INTERRES
    32   17   40 1    
    33   18   19 2    
    34   18   20 1    
    35   20   21 1    
    36   20   41 1    
    37   20   42 1    
    38   21   22 1    
    39   22   26 1    
    40   22   23 2    
    41   23   24 1    
    42   24   25 2    
    43   25   26 1    
    44   25   27 1    
    45   27   43 1    
    46   27   44 1    
@<TRIPOS>SUBSTRUCTURE
     1 UNK         1 GROUP             0       ****    0 ROOT    
