@<TRIPOS>MOLECULE
ZINC46840244_3285
58   61    1
SMALL
USER_CHARGES


@<TRIPOS>ATOM
      1 C1         -5.5161   45.3182   23.1967 C.3       1 UNK         0.0000 
      2 C2         -4.1368   45.3953   22.5812 C.2       1 UNK         0.0000 
      3 C3         -3.0769   46.3086   22.6448 C.2       1 UNK         0.0000 
      4 C4         -2.0958   45.7936   21.7782 C.2       1 UNK         0.0000 
      5 C5         -2.5682   44.5945   21.2819 C.2       1 UNK         0.0000 
      6 O6         -3.8050   44.3516   21.7747 O.3       1 UNK         0.0000 
      7 C7         -3.0675   47.5836   23.3234 C.2       1 UNK         0.0000 
      8 O8         -4.1191   48.1609   23.6031 O.2       1 UNK         0.0000 
      9 N9         -1.8362   48.0762   23.5781 N.am      1 UNK         0.0000 
     10 C10        -1.5727   49.3654   24.0667 C.ar      1 UNK         0.0000 
     11 C11        -0.8013   49.4965   25.2283 C.ar      1 UNK         0.0000 
     12 C12        -0.4850   50.7661   25.7261 C.ar      1 UNK         0.0000 
     13 C13        -0.9132   51.9062   25.0275 C.ar      1 UNK         0.0000 
     14 C14        -1.6631   51.7787   23.8610 C.ar      1 UNK         0.0000 
     15 C15        -1.9903   50.5156   23.3729 C.ar      1 UNK         0.0000 
     16 F16        -2.6842   50.4251   22.2131 F         1 UNK         0.0000 
     17 N17         0.3062   50.8384   26.8862 N.am      1 UNK         0.0000 
     18 C18         0.3145   51.8271   27.8080 C.2       1 UNK         0.0000 
     19 O19        -0.4964   52.7531   27.8205 O.2       1 UNK         0.0000 
     20 C20         1.4105   51.7711   28.8970 C.3       1 UNK         0.0000 
     21 H21         1.5787   50.7081   29.0584 H         1 UNK         0.0000 
     22 C22         0.9734   52.4977   30.1980 C.3       1 UNK         0.0000 
     23 C23         2.0553   52.3120   31.2818 C.3       1 UNK         0.0000 
     24 C24         3.5014   52.6136   30.8053 C.3       1 UNK         0.0000 
     25 C25         3.7954   52.0472   29.4070 C.3       1 UNK         0.0000 
     26 N26         2.7268   52.3223   28.4091 N.pl3     1 UNK         0.0000 
     27 S27         2.7584   54.0027   27.7850 S.o2      1 UNK         0.0000 
     28 O28         1.7454   54.0967   26.7344 O.2       1 UNK         0.0000 
     29 O29         2.7605   54.9437   28.9122 O.2       1 UNK         0.0000 
     30 C30         4.3184   54.2013   26.9286 C.ar      1 UNK         0.0000 
     31 C31         5.4806   54.4908   27.6453 C.ar      1 UNK         0.0000 
     32 C32         6.6786   54.6749   26.9630 C.ar      1 UNK         0.0000 
     33 C33         6.7045   54.5878   25.5713 C.ar      1 UNK         0.0000 
     34 C34         5.5486   54.3012   24.8538 C.ar      1 UNK         0.0000 
     35 C35         4.3539   54.0979   25.5341 C.ar      1 UNK         0.0000 
     36 H36        -5.6751   46.0811   23.9592 H         1 UNK         0.0000 
     37 H37        -6.2930   45.4531   22.4436 H         1 UNK         0.0000 
     38 H38        -5.6927   44.3531   23.6723 H         1 UNK         0.0000 
     39 H39        -1.1500   46.2514   21.5252 H         1 UNK         0.0000 
     40 H40        -2.1757   43.8676   20.5864 H         1 UNK         0.0000 
     41 H41        -1.0420   47.4726   23.4387 H         1 UNK         0.0000 
     42 H42        -0.4697   48.6129   25.7584 H         1 UNK         0.0000 
     43 H43        -0.6518   52.8963   25.3694 H         1 UNK         0.0000 
     44 H44        -1.9785   52.6613   23.3248 H         1 UNK         0.0000 
     45 H45         0.8444   50.0107   27.0927 H         1 UNK         0.0000 
     46 H46         0.8562   53.5709   30.0401 H         1 UNK         0.0000 
     47 H47         0.0489   52.0756   30.5991 H         1 UNK         0.0000 
     48 H48         1.7954   52.8967   32.1592 H         1 UNK         0.0000 
     49 H49         2.0132   51.2966   31.6548 H         1 UNK         0.0000 
     50 H50         3.6970   53.6837   30.7986 H         1 UNK         0.0000 
     51 H51         4.2133   52.2063   31.5246 H         1 UNK         0.0000 
     52 H52         4.7803   52.2516   28.9877 H         1 UNK         0.0000 
     53 H53         3.7974   50.9671   29.5415 H         1 UNK         0.0000 
     54 H54         5.4577   54.5840   28.7221 H         1 UNK         0.0000 
     55 H55         7.5740   54.8962   27.5240 H         1 UNK         0.0000 
     56 H56         7.6255   54.7400   25.0296 H         1 UNK         0.0000 
     57 H57         5.5786   54.2307   23.7761 H         1 UNK         0.0000 
     58 H58         3.4596   53.8730   24.9705 H         1 UNK         0.0000 
@<TRIPOS>BOND
     1    1    2 1    
     2    1   36 1    
     3    1   37 1    
     4    1   38 1    
     5    2    6 1    
     6    2    3 2    
     7    3    4 1    
     8    3    7 1    
     9    4    5 2    
    10    4   39 1    
    11    5    6 1    
    12    5   40 1    
    13    7    8 2    
    14    7    9 am   BACKBONE|DICT|INTERRES
    15    9   10 1    
    16    9   41 1    
    17   10   15 ar   
    18   10   11 ar   
    19   11   12 ar   
    20   11   42 1    
    21   12   13 ar   
    22   12   17 1    
    23   13   14 ar   
    24   13   43 1    
    25   14   15 ar   
    26   14   44 1    
    27   15   16 1    
    28   17   18 am   BACKBONE|DICT|INTERRES
    29   17   45 1    
    30   18   19 2    
    31   18   20 1    
    32   20   21 1    
    33   20   26 1    
    34   20   22 1    
    35   22   23 1    
    36   22   46 1    
    37   22   47 1    
    38   23   24 1    
    39   23   48 1    
    40   23   49 1    
    41   24   25 1    
    42   24   50 1    
    43   24   51 1    
    44   25   26 1    
    45   25   52 1    
    46   25   53 1    
    47   26   27 1    
    48   27   28 2    
    49   27   29 2    
    50   27   30 1    
    51   30   35 ar   
    52   30   31 ar   
    53   31   32 ar   
    54   31   54 1    
    55   32   33 ar   
    56   32   55 1    
    57   33   34 ar   
    58   33   56 1    
    59   34   35 ar   
    60   34   57 1    
    61   35   58 1    
@<TRIPOS>SUBSTRUCTURE
     1 UNK         1 GROUP             0       ****    0 ROOT    
