@<TRIPOS>MOLECULE
ZINC59941741_5319
63   66    1
SMALL
USER_CHARGES


@<TRIPOS>ATOM
      1 C1         -3.0102   52.0771   24.5580 C.3       1 UNK         0.0000 
      2 C2         -2.0350   53.0555   23.8890 C.3       1 UNK         0.0000 
      3 O3         -0.9474   52.3850   23.2656 O.3       1 UNK         0.0000 
      4 C4         -1.0851   51.7761   22.0626 C.2       1 UNK         0.0000 
      5 O5         -2.1055   51.8093   21.3699 O.2       1 UNK         0.0000 
      6 C6          0.1403   51.0573   21.6878 C.2       1 UNK         0.0000 
      7 C7          0.1515   49.8386   20.9427 C.2       1 UNK         0.0000 
      8 C8          1.4346   49.3215   20.7563 C.2       1 UNK         0.0000 
      9 S9          2.6467   50.3674   21.3926 S.3       1 UNK         0.0000 
     10 C10         1.4560   51.4882   21.9756 C.2       1 UNK         0.0000 
     11 N11         1.8151   52.6539   22.6650 N.am      1 UNK         0.0000 
     12 C12         3.0277   53.2462   22.7426 C.2       1 UNK         0.0000 
     13 O13         4.0142   52.9045   22.0898 O.2       1 UNK         0.0000 
     14 C14         3.1193   54.4527   23.6877 C.3       1 UNK         0.0000 
     15 S15         4.8429   54.8920   24.1703 S.3       1 UNK         0.0000 
     16 C16         4.9858   54.4947   25.9232 C.2       1 UNK         0.0000 
     17 N17         6.1605   54.3382   26.3900 N.am      1 UNK         0.0000 
     18 C18         6.3971   53.9263   27.7018 C.2       1 UNK         0.0000 
     19 O19         7.4922   53.6967   28.2058 O.2       1 UNK         0.0000 
     20 C20         5.1461   53.7742   28.6168 C.3       1 UNK         0.0000 
     21 C21         3.8214   53.5329   27.8307 C.3       1 UNK         0.0000 
     22 H22         3.8436   52.4960   27.4870 H         1 UNK         0.0000 
     23 N23         3.8016   54.3406   26.6184 N.pl3     1 UNK         0.0000 
     24 C24         2.5872   53.6513   28.7209 C.ar      1 UNK         0.0000 
     25 C25         2.2014   54.8980   29.2278 C.ar      1 UNK         0.0000 
     26 C26         1.1052   54.9931   30.0815 C.ar      1 UNK         0.0000 
     27 C27         0.3901   53.8446   30.4187 C.ar      1 UNK         0.0000 
     28 C28         0.7606   52.6028   29.9098 C.ar      1 UNK         0.0000 
     29 C29         1.8627   52.5050   29.0643 C.ar      1 UNK         0.0000 
     30 C30         1.8316   48.0527   20.0370 C.3       1 UNK         0.0000 
     31 C31         2.1228   48.3084   18.5507 C.3       1 UNK         0.0000 
     32 C32         1.0449   49.1172   17.7900 C.3       1 UNK         0.0000 
     33 C33        -0.4050   48.5842   17.9038 C.3       1 UNK         0.0000 
     34 C34        -1.3330   49.3286   18.8994 C.3       1 UNK         0.0000 
     35 C35        -1.0755   49.0997   20.4060 C.3       1 UNK         0.0000 
     36 H36        -3.7961   52.6185   25.0855 H         1 UNK         0.0000 
     37 H37        -3.4888   51.4278   23.8250 H         1 UNK         0.0000 
     38 H38        -2.4954   51.4448   25.2829 H         1 UNK         0.0000 
     39 H39        -1.6015   53.6965   24.6499 H         1 UNK         0.0000 
     40 H40        -2.5527   53.7042   23.1831 H         1 UNK         0.0000 
     41 H41         1.0361   53.1441   23.0793 H         1 UNK         0.0000 
     42 H42         2.7403   55.2913   23.1112 H         1 UNK         0.0000 
     43 H43         2.4419   54.3399   24.5288 H         1 UNK         0.0000 
     44 H44         5.3229   52.9310   29.2779 H         1 UNK         0.0000 
     45 H45         5.0939   54.6763   29.2250 H         1 UNK         0.0000 
     46 H46         2.9093   54.3843   26.1554 H         1 UNK         0.0000 
     47 H47         2.7569   55.7882   28.9700 H         1 UNK         0.0000 
     48 H48         0.8114   55.9564   30.4827 H         1 UNK         0.0000 
     49 H49        -0.4575   53.9129   31.0837 H         1 UNK         0.0000 
     50 H50         0.1975   51.7207   30.1754 H         1 UNK         0.0000 
     51 H51         2.1480   51.5368   28.6782 H         1 UNK         0.0000 
     52 H52         1.0576   47.2919   20.1104 H         1 UNK         0.0000 
     53 H53         2.7044   47.6121   20.5112 H         1 UNK         0.0000 
     54 H54         2.2869   47.3564   18.0489 H         1 UNK         0.0000 
     55 H55         3.0707   48.8423   18.4817 H         1 UNK         0.0000 
     56 H56         1.3354   49.1242   16.7365 H         1 UNK         0.0000 
     57 H57         1.0834   50.1643   18.0902 H         1 UNK         0.0000 
     58 H58        -0.4034   47.5142   18.1123 H         1 UNK         0.0000 
     59 H59        -0.8609   48.6717   16.9173 H         1 UNK         0.0000 
     60 H60        -2.3517   49.0070   18.6882 H         1 UNK         0.0000 
     61 H61        -1.3268   50.3991   18.6827 H         1 UNK         0.0000 
     62 H62        -1.9723   49.3666   20.9610 H         1 UNK         0.0000 
     63 H63        -0.9971   48.0285   20.5975 H         1 UNK         0.0000 
@<TRIPOS>BOND
     1    1    2 1    
     2    1   36 1    
     3    1   37 1    
     4    1   38 1    
     5    2    3 1    
     6    2   39 1    
     7    2   40 1    
     8    3    4 1    
     9    4    5 2    
    10    4    6 1    
    11    6   10 2    
    12    6    7 1    
    13    7   35 1    
    14    7    8 2    
    15    8    9 1    
    16    8   30 1    
    17    9   10 1    
    18   10   11 am   BACKBONE|DICT|INTERRES
    19   11   12 am   BACKBONE|DICT|INTERRES
    20   11   41 1    
    21   12   13 2    
    22   12   14 1    
    23   14   15 1    
    24   14   42 1    
    25   14   43 1    
    26   15   16 1    
    27   16   23 1    
    28   16   17 2    BACKBONE|DICT|INTERRES
    29   17   18 am   BACKBONE|DICT|INTERRES
    30   18   19 2    
    31   18   20 1    
    32   20   21 1    
    33   20   44 1    
    34   20   45 1    
    35   21   22 1    
    36   21   23 1    
    37   21   24 1    
    38   23   46 1    
    39   24   29 ar   
    40   24   25 ar   
    41   25   26 ar   
    42   25   47 1    
    43   26   27 ar   
    44   26   48 1    
    45   27   28 ar   
    46   27   49 1    
    47   28   29 ar   
    48   28   50 1    
    49   29   51 1    
    50   30   31 1    
    51   30   52 1    
    52   30   53 1    
    53   31   32 1    
    54   31   54 1    
    55   31   55 1    
    56   32   33 1    
    57   32   56 1    
    58   32   57 1    
    59   33   34 1    
    60   33   58 1    
    61   33   59 1    
    62   34   35 1    
    63   34   60 1    
    64   34   61 1    
    65   35   62 1    
    66   35   63 1    
@<TRIPOS>SUBSTRUCTURE
     1 UNK         1 GROUP             0       ****    0 ROOT    
