@<TRIPOS>MOLECULE
ZINC37276542_5208
61   64    1
SMALL
USER_CHARGES


@<TRIPOS>ATOM
      1 C1         -1.4403   51.3012   29.1094 C.3       1 UNK         0.0000 
      2 C2         -0.9796   51.8047   27.7416 C.3       1 UNK         0.0000 
      3 H3         -1.7403   52.4980   27.3788 H         1 UNK         0.0000 
      4 C4          0.3233   52.6045   27.8914 C.ar      1 UNK         0.0000 
      5 C5          0.3351   53.7605   28.6830 C.ar      1 UNK         0.0000 
      6 C6          1.5079   54.4885   28.8640 C.ar      1 UNK         0.0000 
      7 C7          2.6841   54.0521   28.2629 C.ar      1 UNK         0.0000 
      8 C8          2.6881   52.9020   27.4795 C.ar      1 UNK         0.0000 
      9 C9          1.5063   52.1891   27.2852 C.ar      1 UNK         0.0000 
     10 N10        -1.0077   50.6800   26.7999 N.am      1 UNK         0.0000 
     11 C11        -1.0449   50.7672   25.4570 C.2       1 UNK         0.0000 
     12 O12        -0.8139   51.8239   24.8732 O.2       1 UNK         0.0000 
     13 C13        -1.5025   49.5167   24.7226 C.ar      1 UNK         0.0000 
     14 C14        -2.4313   48.6690   25.3611 C.ar      1 UNK         0.0000 
     15 C15        -2.9386   47.5332   24.7378 C.ar      1 UNK         0.0000 
     16 C16        -2.5454   47.2207   23.4446 C.ar      1 UNK         0.0000 
     17 C17        -1.6430   48.0466   22.7838 C.ar      1 UNK         0.0000 
     18 C18        -1.1148   49.1937   23.3928 C.ar      1 UNK         0.0000 
     19 N19        -0.1941   49.8768   22.6111 N.pl3     1 UNK         0.0000 
     20 C20         1.2404   49.7022   22.8671 C.3       1 UNK         0.0000 
     21 C21         2.0418   49.8216   21.5513 C.3       1 UNK         0.0000 
     22 C22         1.8341   51.1797   20.8559 C.3       1 UNK         0.0000 
     23 C23         0.3157   51.3204   20.6387 C.3       1 UNK         0.0000 
     24 C24        -0.5062   51.1473   21.9347 C.3       1 UNK         0.0000 
     25 N25         2.3780   52.2415   21.7064 N.am      1 UNK         0.0000 
     26 C26         3.3738   53.0721   21.3572 C.2       1 UNK         0.0000 
     27 O27         3.7672   53.1979   20.1969 O.2       1 UNK         0.0000 
     28 C28         4.1100   53.7349   22.4954 C.ar      1 UNK         0.0000 
     29 C29         5.4630   54.0355   22.3195 C.ar      1 UNK         0.0000 
     30 C30         6.2344   54.5002   23.3787 C.ar      1 UNK         0.0000 
     31 C31         5.6350   54.7118   24.6157 C.ar      1 UNK         0.0000 
     32 C32         4.2692   54.4981   24.7879 C.ar      1 UNK         0.0000 
     33 C33         3.5042   54.0016   23.7336 C.ar      1 UNK         0.0000 
     34 Br34        6.6965   55.2919   26.0794 Br        1 UNK         0.0000 
     35 H35        -1.6955   52.1323   29.7479 H         1 UNK         0.0000 
     36 H36        -2.3153   50.6521   29.0527 H         1 UNK         0.0000 
     37 H37        -0.6393   50.7722   29.6179 H         1 UNK         0.0000 
     38 H38        -0.5627   54.0985   29.1746 H         1 UNK         0.0000 
     39 H39         1.5061   55.3803   29.4726 H         1 UNK         0.0000 
     40 H40         3.6002   54.6074   28.4047 H         1 UNK         0.0000 
     41 H41         3.6055   52.5658   27.0208 H         1 UNK         0.0000 
     42 H42         1.5046   51.3009   26.6774 H         1 UNK         0.0000 
     43 H43        -1.1945   49.7734   27.2242 H         1 UNK         0.0000 
     44 H44        -2.7762   48.8752   26.3662 H         1 UNK         0.0000 
     45 H45        -3.6445   46.9050   25.2596 H         1 UNK         0.0000 
     46 H46        -2.9410   46.3456   22.9503 H         1 UNK         0.0000 
     47 H47        -1.3448   47.7856   21.7781 H         1 UNK         0.0000 
     48 H48         1.5721   50.4216   23.6172 H         1 UNK         0.0000 
     49 H49         1.4127   48.7085   23.2804 H         1 UNK         0.0000 
     50 H50         3.1017   49.6903   21.7703 H         1 UNK         0.0000 
     51 H51         1.7963   48.9927   20.8855 H         1 UNK         0.0000 
     52 H52         2.3426   51.1583   19.8877 H         1 UNK         0.0000 
     53 H53        -0.0389   50.6233   19.8781 H         1 UNK         0.0000 
     54 H54         0.1111   52.3054   20.2175 H         1 UNK         0.0000 
     55 H55        -1.5664   51.1536   21.6795 H         1 UNK         0.0000 
     56 H56        -0.3282   51.9968   22.5893 H         1 UNK         0.0000 
     57 H57         2.0232   52.2787   22.6485 H         1 UNK         0.0000 
     58 H58         5.9095   53.8661   21.3530 H         1 UNK         0.0000 
     59 H59         7.2901   54.6879   23.2436 H         1 UNK         0.0000 
     60 H60         3.8085   54.6985   25.7418 H         1 UNK         0.0000 
     61 H61         2.4536   53.8081   23.8986 H         1 UNK         0.0000 
@<TRIPOS>BOND
     1    1    2 1    
     2    1   35 1    
     3    1   36 1    
     4    1   37 1    
     5    2    3 1    
     6    2    4 1    
     7    2   10 1    
     8    4    9 ar   
     9    4    5 ar   
    10    5    6 ar   
    11    5   38 1    
    12    6    7 ar   
    13    6   39 1    
    14    7    8 ar   
    15    7   40 1    
    16    8    9 ar   
    17    8   41 1    
    18    9   42 1    
    19   10   11 am   BACKBONE|DICT|INTERRES
    20   10   43 1    
    21   11   12 2    
    22   11   13 1    
    23   13   18 ar   
    24   13   14 ar   
    25   14   15 ar   
    26   14   44 1    
    27   15   16 ar   
    28   15   45 1    
    29   16   17 ar   
    30   16   46 1    
    31   17   18 ar   
    32   17   47 1    
    33   18   19 1    
    34   19   24 1    
    35   19   20 1    
    36   20   21 1    
    37   20   48 1    
    38   20   49 1    
    39   21   22 1    
    40   21   50 1    
    41   21   51 1    
    42   22   23 1    
    43   22   25 1    
    44   22   52 1    
    45   23   24 1    
    46   23   53 1    
    47   23   54 1    
    48   24   55 1    
    49   24   56 1    
    50   25   26 am   BACKBONE|DICT|INTERRES
    51   25   57 1    
    52   26   27 2    
    53   26   28 1    
    54   28   33 ar   
    55   28   29 ar   
    56   29   30 ar   
    57   29   58 1    
    58   30   31 ar   
    59   30   59 1    
    60   31   32 ar   
    61   31   34 1    
    62   32   33 ar   
    63   32   60 1    
    64   33   61 1    
@<TRIPOS>SUBSTRUCTURE
     1 UNK         1 GROUP             0       ****    0 ROOT    
