@<TRIPOS>MOLECULE
ZINC35383430_5686
82   84    1
SMALL
USER_CHARGES


@<TRIPOS>ATOM
      1 C1         -2.9566   51.8963   24.3449 C.3       1 UNK         0.0000 
      2 C2         -1.7127   51.0688   24.5879 C.2       1 UNK         0.0000 
      3 C3         -1.5992   50.1279   25.6238 C.2       1 UNK         0.0000 
      4 C4         -0.3700   49.5017   25.6820 C.2       1 UNK         0.0000 
      5 S5          0.7009   50.1098   24.4820 S.3       1 UNK         0.0000 
      6 C6         -0.5125   51.2221   23.8791 C.2       1 UNK         0.0000 
      7 C7         -0.2378   52.1465   22.6969 C.3       1 UNK         0.0000 
      8 N8          0.6578   51.5501   21.6841 N.am      1 UNK         0.0000 
      9 C9          0.0867   50.3955   20.9634 C.3       1 UNK         0.0000 
     10 C10        -1.1993   50.7309   20.2192 C.ar      1 UNK         0.0000 
     11 C11        -2.4022   50.1315   20.6003 C.ar      1 UNK         0.0000 
     12 C12        -3.5791   50.4569   19.9314 C.ar      1 UNK         0.0000 
     13 C13        -3.5474   51.3721   18.8824 C.ar      1 UNK         0.0000 
     14 C14        -2.3507   51.9688   18.4966 C.ar      1 UNK         0.0000 
     15 C15        -1.1729   51.6450   19.1635 C.ar      1 UNK         0.0000 
     16 F16        -4.6916   51.6964   18.2424 F         1 UNK         0.0000 
     17 C17         1.9978   51.7728   21.6877 C.2       1 UNK         0.0000 
     18 O18         2.8039   50.9438   21.2623 O.2       1 UNK         0.0000 
     19 C19         2.4969   53.1393   22.2114 C.3       1 UNK         0.0000 
     20 N20         3.9525   53.3743   22.0396 N.am      1 UNK         0.0000 
     21 C21         4.5425   53.2622   20.6847 C.3       1 UNK         0.0000 
     22 C22         4.7064   54.6108   19.9678 C.3       1 UNK         0.0000 
     23 N23         5.5077   54.4184   18.6620 N.4       1 UNK         0.0000 
     24 C24         4.8065   53.5472   17.6004 C.3       1 UNK         0.0000 
     25 C25         5.5144   53.9093   16.2963 C.3       1 UNK         0.0000 
     26 C26         6.0665   55.3272   16.4715 C.3       1 UNK         0.0000 
     27 C27         5.7956   55.7394   17.9215 C.3       1 UNK         0.0000 
     28 C28         4.7587   53.6967   23.0910 C.2       1 UNK         0.0000 
     29 O29         5.9747   53.8404   22.9490 O.2       1 UNK         0.0000 
     30 C30         4.1222   53.8348   24.5014 C.3       1 UNK         0.0000 
     31 C31         5.0047   54.1483   25.7516 C.3       1 UNK         0.0000 
     32 H32         5.6462   53.2898   25.9404 H         1 UNK         0.0000 
     33 C33         5.9128   55.3919   25.5510 C.3       1 UNK         0.0000 
     34 C34         4.0287   54.3116   26.9675 C.3       1 UNK         0.0000 
     35 C35         4.4867   54.0314   28.4360 C.3       1 UNK         0.0000 
     36 C36         3.3954   54.5725   29.3887 C.3       1 UNK         0.0000 
     37 C37         5.8182   54.7149   28.7931 C.3       1 UNK         0.0000 
     38 C38         4.6324   52.5185   28.6932 C.3       1 UNK         0.0000 
     39 H39        -3.5713   51.9891   25.2413 H         1 UNK         0.0000 
     40 H40        -2.7161   52.9175   24.0473 H         1 UNK         0.0000 
     41 H41        -3.5732   51.4713   23.5515 H         1 UNK         0.0000 
     42 H42        -2.4014   49.8923   26.3082 H         1 UNK         0.0000 
     43 H43        -0.0582   48.7354   26.3805 H         1 UNK         0.0000 
     44 H44         0.1468   53.0937   23.0709 H         1 UNK         0.0000 
     45 H45        -1.1669   52.4264   22.2021 H         1 UNK         0.0000 
     46 H46         0.7907   50.0008   20.2270 H         1 UNK         0.0000 
     47 H47        -0.0835   49.5789   21.6667 H         1 UNK         0.0000 
     48 H48        -2.4260   49.4246   21.4178 H         1 UNK         0.0000 
     49 H49        -4.5153   50.0045   20.2256 H         1 UNK         0.0000 
     50 H50        -2.3384   52.6742   17.6783 H         1 UNK         0.0000 
     51 H51        -0.2417   52.1055   18.8648 H         1 UNK         0.0000 
     52 H52         2.1658   53.2203   23.2400 H         1 UNK         0.0000 
     53 H53         1.9604   53.9214   21.6815 H         1 UNK         0.0000 
     54 H54         5.5030   52.7444   20.7410 H         1 UNK         0.0000 
     55 H55         3.9154   52.6403   20.0487 H         1 UNK         0.0000 
     56 H56         3.7453   55.0461   19.6820 H         1 UNK         0.0000 
     57 H57         5.2782   55.3265   20.5628 H         1 UNK         0.0000 
     58 H58         4.8819   52.4967   17.8904 H         1 UNK         0.0000 
     59 H59         3.7538   53.8379   17.6000 H         1 UNK         0.0000 
     60 H60         6.3200   53.1968   16.1020 H         1 UNK         0.0000 
     61 H61         4.8274   53.8455   15.4504 H         1 UNK         0.0000 
     62 H62         5.5850   56.0246   15.7843 H         1 UNK         0.0000 
     63 H63         7.1362   55.3554   16.2563 H         1 UNK         0.0000 
     64 H64         4.8909   56.3494   18.0058 H         1 UNK         0.0000 
     65 H65         6.6160   56.2535   18.4278 H         1 UNK         0.0000 
     66 H66         3.5531   52.9235   24.7136 H         1 UNK         0.0000 
     67 H67         3.4014   54.6503   24.4110 H         1 UNK         0.0000 
     68 H68         5.3236   56.2910   25.3788 H         1 UNK         0.0000 
     69 H69         6.5726   55.5751   26.3923 H         1 UNK         0.0000 
     70 H70         6.5969   55.2938   24.7116 H         1 UNK         0.0000 
     71 H71         3.1740   53.6488   26.8084 H         1 UNK         0.0000 
     72 H72         3.5750   55.2973   26.9074 H         1 UNK         0.0000 
     73 H73         3.6493   54.3783   30.4318 H         1 UNK         0.0000 
     74 H74         2.4268   54.1064   29.1983 H         1 UNK         0.0000 
     75 H75         3.2667   55.6514   29.2821 H         1 UNK         0.0000 
     76 H76         6.6861   54.1392   28.4668 H         1 UNK         0.0000 
     77 H77         5.9005   55.6967   28.3497 H         1 UNK         0.0000 
     78 H78         5.9045   54.8968   29.8644 H         1 UNK         0.0000 
     79 H79         5.4276   52.0968   28.0815 H         1 UNK         0.0000 
     80 H80         4.8878   52.3049   29.7315 H         1 UNK         0.0000 
     81 H81         3.7073   51.9816   28.4786 H         1 UNK         0.0000 
     82 H82         6.3892   53.9808   18.8981 H         1 UNK         0.0000 
@<TRIPOS>BOND
     1    1    2 1    
     2    1   39 1    
     3    1   40 1    
     4    1   41 1    
     5    2    6 2    
     6    2    3 1    
     7    3    4 2    
     8    3   42 1    
     9    4    5 1    
    10    4   43 1    
    11    5    6 1    
    12    6    7 1    
    13    7    8 1    
    14    7   44 1    
    15    7   45 1    
    16    8    9 1    
    17    8   17 am   BACKBONE|DICT|INTERRES
    18    9   10 1    
    19    9   46 1    
    20    9   47 1    
    21   10   15 ar   
    22   10   11 ar   
    23   11   12 ar   
    24   11   48 1    
    25   12   13 ar   
    26   12   49 1    
    27   13   14 ar   
    28   13   16 1    
    29   14   15 ar   
    30   14   50 1    
    31   15   51 1    
    32   17   18 2    
    33   17   19 1    
    34   19   20 1    
    35   19   52 1    
    36   19   53 1    
    37   20   21 1    
    38   20   28 am   BACKBONE|DICT|INTERRES
    39   21   22 1    
    40   21   54 1    
    41   21   55 1    
    42   22   23 1    
    43   22   56 1    
    44   22   57 1    
    45   23   27 1    
    46   23   24 1    
    47   23   82 1    
    48   24   25 1    
    49   24   58 1    
    50   24   59 1    
    51   25   26 1    
    52   25   60 1    
    53   25   61 1    
    54   26   27 1    
    55   26   62 1    
    56   26   63 1    
    57   27   64 1    
    58   27   65 1    
    59   28   29 2    
    60   28   30 1    
    61   30   31 1    
    62   30   66 1    
    63   30   67 1    
    64   31   32 1    
    65   31   33 1    
    66   31   34 1    
    67   33   68 1    
    68   33   69 1    
    69   33   70 1    
    70   34   35 1    
    71   34   71 1    
    72   34   72 1    
    73   35   36 1    
    74   35   37 1    
    75   35   38 1    
    76   36   73 1    
    77   36   74 1    
    78   36   75 1    
    79   37   76 1    
    80   37   77 1    
    81   37   78 1    
    82   38   79 1    
    83   38   80 1    
    84   38   81 1    
@<TRIPOS>SUBSTRUCTURE
     1 UNK         1 GROUP             0       ****    0 ROOT    
