@<TRIPOS>MOLECULE
ZINC01880744_3343
50   53    1
SMALL
USER_CHARGES


@<TRIPOS>ATOM
      1 C1          5.1540   54.3531   21.9550 C.3       1 UNK         0.0000 
      2 C2          4.0369   53.9422   22.8964 C.ar      1 UNK         0.0000 
      3 C3          3.0961   53.0015   22.4862 C.ar      1 UNK         0.0000 
      4 C4          2.0953   52.5955   23.3644 C.ar      1 UNK         0.0000 
      5 C5          1.9875   53.1349   24.6623 C.ar      1 UNK         0.0000 
      6 C6          2.9429   54.0967   25.0413 C.ar      1 UNK         0.0000 
      7 C7          3.9639   54.4837   24.1780 C.ar      1 UNK         0.0000 
      8 N8          0.9449   52.7088   25.5733 N.pl3     1 UNK         0.0000 
      9 C9         -0.3520   52.4967   25.0781 C.ar      1 UNK         0.0000 
     10 C10        -1.3192   51.9607   25.9879 C.ar      1 UNK         0.0000 
     11 C11        -0.9821   51.7731   27.2760 C.ar      1 UNK         0.0000 
     12 O12        -1.6393   51.3407   28.2856 O.co2     1 UNK         0.0000 
     13 N13         0.2600   52.0713   27.7216 N.pl3     1 UNK         0.0000 
     14 H14         0.4805   51.9036   28.6891 H         1 UNK         0.0000 
     15 C15         1.2753   52.4954   26.9182 C.ar      1 UNK         0.0000 
     16 O16         2.3747   52.6233   27.4552 O.2       1 UNK         0.0000 
     17 C17        -2.5609   51.6921   25.1870 C.3       1 UNK         0.0000 
     18 C18        -2.1240   52.3464   23.8619 C.2       1 UNK         0.0000 
     19 O19        -2.8483   52.4966   22.8818 O.2       1 UNK         0.0000 
     20 N20        -0.8079   52.7449   23.9146 N.am      1 UNK         0.0000 
     21 C21        -3.8540   52.3857   25.7263 C.3       1 UNK         0.0000 
     22 F22        -4.8949   52.2332   24.9041 F         1 UNK         0.0000 
     23 F23        -4.2348   51.8815   26.9004 F         1 UNK         0.0000 
     24 F24        -3.6980   53.6976   25.9145 F         1 UNK         0.0000 
     25 N25        -2.7523   50.2041   25.1177 N.pl3     1 UNK         0.0000 
     26 S26        -2.9634   49.2319   23.6562 S.o2      1 UNK         0.0000 
     27 O27        -4.0180   49.8375   22.8359 O.2       1 UNK         0.0000 
     28 O28        -3.0649   47.8319   24.0817 O.2       1 UNK         0.0000 
     29 C29        -1.4184   49.3581   22.7611 C.ar      1 UNK         0.0000 
     30 C30        -1.4223   49.6745   21.4006 C.ar      1 UNK         0.0000 
     31 C31        -0.2163   49.7943   20.7153 C.ar      1 UNK         0.0000 
     32 C32         0.9896   49.6003   21.3903 C.ar      1 UNK         0.0000 
     33 C33         0.9887   49.2967   22.7530 C.ar      1 UNK         0.0000 
     34 C34        -0.2140   49.1634   23.4400 C.ar      1 UNK         0.0000 
     35 C35         2.3046   49.7479   20.6474 C.3       1 UNK         0.0000 
     36 H36         5.5020   53.4945   21.3800 H         1 UNK         0.0000 
     37 H37         4.8043   55.1109   21.2545 H         1 UNK         0.0000 
     38 H38         6.0169   54.7382   22.4998 H         1 UNK         0.0000 
     39 H39         3.1422   52.5770   21.4936 H         1 UNK         0.0000 
     40 H40         1.3939   51.8579   23.0130 H         1 UNK         0.0000 
     41 H41         2.9124   54.5497   26.0204 H         1 UNK         0.0000 
     42 H42         4.6924   55.2102   24.5068 H         1 UNK         0.0000 
     43 H43        -2.4541   49.6938   25.9556 H         1 UNK         0.0000 
     44 H44        -2.3534   49.8371   20.8765 H         1 UNK         0.0000 
     45 H45        -0.2199   50.0423   19.6633 H         1 UNK         0.0000 
     46 H46         1.9204   49.1645   23.2811 H         1 UNK         0.0000 
     47 H47        -0.2080   48.9273   24.4956 H         1 UNK         0.0000 
     48 H48         2.2528   50.5676   19.9291 H         1 UNK         0.0000 
     49 H49         2.5466   48.8333   20.1046 H         1 UNK         0.0000 
     50 H50         3.1213   49.9819   21.3308 H         1 UNK         0.0000 
@<TRIPOS>BOND
     1    1    2 1    
     2    1   36 1    
     3    1   37 1    
     4    1   38 1    
     5    2    7 ar   
     6    2    3 ar   
     7    3    4 ar   
     8    3   39 1    
     9    4    5 ar   
    10    4   40 1    
    11    5    6 ar   
    12    5    8 1    
    13    6    7 ar   
    14    6   41 1    
    15    7   42 1    
    16    8   15 ar   
    17    8    9 ar   
    18    9   20 2    
    19    9   10 ar   
    20   10   11 ar   
    21   10   17 1    
    22   11   12 1    
    23   11   13 ar   
    24   13   14 1    
    25   13   15 ar   
    26   15   16 2    
    27   17   18 1    
    28   17   21 1    
    29   17   25 1    
    30   18   19 2    
    31   18   20 am   BACKBONE|DICT|INTERRES
    32   21   22 1    
    33   21   23 1    
    34   21   24 1    
    35   25   26 1    
    36   25   43 1    
    37   26   27 2    
    38   26   28 2    
    39   26   29 1    
    40   29   34 ar   
    41   29   30 ar   
    42   30   31 ar   
    43   30   44 1    
    44   31   32 ar   
    45   31   45 1    
    46   32   33 ar   
    47   32   35 1    
    48   33   34 ar   
    49   33   46 1    
    50   34   47 1    
    51   35   48 1    
    52   35   49 1    
    53   35   50 1    
@<TRIPOS>SUBSTRUCTURE
     1 UNK         1 GROUP             0       ****    0 ROOT    
