@<TRIPOS>MOLECULE
ZINC03142232_2846
46   48    1
SMALL
USER_CHARGES


@<TRIPOS>ATOM
      1 C1          5.0611   54.3365   28.2036 C.ar      1 UNK         0.0000 
      2 C2          3.7733   54.0958   27.7359 C.ar      1 UNK         0.0000 
      3 C3          3.5122   54.0527   26.3681 C.ar      1 UNK         0.0000 
      4 C4          4.5620   54.2441   25.4346 C.ar      1 UNK         0.0000 
      5 C5          4.3499   54.1813   24.0381 C.ar      1 UNK         0.0000 
      6 C6          5.3984   54.3549   23.1329 C.ar      1 UNK         0.0000 
      7 C7          6.6810   54.5984   23.6095 C.ar      1 UNK         0.0000 
      8 C8          6.9138   54.6904   24.9725 C.ar      1 UNK         0.0000 
      9 C9          5.8798   54.4992   25.9129 C.ar      1 UNK         0.0000 
     10 C10         6.1113   54.5393   27.3106 C.ar      1 UNK         0.0000 
     11 N11         5.1029   54.2268   21.7676 N.pl3     1 UNK         0.0000 
     12 C12         5.5372   54.8688   20.6390 C.2       1 UNK         0.0000 
     13 S13         6.6659   56.0932   20.5465 S.2       1 UNK         0.0000 
     14 N14         4.9446   54.5023   19.4649 N.pl3     1 UNK         0.0000 
     15 C15         4.1750   53.2623   19.2099 C.3       1 UNK         0.0000 
     16 H16         4.9380   52.4905   19.2803 H         1 UNK         0.0000 
     17 C17         3.6407   53.2235   17.7448 C.3       1 UNK         0.0000 
     18 Cl18        5.0079   53.3004   16.5959 Cl        1 UNK         0.0000 
     19 Cl19        2.7228   51.7208   17.4257 Cl        1 UNK         0.0000 
     20 Cl20        2.5608   54.6154   17.4383 Cl        1 UNK         0.0000 
     21 N21         3.1024   52.9808   20.1816 N.am      1 UNK         0.0000 
     22 C22         3.0071   51.8954   20.9762 C.2       1 UNK         0.0000 
     23 O23         3.7713   50.9361   20.8809 O.2       1 UNK         0.0000 
     24 C24         1.9577   51.9307   22.0670 C.ar      1 UNK         0.0000 
     25 C25         1.4009   53.1361   22.5250 C.ar      1 UNK         0.0000 
     26 C26         0.5424   53.1566   23.6243 C.ar      1 UNK         0.0000 
     27 C27         0.1889   51.9705   24.2543 C.ar      1 UNK         0.0000 
     28 C28         0.6895   50.7487   23.7915 C.ar      1 UNK         0.0000 
     29 C29         1.5742   50.7406   22.7034 C.ar      1 UNK         0.0000 
     30 N30         0.2859   49.4844   24.4389 N.pl3     1 UNK         0.0000 
     31 O31        -0.0702   49.5200   25.6133 O.co2     1 UNK         0.0000 
     32 O32         0.3011   48.4670   23.7568 O.co2     1 UNK         0.0000 
     33 H33         5.2496   54.3705   29.2669 H         1 UNK         0.0000 
     34 H34         2.9673   53.9422   28.4372 H         1 UNK         0.0000 
     35 H35         2.5104   53.8554   26.0138 H         1 UNK         0.0000 
     36 H36         3.3530   54.0011   23.6939 H         1 UNK         0.0000 
     37 H37         7.5044   54.7105   22.9246 H         1 UNK         0.0000 
     38 H38         7.9044   54.8958   25.3091 H         1 UNK         0.0000 
     39 H39         7.1078   54.7296   27.6840 H         1 UNK         0.0000 
     40 H40         4.3423   53.5863   21.5965 H         1 UNK         0.0000 
     41 H41         5.1816   55.0444   18.6465 H         1 UNK         0.0000 
     42 H42         2.3398   53.6492   20.1853 H         1 UNK         0.0000 
     43 H43         1.6653   54.0865   22.0815 H         1 UNK         0.0000 
     44 H44         0.1495   54.0954   23.9853 H         1 UNK         0.0000 
     45 H45        -0.4865   51.9986   25.0986 H         1 UNK         0.0000 
     46 H46         1.9842   49.7960   22.3668 H         1 UNK         0.0000 
@<TRIPOS>BOND
     1    1   10 ar   
     2    1    2 ar   
     3    1   33 1    
     4    2    3 ar   
     5    2   34 1    
     6    3    4 ar   
     7    3   35 1    
     8    4    9 ar   
     9    4    5 ar   
    10    5    6 ar   
    11    5   36 1    
    12    6    7 ar   
    13    6   11 1    
    14    7    8 ar   
    15    7   37 1    
    16    8    9 ar   
    17    8   38 1    
    18    9   10 ar   
    19   10   39 1    
    20   11   12 1    
    21   11   40 1    
    22   12   13 2    
    23   12   14 1    
    24   14   15 1    
    25   14   41 1    
    26   15   16 1    
    27   15   17 1    
    28   15   21 1    
    29   17   18 1    
    30   17   19 1    
    31   17   20 1    
    32   21   22 am   BACKBONE|DICT|INTERRES
    33   21   42 1    
    34   22   23 2    
    35   22   24 1    
    36   24   29 ar   
    37   24   25 ar   
    38   25   26 ar   
    39   25   43 1    
    40   26   27 ar   
    41   26   44 1    
    42   27   28 ar   
    43   27   45 1    
    44   28   29 ar   
    45   28   30 1    
    46   29   46 1    
    47   30   31 2    
    48   30   32 1    
@<TRIPOS>SUBSTRUCTURE
     1 UNK         1 GROUP             0       ****    0 ROOT    
