ZINC35023493_5800
                    3D
 Schrodinger Suite 2024-2.
 58 61  0  0  1  0            999 V2000
    5.0858   54.0978   23.8309 C   0  0  0  0  0  0
    4.4616   53.8808   22.5682 O   0  0  0  0  0  0
    5.1607   54.1516   21.4057 C   0  0  0  0  0  0
    6.2824   54.9979   21.3908 C   0  0  0  0  0  0
    6.9406   55.2967   20.2009 C   0  0  0  0  0  0
    6.5050   54.7516   18.9867 C   0  0  0  0  0  0
    5.3801   53.9135   18.9932 C   0  0  0  0  0  0
    4.7053   53.6138   20.1802 C   0  0  0  0  0  0
    3.5334   52.8413   20.0558 N   0  0  0  0  0  0
    3.1552   51.7944   20.8211 C   0  0  0  0  0  0
    3.8882   51.2830   21.6651 O   0  0  0  0  0  0
    1.6684   51.3526   20.6871 C   0  0  2  0  0  0
    1.1958   52.2889   20.3808 H   0  0  0  0  0  0
    0.9658   50.9370   22.0322 C   0  0  2  0  0  0
    1.4276   50.0311   22.4212 H   0  0  0  0  0  0
   -0.4925   50.5956   21.7088 C   0  0  0  0  0  0
   -0.9848   50.3630   20.4732 C   0  0  0  0  0  0
   -0.1707   50.4293   19.1726 C   0  0  1  0  0  0
   -0.3594   51.4303   18.7801 H   0  0  0  0  0  0
    1.3728   50.3719   19.4914 C   0  0  2  0  0  0
    1.9273   50.6969   18.6086 H   0  0  0  0  0  0
    1.9009   48.9093   19.6858 C   0  0  0  0  0  0
    2.2081   48.5051   20.8277 O   0  0  0  0  0  0
    1.9060   48.1632   18.6831 O   0  5  0  0  0  0
   -0.6760   49.4979   18.0577 C   0  0  0  0  0  0
   -0.6527   49.9383   16.7295 C   0  0  0  0  0  0
   -1.1207   49.1151   15.7084 C   0  0  0  0  0  0
   -1.6137   47.8488   16.0138 C   0  0  0  0  0  0
   -1.6389   47.3968   17.3310 C   0  0  0  0  0  0
   -1.1711   48.2202   18.3516 C   0  0  0  0  0  0
    1.0738   51.9074   23.2165 C   0  0  0  0  0  0
    0.8935   51.3825   24.5003 C   0  0  0  0  0  0
    1.1033   52.1752   25.6220 C   0  0  0  0  0  0
    1.5046   53.4952   25.4589 C   0  0  0  0  0  0
    1.6287   54.0510   24.1880 C   0  0  0  0  0  0
    1.4023   53.2613   23.0665 C   0  0  0  0  0  0
    7.2195   55.0559   17.7231 N   0  3  0  0  0  0
    8.2103   55.7795   17.7719 O   0  0  0  0  0  0
    6.7916   54.5773   16.6770 O   0  5  0  0  0  0
    4.4783   53.6432   24.6127 H   0  0  0  0  0  0
    6.0725   53.6341   23.8779 H   0  0  0  0  0  0
    5.1774   55.1579   24.0673 H   0  0  0  0  0  0
    6.6572   55.4431   22.2996 H   0  0  0  0  0  0
    7.8055   55.9446   20.2316 H   0  0  0  0  0  0
    5.0265   53.4835   18.0650 H   0  0  0  0  0  0
    2.9329   53.0820   19.2822 H   0  0  0  0  0  0
   -1.1804   50.4825   22.5346 H   0  0  0  0  0  0
   -2.0434   50.1591   20.4006 H   0  0  0  0  0  0
   -0.2647   50.9162   16.4850 H   0  0  0  0  0  0
   -1.0967   49.4559   14.6839 H   0  0  0  0  0  0
   -1.9723   47.2089   15.2212 H   0  0  0  0  0  0
   -2.0122   46.4097   17.5599 H   0  0  0  0  0  0
   -1.1758   47.8588   19.3693 H   0  0  0  0  0  0
    0.6293   50.3427   24.6335 H   0  0  0  0  0  0
    0.9871   51.7572   26.6113 H   0  0  0  0  0  0
    1.6956   54.0978   26.3334 H   0  0  0  0  0  0
    1.9203   55.0839   24.0726 H   0  0  0  0  0  0
    1.5283   53.7058   22.0911 H   0  0  0  0  0  0
  1  2  1  0  0  0
  1 40  1  0  0  0
  1 41  1  0  0  0
  1 42  1  0  0  0
  2  3  1  0  0  0
  3  8  2  0  0  0
  3  4  1  0  0  0
  4  5  2  0  0  0
  4 43  1  0  0  0
  5  6  1  0  0  0
  5 44  1  0  0  0
  6  7  2  0  0  0
  6 37  1  0  0  0
  7  8  1  0  0  0
  7 45  1  0  0  0
  8  9  1  0  0  0
  9 10  1  0  0  0
  9 46  1  0  0  0
 10 11  2  0  0  0
 10 12  1  0  0  0
 12 13  1  0  0  0
 12 20  1  0  0  0
 12 14  1  0  0  0
 14 15  1  0  0  0
 14 16  1  0  0  0
 14 31  1  0  0  0
 16 17  2  0  0  0
 16 47  1  0  0  0
 17 18  1  0  0  0
 17 48  1  0  0  0
 18 19  1  0  0  0
 18 20  1  0  0  0
 18 25  1  0  0  0
 20 21  1  0  0  0
 20 22  1  0  0  0
 22 23  2  0  0  0
 22 24  1  0  0  0
 25 30  2  0  0  0
 25 26  1  0  0  0
 26 27  2  0  0  0
 26 49  1  0  0  0
 27 28  1  0  0  0
 27 50  1  0  0  0
 28 29  2  0  0  0
 28 51  1  0  0  0
 29 30  1  0  0  0
 29 52  1  0  0  0
 30 53  1  0  0  0
 31 36  2  0  0  0
 31 32  1  0  0  0
 32 33  2  0  0  0
 32 54  1  0  0  0
 33 34  1  0  0  0
 33 55  1  0  0  0
 34 35  2  0  0  0
 34 56  1  0  0  0
 35 36  1  0  0  0
 35 57  1  0  0  0
 36 58  1  0  0  0
 37 38  2  0  0  0
 37 39  1  0  0  0
M  CHG  3  24  -1  37   1  39  -1
M  END
> <i_i_glide_confnum>
56

> <i_i_glide_lignum>
5801

> <i_i_glide_posenum>
392

> <i_i_glide_rotatable_bonds>
8

> <i_m_Source_File_Index>
5769

> <b_m_subgroup_collapsed>
0

> <r_i_docking_score>
-3.26076

> <r_i_glide_ecoul>
-1.97364

> <r_i_glide_eff_state_penalty>
0

> <r_i_glide_einternal>
10.1315

> <r_i_glide_emodel>
-28.6438

> <r_i_glide_energy>
-32.1571

> <r_i_glide_erotb>
0.454642

> <r_i_glide_esite>
-0.0580179

> <r_i_glide_evdw>
-30.1834

> <r_i_glide_gscore>
-3.26076

> <r_i_glide_hbond>
0

> <r_i_glide_ligand_efficiency>
-0.0931645

> <r_i_glide_ligand_efficiency_ln>
-0.715809

> <r_i_glide_ligand_efficiency_sa>
-0.304747

> <r_i_glide_lipo>
-1.63163

> <r_i_glide_metal>
0

> <r_i_glide_rewards>
-0.220539

> <s_i_glide_gridfile>
wee1_glide-grid

> <s_m_Source_File>
wee1_decoys_glide_SP.sdf

> <s_m_Source_Path>
/Users/zhangxujun/Desktop

> <s_m_entry_id>
6044

> <s_m_entry_name>
wee1_decoys_glide_SP.5769

> <s_m_subgroup_title>
wee1_decoys_glide_SP

> <s_m_subgroupid>
wee1_decoys_glide_SP


$$$$
