@<TRIPOS>MOLECULE
ZINC12973203_1120
51   54    1
SMALL
USER_CHARGES


@<TRIPOS>ATOM
      1 C1         -2.5884   48.0884   22.5105 C.ar      1 UNK         0.0000 
      2 C2         -2.8744   47.9643   23.8700 C.ar      1 UNK         0.0000 
      3 C3         -1.9105   48.3063   24.8183 C.ar      1 UNK         0.0000 
      4 C4         -0.6623   48.7820   24.4131 C.ar      1 UNK         0.0000 
      5 C5         -0.3691   48.9110   23.0458 C.ar      1 UNK         0.0000 
      6 C6         -1.3402   48.5558   22.0973 C.ar      1 UNK         0.0000 
      7 N7          0.8927   49.3672   22.6342 N.am      1 UNK         0.0000 
      8 C8          1.1189   50.4292   21.8300 C.2       1 UNK         0.0000 
      9 O9          0.2263   51.1444   21.3704 O.2       1 UNK         0.0000 
     10 C10         2.5953   50.7301   21.5308 C.3       1 UNK         0.0000 
     11 C11         2.8605   52.0052   19.2636 C.3       1 UNK         0.0000 
     12 C12         3.4971   53.3309   18.8399 C.3       1 UNK         0.0000 
     13 C13         4.2180   53.9115   20.0648 C.3       1 UNK         0.0000 
     14 C14         3.9891   52.9309   21.2240 C.3       1 UNK         0.0000 
     15 H15         4.7894   52.1850   21.2409 H         1 UNK         0.0000 
     16 C16         3.8547   53.5270   22.6308 C.ar      1 UNK         0.0000 
     17 C17         2.6128   53.6557   23.2652 C.ar      1 UNK         0.0000 
     18 C18         2.5377   54.0961   24.5812 C.ar      1 UNK         0.0000 
     19 C19         3.6873   54.4474   25.2871 C.ar      1 UNK         0.0000 
     20 C20         4.9413   54.3622   24.6528 C.ar      1 UNK         0.0000 
     21 C21         5.0077   53.9105   23.3297 C.ar      1 UNK         0.0000 
     22 O22         6.1028   54.7229   25.2973 O.3       1 UNK         0.0000 
     23 C23         6.4505   53.9673   26.4536 C.3       1 UNK         0.0000 
     24 C24         5.6660   54.3424   27.7138 C.3       1 UNK         0.0000 
     25 C25         4.1567   54.1035   27.5930 C.3       1 UNK         0.0000 
     26 O26         3.5521   54.8965   26.5797 O.3       1 UNK         0.0000 
     27 I27         0.7044   49.2969   25.9119 I         1 UNK         0.0000 
     28 H28        -3.3345   47.8231   21.7759 H         1 UNK         0.0000 
     29 H29        -3.8412   47.6047   24.1919 H         1 UNK         0.0000 
     30 H30        -2.1244   48.2082   25.8750 H         1 UNK         0.0000 
     31 H31        -1.1312   48.6473   21.0410 H         1 UNK         0.0000 
     32 H32         1.6823   48.9075   23.0672 H         1 UNK         0.0000 
     33 H33         3.1097   50.8298   22.4817 H         1 UNK         0.0000 
     34 H34         3.0836   49.9531   20.9396 H         1 UNK         0.0000 
     35 H35         3.5041   51.1543   19.0325 H         1 UNK         0.0000 
     36 H36         1.8649   51.8115   18.8601 H         1 UNK         0.0000 
     37 H37         4.1920   53.1661   18.0156 H         1 UNK         0.0000 
     38 H38         2.7324   54.0210   18.4786 H         1 UNK         0.0000 
     39 H39         5.2837   54.0543   19.8744 H         1 UNK         0.0000 
     40 H40         3.7997   54.8946   20.2952 H         1 UNK         0.0000 
     41 H41         1.6944   53.3909   22.7618 H         1 UNK         0.0000 
     42 H42         1.5740   54.1676   25.0630 H         1 UNK         0.0000 
     43 H43         5.9755   53.8353   22.8564 H         1 UNK         0.0000 
     44 H44         7.5048   54.1496   26.6435 H         1 UNK         0.0000 
     45 H45         6.3799   52.8968   26.2580 H         1 UNK         0.0000 
     46 H46         5.8566   55.3866   27.9586 H         1 UNK         0.0000 
     47 H47         6.0532   53.7696   28.5566 H         1 UNK         0.0000 
     48 H48         3.6804   54.3738   28.5364 H         1 UNK         0.0000 
     49 H49         3.9301   53.0429   27.4486 H         1 UNK         0.0000 
     50 N50         2.7596   52.0943   20.7978 N.4       1 UNK         0.0000 
     51 H51         1.9339   52.6434   21.0050 H         1 UNK         0.0000 
@<TRIPOS>BOND
     1    1    6 ar   
     2    1    2 ar   
     3    1   28 1    
     4    2    3 ar   
     5    2   29 1    
     6    3    4 ar   
     7    3   30 1    
     8    4    5 ar   
     9    4   27 1    
    10    5    6 ar   
    11    5    7 1    
    12    6   31 1    
    13    7    8 am   BACKBONE|DICT|INTERRES
    14    7   32 1    
    15    8    9 2    
    16    8   10 1    
    17   10   33 1    
    18   10   34 1    
    19   10   50 1    
    20   11   12 1    
    21   11   35 1    
    22   11   36 1    
    23   11   50 1    
    24   12   13 1    
    25   12   37 1    
    26   12   38 1    
    27   13   14 1    
    28   13   39 1    
    29   13   40 1    
    30   14   15 1    
    31   14   16 1    
    32   14   50 1    
    33   16   21 ar   
    34   16   17 ar   
    35   17   18 ar   
    36   17   41 1    
    37   18   19 ar   
    38   18   42 1    
    39   19   26 1    
    40   19   20 ar   
    41   20   21 ar   
    42   20   22 1    
    43   21   43 1    
    44   22   23 1    
    45   23   24 1    
    46   23   44 1    
    47   23   45 1    
    48   24   25 1    
    49   24   46 1    
    50   24   47 1    
    51   25   26 1    
    52   25   48 1    
    53   25   49 1    
    54   50   51 1    
@<TRIPOS>SUBSTRUCTURE
     1 UNK         1 GROUP             0       ****    0 ROOT    
