@<TRIPOS>MOLECULE
ZINC14654148_2859
54   56    1
SMALL
USER_CHARGES


@<TRIPOS>ATOM
      1 C1          4.9551   55.2087   25.5150 C.3       1 UNK         0.0000 
      2 C2          6.3181   55.3632   24.8262 C.3       1 UNK         0.0000 
      3 C3          6.7242   54.0783   24.0908 C.3       1 UNK         0.0000 
      4 O4          5.7912   53.7073   23.0745 O.3       1 UNK         0.0000 
      5 C5          5.8023   54.3306   21.8353 C.ar      1 UNK         0.0000 
      6 C6          6.7057   55.3591   21.5080 C.ar      1 UNK         0.0000 
      7 C7          6.6949   55.9502   20.2475 C.ar      1 UNK         0.0000 
      8 C8          5.7830   55.5270   19.2892 C.ar      1 UNK         0.0000 
      9 C9          4.8947   54.4979   19.5838 C.ar      1 UNK         0.0000 
     10 C10         4.8943   53.8852   20.8484 C.ar      1 UNK         0.0000 
     11 C11         3.9559   52.7284   21.1061 C.2       1 UNK         0.0000 
     12 O12         4.3543   51.7125   21.6813 O.2       1 UNK         0.0000 
     13 N13         2.7043   52.8965   20.6216 N.am      1 UNK         0.0000 
     14 C14         1.5813   52.1257   20.7632 C.2       1 UNK         0.0000 
     15 S15         0.6089   51.8668   19.4475 S.2       1 UNK         0.0000 
     16 N16         1.1788   51.6057   21.9619 N.pl3     1 UNK         0.0000 
     17 N17         1.8358   51.7921   23.1740 N.am      1 UNK         0.0000 
     18 C18         1.4682   52.7915   24.0039 C.2       1 UNK         0.0000 
     19 O19         0.6863   53.6963   23.7078 O.2       1 UNK         0.0000 
     20 C20         2.0983   52.6997   25.3976 C.3       1 UNK         0.0000 
     21 O21         1.6166   53.6951   26.3032 O.3       1 UNK         0.0000 
     22 C22         1.0049   53.2914   27.4819 C.ar      1 UNK         0.0000 
     23 C23         0.2453   52.1150   27.5909 C.ar      1 UNK         0.0000 
     24 C24        -0.3758   51.7586   28.7804 C.ar      1 UNK         0.0000 
     25 C25        -0.2858   52.5762   29.8970 C.ar      1 UNK         0.0000 
     26 C26         0.4078   53.8045   29.8202 C.ar      1 UNK         0.0000 
     27 C27         1.0794   54.1607   28.6091 C.ar      1 UNK         0.0000 
     28 C28         1.7942   55.3878   28.5712 C.ar      1 UNK         0.0000 
     29 C29         1.7877   56.2524   29.6587 C.ar      1 UNK         0.0000 
     30 C30         1.1044   55.9164   30.8165 C.ar      1 UNK         0.0000 
     31 C31         0.4336   54.6997   30.9133 C.ar      1 UNK         0.0000 
     32 Br32        5.7577   56.3457   17.5722 Br        1 UNK         0.0000 
     33 H33         4.7050   56.0967   26.0816 H         1 UNK         0.0000 
     34 H34         4.1586   55.0429   24.7884 H         1 UNK         0.0000 
     35 H35         4.9514   54.3693   26.2118 H         1 UNK         0.0000 
     36 H36         7.0734   55.5976   25.5759 H         1 UNK         0.0000 
     37 H37         6.3042   56.2122   24.1447 H         1 UNK         0.0000 
     38 H38         6.7432   53.2967   24.8410 H         1 UNK         0.0000 
     39 H39         7.7400   54.0972   23.7019 H         1 UNK         0.0000 
     40 H40         7.4409   55.7088   22.2155 H         1 UNK         0.0000 
     41 H41         7.4014   56.7288   20.0041 H         1 UNK         0.0000 
     42 H42         4.2191   54.1697   18.8052 H         1 UNK         0.0000 
     43 H43         2.5593   53.7386   20.0798 H         1 UNK         0.0000 
     44 H44         0.6068   50.7733   21.9766 H         1 UNK         0.0000 
     45 H45         2.4517   51.0291   23.4168 H         1 UNK         0.0000 
     46 H46         3.1749   52.8366   25.3057 H         1 UNK         0.0000 
     47 H47         1.9044   51.6969   25.7573 H         1 UNK         0.0000 
     48 H48         0.0933   51.4628   26.7449 H         1 UNK         0.0000 
     49 H49        -0.9573   50.8507   28.8296 H         1 UNK         0.0000 
     50 H50        -0.7842   52.2939   30.8157 H         1 UNK         0.0000 
     51 H51         2.3327   55.6661   27.6814 H         1 UNK         0.0000 
     52 H52         2.3075   57.1965   29.6034 H         1 UNK         0.0000 
     53 H53         1.1088   56.5986   31.6549 H         1 UNK         0.0000 
     54 H54        -0.0816   54.4366   31.8268 H         1 UNK         0.0000 
@<TRIPOS>BOND
     1    1    2 1    
     2    1   33 1    
     3    1   34 1    
     4    1   35 1    
     5    2    3 1    
     6    2   36 1    
     7    2   37 1    
     8    3    4 1    
     9    3   38 1    
    10    3   39 1    
    11    4    5 1    
    12    5   10 ar   
    13    5    6 ar   
    14    6    7 ar   
    15    6   40 1    
    16    7    8 ar   
    17    7   41 1    
    18    8    9 ar   
    19    8   32 1    
    20    9   10 ar   
    21    9   42 1    
    22   10   11 1    
    23   11   12 2    
    24   11   13 am   BACKBONE|DICT|INTERRES
    25   13   14 am   BACKBONE|DICT|INTERRES
    26   13   43 1    
    27   14   15 2    
    28   14   16 1    
    29   16   17 1    
    30   16   44 1    
    31   17   18 am   BACKBONE|DICT|INTERRES
    32   17   45 1    
    33   18   19 2    
    34   18   20 1    
    35   20   21 1    
    36   20   46 1    
    37   20   47 1    
    38   21   22 1    
    39   22   27 ar   
    40   22   23 ar   
    41   23   24 ar   
    42   23   48 1    
    43   24   25 ar   
    44   24   49 1    
    45   25   26 ar   
    46   25   50 1    
    47   26   31 ar   
    48   26   27 ar   
    49   27   28 ar   
    50   28   29 ar   
    51   28   51 1    
    52   29   30 ar   
    53   29   52 1    
    54   30   31 ar   
    55   30   53 1    
    56   31   54 1    
@<TRIPOS>SUBSTRUCTURE
     1 UNK         1 GROUP             0       ****    0 ROOT    
