@<TRIPOS>MOLECULE
ZINC14273349_4529
50   53    1
SMALL
USER_CHARGES


@<TRIPOS>ATOM
      1 C1         -7.3788   49.9759   24.2408 C.3       1 UNK         0.0000 
      2 C2         -5.8392   49.9603   24.2507 C.3       1 UNK         0.0000 
      3 H3         -5.5267   49.6362   23.2557 H         1 UNK         0.0000 
      4 C4         -5.2903   49.0042   25.3273 C.3       1 UNK         0.0000 
      5 C5         -3.7697   48.7907   25.1753 C.3       1 UNK         0.0000 
      6 C6         -3.0512   50.1430   25.0072 C.2       1 UNK         0.0000 
      7 C7         -3.7852   51.3095   24.7088 C.2       1 UNK         0.0000 
      8 S8         -2.8067   52.7298   24.6990 S.3       1 UNK         0.0000 
      9 C9         -1.4056   51.7947   25.0794 C.2       1 UNK         0.0000 
     10 C10        -1.6564   50.4083   25.1842 C.2       1 UNK         0.0000 
     11 C11        -0.6253   49.4323   25.5380 C.2       1 UNK         0.0000 
     12 O12         0.4516   49.7549   26.0289 O.2       1 UNK         0.0000 
     13 N13        -0.8831   48.1501   25.2817 N.am      1 UNK         0.0000 
     14 N14        -0.2228   52.4962   25.2367 N.am      1 UNK         0.0000 
     15 C15         0.7619   52.5055   24.3183 C.2       1 UNK         0.0000 
     16 O16         0.6384   51.9763   23.2092 O.2       1 UNK         0.0000 
     17 C17         2.0514   53.2291   24.6838 C.ar      1 UNK         0.0000 
     18 C18         2.9749   53.4661   23.6584 C.ar      1 UNK         0.0000 
     19 C19         4.2273   54.0671   23.9052 C.ar      1 UNK         0.0000 
     20 C20         5.1788   54.2266   22.8655 C.ar      1 UNK         0.0000 
     21 C21         6.4026   54.8350   23.1229 C.ar      1 UNK         0.0000 
     22 C22         6.7041   55.2949   24.3983 C.ar      1 UNK         0.0000 
     23 C23         5.8059   55.1213   25.4457 C.ar      1 UNK         0.0000 
     24 C24         4.5463   54.4970   25.2269 C.ar      1 UNK         0.0000 
     25 C25         3.5960   54.2879   26.2657 C.ar      1 UNK         0.0000 
     26 C26         2.3805   53.6391   25.9977 C.ar      1 UNK         0.0000 
     27 O27         1.5042   53.4552   27.0456 O.3       1 UNK         0.0000 
     28 C28         1.7630   52.3169   27.8653 C.3       1 UNK         0.0000 
     29 Br29        3.9621   54.8964   28.0448 Br        1 UNK         0.0000 
     30 C30        -5.2958   51.3840   24.5086 C.3       1 UNK         0.0000 
     31 H31        -7.7850   50.2931   25.2021 H         1 UNK         0.0000 
     32 H32        -7.7594   50.6569   23.4782 H         1 UNK         0.0000 
     33 H33        -7.7842   48.9876   24.0210 H         1 UNK         0.0000 
     34 H34        -5.7844   48.0360   25.2399 H         1 UNK         0.0000 
     35 H35        -5.5587   49.3533   26.3258 H         1 UNK         0.0000 
     36 H36        -3.4062   48.2544   26.0542 H         1 UNK         0.0000 
     37 H37        -3.5743   48.1545   24.3110 H         1 UNK         0.0000 
     38 H38        -1.7960   47.8629   24.9747 H         1 UNK         0.0000 
     39 H39        -0.2194   47.4686   25.6318 H         1 UNK         0.0000 
     40 H40        -0.0490   52.9664   26.1157 H         1 UNK         0.0000 
     41 H41         2.7588   53.1559   22.6438 H         1 UNK         0.0000 
     42 H42         4.9424   53.8847   21.8674 H         1 UNK         0.0000 
     43 H43         7.1211   54.9644   22.3254 H         1 UNK         0.0000 
     44 H44         7.6466   55.7898   24.5714 H         1 UNK         0.0000 
     45 H45         6.0721   55.4688   26.4320 H         1 UNK         0.0000 
     46 H46         0.9142   52.1501   28.5279 H         1 UNK         0.0000 
     47 H47         1.9040   51.4095   27.2817 H         1 UNK         0.0000 
     48 H48         2.6461   52.4509   28.4878 H         1 UNK         0.0000 
     49 H49        -5.5532   52.0469   23.6822 H         1 UNK         0.0000 
     50 H50        -5.7560   51.8003   25.4066 H         1 UNK         0.0000 
@<TRIPOS>BOND
     1    1    2 1    
     2    1   31 1    
     3    1   32 1    
     4    1   33 1    
     5    2    3 1    
     6    2   30 1    
     7    2    4 1    
     8    4    5 1    
     9    4   34 1    
    10    4   35 1    
    11    5    6 1    
    12    5   36 1    
    13    5   37 1    
    14    6   10 1    
    15    6    7 2    
    16    7    8 1    
    17    7   30 1    
    18    8    9 1    
    19    9   10 2    
    20    9   14 am   BACKBONE|DICT|INTERRES
    21   10   11 1    
    22   11   12 2    
    23   11   13 am   BACKBONE|DICT|INTERRES
    24   13   38 1    
    25   13   39 1    
    26   14   15 am   BACKBONE|DICT|INTERRES
    27   14   40 1    
    28   15   16 2    
    29   15   17 1    
    30   17   26 ar   
    31   17   18 ar   
    32   18   19 ar   
    33   18   41 1    
    34   19   24 ar   
    35   19   20 ar   
    36   20   21 ar   
    37   20   42 1    
    38   21   22 ar   
    39   21   43 1    
    40   22   23 ar   
    41   22   44 1    
    42   23   24 ar   
    43   23   45 1    
    44   24   25 ar   
    45   25   26 ar   
    46   25   29 1    
    47   26   27 1    
    48   27   28 1    
    49   28   46 1    
    50   28   47 1    
    51   28   48 1    
    52   30   49 1    
    53   30   50 1    
@<TRIPOS>SUBSTRUCTURE
     1 UNK         1 GROUP             0       ****    0 ROOT    
