@<TRIPOS>MOLECULE
ZINC20168670_2868
48   50    1
SMALL
USER_CHARGES


@<TRIPOS>ATOM
      1 C1         -2.2010   52.7865   24.2237 C.3       1 UNK         0.0000 
      2 C2         -1.1131   51.7193   24.4193 C.3       1 UNK         0.0000 
      3 O3          0.0597   52.2773   25.0043 O.3       1 UNK         0.0000 
      4 C4          1.0198   52.8720   24.2484 C.2       1 UNK         0.0000 
      5 O5          0.9832   52.9714   23.0195 O.2       1 UNK         0.0000 
      6 C6          2.1218   53.3868   25.0786 C.2       1 UNK         0.0000 
      7 C7          2.1846   53.2891   26.4851 C.2       1 UNK         0.0000 
      8 C8          3.3195   53.7999   27.1022 C.2       1 UNK         0.0000 
      9 S9          4.2964   54.5775   25.9204 S.3       1 UNK         0.0000 
     10 C10         3.2808   54.0263   24.6083 C.2       1 UNK         0.0000 
     11 N11         3.5719   54.2615   23.2628 N.pl3     1 UNK         0.0000 
     12 C12         4.7738   54.2994   22.6026 C.2       1 UNK         0.0000 
     13 S13         6.3044   54.0970   23.2814 S.2       1 UNK         0.0000 
     14 N14         4.5532   54.4963   21.2654 N.pl3     1 UNK         0.0000 
     15 N15         5.5038   54.3917   20.2431 N.am      1 UNK         0.0000 
     16 C16         6.3309   55.4215   19.9493 C.2       1 UNK         0.0000 
     17 O17         6.3061   56.5346   20.4835 O.2       1 UNK         0.0000 
     18 C18         7.3007   55.0971   18.9375 C.2       1 UNK         0.0000 
     19 C19         7.3407   54.0967   17.9655 C.2       1 UNK         0.0000 
     20 C20         8.5134   54.2916   17.2351 C.2       1 UNK         0.0000 
     21 C21         9.1188   55.4224   17.7563 C.2       1 UNK         0.0000 
     22 O22         8.3723   55.9203   18.7762 O.3       1 UNK         0.0000 
     23 Br23       10.7172   56.3428   17.2910 Br        1 UNK         0.0000 
     24 C24         3.7353   53.7584   28.5541 C.3       1 UNK         0.0000 
     25 C25         2.5545   54.0147   29.4638 C.ar      1 UNK         0.0000 
     26 C26         1.8627   52.9411   30.0347 C.ar      1 UNK         0.0000 
     27 C27         0.7470   53.1841   30.8289 C.ar      1 UNK         0.0000 
     28 C28         0.3422   54.4974   31.0460 C.ar      1 UNK         0.0000 
     29 C29         1.0304   55.5714   30.4813 C.ar      1 UNK         0.0000 
     30 C30         2.1366   55.3284   29.6787 C.ar      1 UNK         0.0000 
     31 H31        -3.0907   52.3535   23.7685 H         1 UNK         0.0000 
     32 H32        -2.4963   53.2162   25.1802 H         1 UNK         0.0000 
     33 H33        -1.8574   53.5975   23.5828 H         1 UNK         0.0000 
     34 H34        -0.8838   51.2184   23.4765 H         1 UNK         0.0000 
     35 H35        -1.4881   50.9469   25.0906 H         1 UNK         0.0000 
     36 H36         1.4137   52.7999   27.0630 H         1 UNK         0.0000 
     37 H37         2.7592   54.1653   22.6670 H         1 UNK         0.0000 
     38 H38         3.6784   54.8753   20.9273 H         1 UNK         0.0000 
     39 H39         5.5850   53.4590   19.8599 H         1 UNK         0.0000 
     40 H40         6.6162   53.3096   17.8090 H         1 UNK         0.0000 
     41 H41         8.8743   53.6879   16.4153 H         1 UNK         0.0000 
     42 H42         4.1806   52.7908   28.7870 H         1 UNK         0.0000 
     43 H43         4.5079   54.5023   28.7604 H         1 UNK         0.0000 
     44 H44         2.1740   51.9255   29.8451 H         1 UNK         0.0000 
     45 H45         0.2007   52.3669   31.2800 H         1 UNK         0.0000 
     46 H46        -0.4965   54.6887   31.6839 H         1 UNK         0.0000 
     47 H47         0.7091   56.5832   30.6714 H         1 UNK         0.0000 
     48 H48         2.6668   56.1576   29.2319 H         1 UNK         0.0000 
@<TRIPOS>BOND
     1    1    2 1    
     2    1   31 1    
     3    1   32 1    
     4    1   33 1    
     5    2    3 1    
     6    2   34 1    
     7    2   35 1    
     8    3    4 1    
     9    4    5 2    
    10    4    6 1    
    11    6   10 2    
    12    6    7 1    
    13    7    8 2    
    14    7   36 1    
    15    8    9 1    
    16    8   24 1    
    17    9   10 1    
    18   10   11 1    
    19   11   12 1    
    20   11   37 1    
    21   12   13 2    
    22   12   14 1    
    23   14   15 1    
    24   14   38 1    
    25   15   16 am   BACKBONE|DICT|INTERRES
    26   15   39 1    
    27   16   17 2    
    28   16   18 1    
    29   18   22 1    
    30   18   19 2    
    31   19   20 1    
    32   19   40 1    
    33   20   21 2    
    34   20   41 1    
    35   21   22 1    
    36   21   23 1    
    37   24   25 1    
    38   24   42 1    
    39   24   43 1    
    40   25   30 ar   
    41   25   26 ar   
    42   26   27 ar   
    43   26   44 1    
    44   27   28 ar   
    45   27   45 1    
    46   28   29 ar   
    47   28   46 1    
    48   29   30 ar   
    49   29   47 1    
    50   30   48 1    
@<TRIPOS>SUBSTRUCTURE
     1 UNK         1 GROUP             0       ****    0 ROOT    
