@<TRIPOS>MOLECULE
ZINC39675449_4083
75   78    1
SMALL
USER_CHARGES


@<TRIPOS>ATOM
      1 C1         -6.7706   49.6530   28.7934 C.3       1 UNK         0.0000 
      2 C2         -6.0018   50.5008   27.7962 C.ar      1 UNK         0.0000 
      3 C3         -4.6453   50.7520   27.9931 C.ar      1 UNK         0.0000 
      4 C4         -3.9371   51.5174   27.0709 C.ar      1 UNK         0.0000 
      5 C5         -4.5642   52.0274   25.9220 C.ar      1 UNK         0.0000 
      6 C6         -5.9384   51.7742   25.7242 C.ar      1 UNK         0.0000 
      7 C7         -6.6393   51.0123   26.6641 C.ar      1 UNK         0.0000 
      8 C8         -6.6921   52.2822   24.4983 C.3       1 UNK         0.0000 
      9 C9         -3.7463   52.8541   24.9531 C.2       1 UNK         0.0000 
     10 O10        -4.0964   54.0127   24.7122 O.2       1 UNK         0.0000 
     11 N11        -2.6197   52.3019   24.4286 N.am      1 UNK         0.0000 
     12 C12        -1.6225   53.0928   23.7075 C.3       1 UNK         0.0000 
     13 C13        -0.6228   52.0389   23.1711 C.3       1 UNK         0.0000 
     14 H14        -0.9479   51.8070   22.1553 H         1 UNK         0.0000 
     15 C15        -0.7698   50.8328   24.1383 C.3       1 UNK         0.0000 
     16 C16        -2.2747   50.8784   24.4731 C.3       1 UNK         0.0000 
     17 C17        -0.3038   49.5057   23.4884 C.3       1 UNK         0.0000 
     18 C18        -0.5664   48.2990   24.3998 C.3       1 UNK         0.0000 
     19 N19         0.2483   48.5199   25.6821 N.4       1 UNK         0.0000 
     20 C20        -0.0858   49.8275   26.4328 C.3       1 UNK         0.0000 
     21 C21         0.0715   50.9981   25.4465 C.3       1 UNK         0.0000 
     22 C22         0.8366   52.5741   23.0525 C.2       1 UNK         0.0000 
     23 O23         1.6353   51.9003   22.4095 O.2       1 UNK         0.0000 
     24 N24         1.1962   53.7132   23.6851 N.am      1 UNK         0.0000 
     25 C25         2.5546   54.2635   23.8275 C.3       1 UNK         0.0000 
     26 H26         2.3845   55.2974   24.1178 H         1 UNK         0.0000 
     27 C27         3.3571   54.3636   22.5069 C.3       1 UNK         0.0000 
     28 C28         3.3683   53.5569   24.9546 C.3       1 UNK         0.0000 
     29 C29         3.6249   54.3882   26.2351 C.3       1 UNK         0.0000 
     30 C30         3.2275   53.7173   27.5446 C.ar      1 UNK         0.0000 
     31 C31         1.8980   53.7491   27.9714 C.ar      1 UNK         0.0000 
     32 C32         1.5488   53.2103   29.2089 C.ar      1 UNK         0.0000 
     33 C33         2.5286   52.6257   30.0263 C.ar      1 UNK         0.0000 
     34 C34         3.8472   52.5739   29.5788 C.ar      1 UNK         0.0000 
     35 C35         4.2020   53.1217   28.3500 C.ar      1 UNK         0.0000 
     36 O36         2.2846   52.0967   31.2798 O.3       1 UNK         0.0000 
     37 C37         0.9755   52.1956   31.8396 C.3       1 UNK         0.0000 
     38 H38        -6.1068   48.9617   29.3140 H         1 UNK         0.0000 
     39 H39        -7.2715   50.2839   29.5272 H         1 UNK         0.0000 
     40 H40        -7.5211   49.0467   28.2853 H         1 UNK         0.0000 
     41 H41        -4.1337   50.3566   28.8604 H         1 UNK         0.0000 
     42 H42        -2.8888   51.7070   27.2545 H         1 UNK         0.0000 
     43 H43        -7.6909   50.8056   26.5146 H         1 UNK         0.0000 
     44 H44        -7.7063   51.8826   24.4373 H         1 UNK         0.0000 
     45 H45        -6.7477   53.3715   24.5043 H         1 UNK         0.0000 
     46 H46        -6.1724   51.9821   23.5894 H         1 UNK         0.0000 
     47 H47        -1.1559   53.6995   24.4814 H         1 UNK         0.0000 
     48 H48        -2.0806   53.6859   22.9138 H         1 UNK         0.0000 
     49 H49        -2.8137   50.3952   23.6563 H         1 UNK         0.0000 
     50 H50        -2.5306   50.3222   25.3726 H         1 UNK         0.0000 
     51 H51        -0.8449   49.3516   22.5551 H         1 UNK         0.0000 
     52 H52         0.7493   49.5518   23.1997 H         1 UNK         0.0000 
     53 H53        -1.6096   48.1794   24.6953 H         1 UNK         0.0000 
     54 H54        -0.2045   47.3675   23.9689 H         1 UNK         0.0000 
     55 H55         0.1357   47.7337   26.3216 H         1 UNK         0.0000 
     56 H56        -1.0821   49.7234   26.8700 H         1 UNK         0.0000 
     57 H57         0.6210   49.9145   27.2582 H         1 UNK         0.0000 
     58 H58         1.1260   51.1121   25.2189 H         1 UNK         0.0000 
     59 H59        -0.2064   51.9199   25.9610 H         1 UNK         0.0000 
     60 H60         0.4769   54.2178   24.1737 H         1 UNK         0.0000 
     61 H61         4.2947   54.8950   22.6658 H         1 UNK         0.0000 
     62 H62         3.6303   53.3827   22.1123 H         1 UNK         0.0000 
     63 H63         2.8046   54.8992   21.7394 H         1 UNK         0.0000 
     64 H64         4.3503   53.2966   24.5627 H         1 UNK         0.0000 
     65 H65         2.9171   52.5987   25.2023 H         1 UNK         0.0000 
     66 H66         3.1047   55.3363   26.2001 H         1 UNK         0.0000 
     67 H67         4.6795   54.6673   26.2796 H         1 UNK         0.0000 
     68 H68         1.1412   54.2139   27.3566 H         1 UNK         0.0000 
     69 H69         0.5170   53.2690   29.5212 H         1 UNK         0.0000 
     70 H70         4.6060   52.1200   30.2000 H         1 UNK         0.0000 
     71 H71         5.2336   53.0925   28.0301 H         1 UNK         0.0000 
     72 H72         0.9577   51.6972   32.8086 H         1 UNK         0.0000 
     73 H73         0.2216   51.7158   31.2131 H         1 UNK         0.0000 
     74 H74         0.6907   53.2356   32.0029 H         1 UNK         0.0000 
     75 H75         1.2318   48.5210   25.4420 H         1 UNK         0.0000 
@<TRIPOS>BOND
     1    1    2 1    
     2    1   38 1    
     3    1   39 1    
     4    1   40 1    
     5    2    7 ar   
     6    2    3 ar   
     7    3    4 ar   
     8    3   41 1    
     9    4    5 ar   
    10    4   42 1    
    11    5    6 ar   
    12    5    9 1    
    13    6    7 ar   
    14    6    8 1    
    15    7   43 1    
    16    8   44 1    
    17    8   45 1    
    18    8   46 1    
    19    9   10 2    
    20    9   11 am   BACKBONE|DICT|INTERRES
    21   11   16 1    
    22   11   12 1    
    23   12   13 1    
    24   12   47 1    
    25   12   48 1    
    26   13   14 1    
    27   13   15 1    
    28   13   22 1    
    29   15   21 1    
    30   15   16 1    
    31   15   17 1    
    32   16   49 1    
    33   16   50 1    
    34   17   18 1    
    35   17   51 1    
    36   17   52 1    
    37   18   19 1    
    38   18   53 1    
    39   18   54 1    
    40   19   20 1    
    41   19   55 1    
    42   19   75 1    
    43   20   21 1    
    44   20   56 1    
    45   20   57 1    
    46   21   58 1    
    47   21   59 1    
    48   22   23 2    
    49   22   24 am   BACKBONE|DICT|INTERRES
    50   24   25 1    
    51   24   60 1    
    52   25   26 1    
    53   25   27 1    
    54   25   28 1    
    55   27   61 1    
    56   27   62 1    
    57   27   63 1    
    58   28   29 1    
    59   28   64 1    
    60   28   65 1    
    61   29   30 1    
    62   29   66 1    
    63   29   67 1    
    64   30   35 ar   
    65   30   31 ar   
    66   31   32 ar   
    67   31   68 1    
    68   32   33 ar   
    69   32   69 1    
    70   33   34 ar   
    71   33   36 1    
    72   34   35 ar   
    73   34   70 1    
    74   35   71 1    
    75   36   37 1    
    76   37   72 1    
    77   37   73 1    
    78   37   74 1    
@<TRIPOS>SUBSTRUCTURE
     1 UNK         1 GROUP             0       ****    0 ROOT    
