@<TRIPOS>MOLECULE
ZINC12494332_4476
61   64    1
SMALL
USER_CHARGES


@<TRIPOS>ATOM
      1 C1          9.9706   49.8062   16.4443 C.3       1 UNK         0.0000 
      2 C2          9.2643   51.0341   15.9006 C.ar      1 UNK         0.0000 
      3 C3          9.1416   52.1784   16.6891 C.ar      1 UNK         0.0000 
      4 C4          8.4699   53.2971   16.2013 C.ar      1 UNK         0.0000 
      5 C5          7.8906   53.2767   14.9295 C.ar      1 UNK         0.0000 
      6 C6          8.0121   52.1261   14.1272 C.ar      1 UNK         0.0000 
      7 C7          8.7048   51.0153   14.6209 C.ar      1 UNK         0.0000 
      8 C8          7.4453   52.0566   12.7150 C.3       1 UNK         0.0000 
      9 N9          7.2163   54.4252   14.4973 N.pl3     1 UNK         0.0000 
     10 S10         5.4580   54.5179   14.6618 S.o2      1 UNK         0.0000 
     11 O11         4.8848   53.2874   14.1047 O.2       1 UNK         0.0000 
     12 O12         5.0673   55.8379   14.1558 O.2       1 UNK         0.0000 
     13 C13         5.1822   54.5171   16.4293 C.ar      1 UNK         0.0000 
     14 C14         5.2267   55.7183   17.1417 C.ar      1 UNK         0.0000 
     15 C15         5.1014   55.7031   18.5285 C.ar      1 UNK         0.0000 
     16 C16         4.9463   54.4841   19.1994 C.ar      1 UNK         0.0000 
     17 C17         4.8498   53.2967   18.4783 C.ar      1 UNK         0.0000 
     18 C18         4.9789   53.3064   17.0939 C.ar      1 UNK         0.0000 
     19 N19         4.8484   54.3953   20.5985 N.pl3     1 UNK         0.0000 
     20 C20         5.6800   54.8480   21.5880 C.2       1 UNK         0.0000 
     21 S21         7.1042   55.6967   21.2817 S.2       1 UNK         0.0000 
     22 N22         5.1826   54.4967   22.8198 N.am      1 UNK         0.0000 
     23 C23         5.5925   54.7295   24.0976 C.2       1 UNK         0.0000 
     24 O24         6.7018   55.1686   24.4157 O.2       1 UNK         0.0000 
     25 C25         4.5777   54.3995   25.1815 C.ar      1 UNK         0.0000 
     26 C26         3.2637   54.0018   24.8785 C.ar      1 UNK         0.0000 
     27 C27         2.3606   53.6965   25.8933 C.ar      1 UNK         0.0000 
     28 C28         2.7269   53.8057   27.2384 C.ar      1 UNK         0.0000 
     29 C29         4.0305   54.2108   27.5440 C.ar      1 UNK         0.0000 
     30 C30         4.9450   54.4961   26.5319 C.ar      1 UNK         0.0000 
     31 C31         1.7463   53.4968   28.3208 C.ar      1 UNK         0.0000 
     32 C32         1.6473   54.3160   29.4545 C.ar      1 UNK         0.0000 
     33 C33         0.7369   54.0209   30.4683 C.ar      1 UNK         0.0000 
     34 C34        -0.0767   52.8966   30.3590 C.ar      1 UNK         0.0000 
     35 C35        -0.0009   52.0782   29.2365 C.ar      1 UNK         0.0000 
     36 C36         0.9050   52.3794   28.2220 C.ar      1 UNK         0.0000 
     37 H37         9.5312   48.8972   16.0309 H         1 UNK         0.0000 
     38 H38        11.0316   49.8300   16.1941 H         1 UNK         0.0000 
     39 H39         9.8660   49.7401   17.5293 H         1 UNK         0.0000 
     40 H40         9.5661   52.2029   17.6814 H         1 UNK         0.0000 
     41 H41         8.3827   54.1731   16.8284 H         1 UNK         0.0000 
     42 H42         8.8033   50.1286   14.0102 H         1 UNK         0.0000 
     43 H43         8.0927   51.4620   12.0695 H         1 UNK         0.0000 
     44 H44         6.4546   51.5996   12.7234 H         1 UNK         0.0000 
     45 H45         7.3789   53.0435   12.2553 H         1 UNK         0.0000 
     46 H46         7.6483   55.3027   14.7414 H         1 UNK         0.0000 
     47 H47         5.3758   56.6583   16.6290 H         1 UNK         0.0000 
     48 H48         5.1449   56.6336   19.0753 H         1 UNK         0.0000 
     49 H49         4.7063   52.3522   18.9833 H         1 UNK         0.0000 
     50 H50         4.9455   52.3708   16.5518 H         1 UNK         0.0000 
     51 H51         4.0969   53.7920   20.8977 H         1 UNK         0.0000 
     52 H52         4.2707   54.0721   22.7808 H         1 UNK         0.0000 
     53 H53         2.9125   53.9162   23.8612 H         1 UNK         0.0000 
     54 H54         1.3585   53.3924   25.6272 H         1 UNK         0.0000 
     55 H55         4.3482   54.2941   28.5732 H         1 UNK         0.0000 
     56 H56         5.9438   54.7983   26.8147 H         1 UNK         0.0000 
     57 H57         2.2706   55.1937   29.5481 H         1 UNK         0.0000 
     58 H58         0.6671   54.6560   31.3396 H         1 UNK         0.0000 
     59 H59        -0.7671   52.6513   31.1547 H         1 UNK         0.0000 
     60 H60        -0.6343   51.2047   29.1587 H         1 UNK         0.0000 
     61 H61         0.9620   51.7247   27.3644 H         1 UNK         0.0000 
@<TRIPOS>BOND
     1    1    2 1    
     2    1   37 1    
     3    1   38 1    
     4    1   39 1    
     5    2    7 ar   
     6    2    3 ar   
     7    3    4 ar   
     8    3   40 1    
     9    4    5 ar   
    10    4   41 1    
    11    5    6 ar   
    12    5    9 1    
    13    6    7 ar   
    14    6    8 1    
    15    7   42 1    
    16    8   43 1    
    17    8   44 1    
    18    8   45 1    
    19    9   10 1    
    20    9   46 1    
    21   10   11 2    
    22   10   12 2    
    23   10   13 1    
    24   13   18 ar   
    25   13   14 ar   
    26   14   15 ar   
    27   14   47 1    
    28   15   16 ar   
    29   15   48 1    
    30   16   17 ar   
    31   16   19 1    
    32   17   18 ar   
    33   17   49 1    
    34   18   50 1    
    35   19   20 1    
    36   19   51 1    
    37   20   21 2    
    38   20   22 am   BACKBONE|DICT|INTERRES
    39   22   23 am   BACKBONE|DICT|INTERRES
    40   22   52 1    
    41   23   24 2    
    42   23   25 1    
    43   25   30 ar   
    44   25   26 ar   
    45   26   27 ar   
    46   26   53 1    
    47   27   28 ar   
    48   27   54 1    
    49   28   29 ar   
    50   28   31 1    
    51   29   30 ar   
    52   29   55 1    
    53   30   56 1    
    54   31   36 ar   
    55   31   32 ar   
    56   32   33 ar   
    57   32   57 1    
    58   33   34 ar   
    59   33   58 1    
    60   34   35 ar   
    61   34   59 1    
    62   35   36 ar   
    63   35   60 1    
    64   36   61 1    
@<TRIPOS>SUBSTRUCTURE
     1 UNK         1 GROUP             0       ****    0 ROOT    
