ZINC39656831_3673
                    3D
 Schrodinger Suite 2024-2.
 65 69  0  0  1  0            999 V2000
    1.1303   51.7216   28.8078 C   0  0  0  0  0  0
    1.2859   52.7840   27.6945 C   0  0  1  0  0  0
    0.6703   53.6426   27.9801 H   0  0  0  0  0  0
    2.7083   53.3715   27.5474 C   0  0  0  0  0  0
    3.1081   53.9418   26.3291 C   0  0  0  0  0  0
    4.4068   54.4041   26.1532 C   0  0  0  0  0  0
    5.3171   54.3158   27.2029 C   0  0  0  0  0  0
    4.9288   53.7944   28.4343 C   0  0  0  0  0  0
    3.6298   53.3188   28.6045 C   0  0  0  0  0  0
    7.1043   54.8965   26.9339 Br  0  0  0  0  0  0
    0.7682   52.2776   26.4173 N   0  0  0  0  0  0
   -0.5264   52.1683   26.0657 C   0  0  0  0  0  0
   -1.4351   52.4947   26.8279 O   0  0  0  0  0  0
   -0.9025   51.6933   24.6356 C   0  0  1  0  0  0
   -1.5636   52.4614   24.2295 H   0  0  0  0  0  0
    0.3184   51.6497   23.6938 C   0  0  0  0  0  0
   -0.0567   50.6674   22.6757 N   0  0  0  0  0  0
   -1.2855   49.9530   23.0558 C   0  0  0  0  0  0
   -1.5076   50.2735   24.5500 C   0  0  0  0  0  0
   -2.9844   50.2520   25.0239 C   0  0  0  0  0  0
   -3.6380   48.8725   24.8496 C   0  0  0  0  0  0
   -2.8167   47.8619   25.6814 N   0  3  0  0  0  0
   -1.3318   47.8109   25.2820 C   0  0  0  0  0  0
   -0.7513   49.2275   25.4295 C   0  0  0  0  0  0
    0.4999   50.4859   21.4419 C   0  0  0  0  0  0
    0.0121   49.6614   20.6627 O   0  0  0  0  0  0
    1.6774   51.3254   20.9533 C   0  0  0  0  0  0
    1.8418   51.5043   19.5735 C   0  0  0  0  0  0
    2.8548   52.2970   19.0454 C   0  0  0  0  0  0
    3.7532   52.9700   19.9044 C   0  0  0  0  0  0
    4.7584   53.8350   19.4047 C   0  0  0  0  0  0
    5.6128   54.4970   20.2826 C   0  0  0  0  0  0
    5.5045   54.3058   21.6571 C   0  0  0  0  0  0
    4.5385   53.4461   22.1759 C   0  0  0  0  0  0
    3.6379   52.7727   21.3111 C   0  0  0  0  0  0
    2.6203   51.9204   21.8086 C   0  0  0  0  0  0
    1.2981   52.1406   29.7989 H   0  0  0  0  0  0
    0.1233   51.2988   28.8223 H   0  0  0  0  0  0
    1.8254   50.8962   28.6601 H   0  0  0  0  0  0
    2.4217   54.0192   25.4974 H   0  0  0  0  0  0
    4.7140   54.8209   25.2045 H   0  0  0  0  0  0
    5.6323   53.7496   29.2556 H   0  0  0  0  0  0
    3.3638   52.9040   29.5647 H   0  0  0  0  0  0
    1.4733   51.9719   25.7628 H   0  0  0  0  0  0
    0.5257   52.6458   23.2941 H   0  0  0  0  0  0
    1.1627   51.2014   24.2176 H   0  0  0  0  0  0
   -1.3109   48.8938   22.8059 H   0  0  0  0  0  0
   -2.0986   50.4099   22.4883 H   0  0  0  0  0  0
   -3.0649   50.5814   26.0608 H   0  0  0  0  0  0
   -3.5611   50.9761   24.4497 H   0  0  0  0  0  0
   -4.6557   48.8425   25.2463 H   0  0  0  0  0  0
   -3.6427   48.5158   23.8174 H   0  0  0  0  0  0
   -2.8316   48.1282   26.6650 H   0  0  0  0  0  0
   -0.8957   47.1327   26.0064 H   0  0  0  0  0  0
   -1.2595   47.3773   24.2840 H   0  0  0  0  0  0
    0.3055   49.1953   25.1630 H   0  0  0  0  0  0
   -0.7648   49.5076   26.4824 H   0  0  0  0  0  0
    1.1629   51.0331   18.8778 H   0  0  0  0  0  0
    2.9479   52.4148   17.9771 H   0  0  0  0  0  0
    4.8565   53.9779   18.3371 H   0  0  0  0  0  0
    6.3732   55.1596   19.8953 H   0  0  0  0  0  0
    6.1815   54.8193   22.3257 H   0  0  0  0  0  0
    4.4661   53.2966   23.2445 H   0  0  0  0  0  0
    2.6180   51.7589   22.8710 H   0  0  0  0  0  0
   -3.2275   46.9393   25.6353 H   0  0  0  0  0  0
  1  2  1  0  0  0
  1 37  1  0  0  0
  1 38  1  0  0  0
  1 39  1  0  0  0
  2  3  1  0  0  0
  2  4  1  0  0  0
  2 11  1  0  0  0
  4  9  2  0  0  0
  4  5  1  0  0  0
  5  6  2  0  0  0
  5 40  1  0  0  0
  6  7  1  0  0  0
  6 41  1  0  0  0
  7  8  2  0  0  0
  7 10  1  0  0  0
  8  9  1  0  0  0
  8 42  1  0  0  0
  9 43  1  0  0  0
 11 12  1  0  0  0
 11 44  1  0  0  0
 12 13  2  0  0  0
 12 14  1  0  0  0
 14 15  1  0  0  0
 14 19  1  0  0  0
 14 16  1  0  0  0
 16 17  1  0  0  0
 16 45  1  0  0  0
 16 46  1  0  0  0
 17 18  1  0  0  0
 17 25  1  0  0  0
 18 19  1  0  0  0
 18 47  1  0  0  0
 18 48  1  0  0  0
 19 24  1  0  0  0
 19 20  1  0  0  0
 20 21  1  0  0  0
 20 49  1  0  0  0
 20 50  1  0  0  0
 21 22  1  0  0  0
 21 51  1  0  0  0
 21 52  1  0  0  0
 22 23  1  0  0  0
 22 53  1  0  0  0
 22 65  1  0  0  0
 23 24  1  0  0  0
 23 54  1  0  0  0
 23 55  1  0  0  0
 24 56  1  0  0  0
 24 57  1  0  0  0
 25 26  2  0  0  0
 25 27  1  0  0  0
 27 36  2  0  0  0
 27 28  1  0  0  0
 28 29  2  0  0  0
 28 58  1  0  0  0
 29 30  1  0  0  0
 29 59  1  0  0  0
 30 35  2  0  0  0
 30 31  1  0  0  0
 31 32  2  0  0  0
 31 60  1  0  0  0
 32 33  1  0  0  0
 32 61  1  0  0  0
 33 34  2  0  0  0
 33 62  1  0  0  0
 34 35  1  0  0  0
 34 63  1  0  0  0
 35 36  1  0  0  0
 36 64  1  0  0  0
M  CHG  1  22   1
M  END
> <i_i_glide_confnum>
239

> <i_i_glide_lignum>
3674

> <i_i_glide_posenum>
89

> <i_i_glide_rotatable_bonds>
6

> <i_m_Source_File_Index>
939

> <b_m_subgroup_collapsed>
0

> <r_i_docking_score>
-4.82704

> <r_i_glide_ecoul>
-2.71967

> <r_i_glide_eff_state_penalty>
0

> <r_i_glide_einternal>
9.11082

> <r_i_glide_emodel>
-56.8903

> <r_i_glide_energy>
-45.2699

> <r_i_glide_erotb>
0.377997

> <r_i_glide_esite>
-0.110233

> <r_i_glide_evdw>
-42.5503

> <r_i_glide_gscore>
-4.82704

> <r_i_glide_hbond>
-0.10192

> <r_i_glide_ligand_efficiency>
-0.141972

> <r_i_glide_ligand_efficiency_ln>
-1.06643

> <r_i_glide_ligand_efficiency_sa>
-0.459933

> <r_i_glide_lipo>
-2.36693

> <r_i_glide_metal>
0

> <r_i_glide_rewards>
-0.0904903

> <s_i_glide_gridfile>
wee1_glide-grid

> <s_m_Source_File>
wee1_decoys_glide_SP.sdf

> <s_m_Source_Path>
/Users/zhangxujun/Desktop

> <s_m_entry_id>
1214

> <s_m_entry_name>
wee1_decoys_glide_SP.939

> <s_m_subgroup_title>
wee1_decoys_glide_SP

> <s_m_subgroupid>
wee1_decoys_glide_SP


$$$$
