@<TRIPOS>MOLECULE
ZINC35871555_5246
70   74    1
SMALL
USER_CHARGES


@<TRIPOS>ATOM
      1 C1         -0.1996   51.4712   20.0977 C.3       1 UNK         0.0000 
      2 C2          1.1040   51.3034   20.8902 C.3       1 UNK         0.0000 
      3 H3          1.3926   50.2520   20.7998 H         1 UNK         0.0000 
      4 C4          0.8849   51.6097   22.3792 C.ar      1 UNK         0.0000 
      5 C5          1.1043   52.8952   22.8951 C.ar      1 UNK         0.0000 
      6 C6          0.9139   53.1451   24.2510 C.ar      1 UNK         0.0000 
      7 C7          0.5166   52.1102   25.0962 C.ar      1 UNK         0.0000 
      8 C8          0.3083   50.8269   24.5974 C.ar      1 UNK         0.0000 
      9 C9          0.4981   50.5770   23.2403 C.ar      1 UNK         0.0000 
     10 N10         2.1740   52.0904   20.2702 N.am      1 UNK         0.0000 
     11 C11         3.4847   51.9337   20.5293 C.2       1 UNK         0.0000 
     12 O12         3.9033   51.0513   21.2777 O.2       1 UNK         0.0000 
     13 C13         4.4912   52.9450   19.9311 C.3       1 UNK         0.0000 
     14 H14         5.3628   52.3307   19.6908 H         1 UNK         0.0000 
     15 C15         3.9942   53.5867   18.6266 C.3       1 UNK         0.0000 
     16 C16         5.0617   54.5308   18.0967 C.ar      1 UNK         0.0000 
     17 C17         5.1183   54.7891   16.7233 C.ar      1 UNK         0.0000 
     18 C18         6.0291   55.6959   16.1827 C.ar      1 UNK         0.0000 
     19 C19         6.9095   56.3519   17.0413 C.ar      1 UNK         0.0000 
     20 C20         6.8840   56.0923   18.4075 C.ar      1 UNK         0.0000 
     21 C21         5.9649   55.1888   18.9731 C.ar      1 UNK         0.0000 
     22 N22         6.0257   54.8446   20.3440 N.pl3     1 UNK         0.0000 
     23 C23         4.8906   54.0758   20.9329 C.3       1 UNK         0.0000 
     24 H24         4.0865   54.8154   20.9241 H         1 UNK         0.0000 
     25 C25         5.1031   53.5806   22.3954 C.3       1 UNK         0.0000 
     26 N26         5.6052   54.7044   23.3198 N.4       1 UNK         0.0000 
     27 C27         6.9202   55.2258   22.7136 C.3       1 UNK         0.0000 
     28 C28         6.6598   55.7742   21.2988 C.3       1 UNK         0.0000 
     29 C29         5.6796   54.1854   24.7861 C.3       1 UNK         0.0000 
     30 C30         6.7045   54.9297   25.6629 C.3       1 UNK         0.0000 
     31 C31         6.7560   54.3233   27.0791 C.3       1 UNK         0.0000 
     32 C32         5.3797   54.2943   27.7712 C.3       1 UNK         0.0000 
     33 C33         4.2749   53.6965   26.8822 C.3       1 UNK         0.0000 
     34 C34         4.2785   54.2581   25.4425 C.3       1 UNK         0.0000 
     35 C35         6.0586   55.9523   14.6760 C.3       1 UNK         0.0000 
     36 F36         5.8645   54.8187   13.9999 F         1 UNK         0.0000 
     37 F37         5.0864   56.8073   14.3610 F         1 UNK         0.0000 
     38 F38         7.2227   56.4732   14.2833 F         1 UNK         0.0000 
     39 H39        -0.9809   50.8163   20.4827 H         1 UNK         0.0000 
     40 H40        -0.5689   52.4948   20.1519 H         1 UNK         0.0000 
     41 H41        -0.0563   51.2246   19.0449 H         1 UNK         0.0000 
     42 H42         1.4109   53.7010   22.2434 H         1 UNK         0.0000 
     43 H43         1.0758   54.1372   24.6467 H         1 UNK         0.0000 
     44 H44         0.3706   52.3025   26.1494 H         1 UNK         0.0000 
     45 H45         0.0071   50.0280   25.2609 H         1 UNK         0.0000 
     46 H46         0.3422   49.5773   22.8615 H         1 UNK         0.0000 
     47 H47         1.8848   52.8575   19.6819 H         1 UNK         0.0000 
     48 H48         3.7309   52.8282   17.8849 H         1 UNK         0.0000 
     49 H49         3.1124   54.2028   18.8137 H         1 UNK         0.0000 
     50 H50         4.4247   54.2845   16.0650 H         1 UNK         0.0000 
     51 H51         7.6296   57.0586   16.6542 H         1 UNK         0.0000 
     52 H52         7.6188   56.6099   19.0005 H         1 UNK         0.0000 
     53 H53         4.1410   53.2869   22.8129 H         1 UNK         0.0000 
     54 H54         5.8125   52.7524   22.4604 H         1 UNK         0.0000 
     55 H55         7.6483   54.4132   22.7378 H         1 UNK         0.0000 
     56 H56         7.2518   56.0591   23.3374 H         1 UNK         0.0000 
     57 H57         7.6373   56.0936   20.9446 H         1 UNK         0.0000 
     58 H58         5.9910   56.6338   21.3585 H         1 UNK         0.0000 
     59 H59         5.9997   53.1520   24.7558 H         1 UNK         0.0000 
     60 H60         7.6946   54.8967   25.2144 H         1 UNK         0.0000 
     61 H61         6.4467   55.9893   25.7132 H         1 UNK         0.0000 
     62 H62         7.1439   53.3041   27.0214 H         1 UNK         0.0000 
     63 H63         7.4712   54.8790   27.6834 H         1 UNK         0.0000 
     64 H64         5.4501   53.7331   28.7045 H         1 UNK         0.0000 
     65 H65         5.0926   55.2977   28.0623 H         1 UNK         0.0000 
     66 H66         4.4140   52.6164   26.8514 H         1 UNK         0.0000 
     67 H67         3.2985   53.8543   27.3427 H         1 UNK         0.0000 
     68 H68         3.9456   55.2965   25.4598 H         1 UNK         0.0000 
     69 H69         3.5295   53.7512   24.8388 H         1 UNK         0.0000 
     70 H70         4.9297   55.4550   23.3032 H         1 UNK         0.0000 
@<TRIPOS>BOND
     1    1    2 1    
     2    1   39 1    
     3    1   40 1    
     4    1   41 1    
     5    2    3 1    
     6    2    4 1    
     7    2   10 1    
     8    4    9 ar   
     9    4    5 ar   
    10    5    6 ar   
    11    5   42 1    
    12    6    7 ar   
    13    6   43 1    
    14    7    8 ar   
    15    7   44 1    
    16    8    9 ar   
    17    8   45 1    
    18    9   46 1    
    19   10   11 am   BACKBONE|DICT|INTERRES
    20   10   47 1    
    21   11   12 2    
    22   11   13 1    
    23   13   14 1    
    24   13   23 1    
    25   13   15 1    
    26   15   16 1    
    27   15   48 1    
    28   15   49 1    
    29   16   21 ar   
    30   16   17 ar   
    31   17   18 ar   
    32   17   50 1    
    33   18   19 ar   
    34   18   35 1    
    35   19   20 ar   
    36   19   51 1    
    37   20   21 ar   
    38   20   52 1    
    39   21   22 1    
    40   22   28 1    
    41   22   23 1    
    42   23   24 1    
    43   23   25 1    
    44   25   26 1    
    45   25   53 1    
    46   25   54 1    
    47   26   27 1    
    48   26   29 1    
    49   26   70 1    
    50   27   28 1    
    51   27   55 1    
    52   27   56 1    
    53   28   57 1    
    54   28   58 1    
    55   29   34 1    
    56   29   30 1    
    57   29   59 1    
    58   30   31 1    
    59   30   60 1    
    60   30   61 1    
    61   31   32 1    
    62   31   62 1    
    63   31   63 1    
    64   32   33 1    
    65   32   64 1    
    66   32   65 1    
    67   33   34 1    
    68   33   66 1    
    69   33   67 1    
    70   34   68 1    
    71   34   69 1    
    72   35   36 1    
    73   35   37 1    
    74   35   38 1    
@<TRIPOS>SUBSTRUCTURE
     1 UNK         1 GROUP             0       ****    0 ROOT    
