@<TRIPOS>MOLECULE
ZINC38966303_5456
44   46    1
SMALL
USER_CHARGES


@<TRIPOS>ATOM
      1 C1         -4.7949   51.4959   24.8859 C.3       1 UNK         0.0000 
      2 C2         -3.6704   51.5462   23.8336 C.3       1 UNK         0.0000 
      3 C3         -2.9852   52.9244   23.6785 C.3       1 UNK         0.0000 
      4 O4         -2.7596   50.4456   23.9334 O.3       1 UNK         0.0000 
      5 C5         -1.7599   50.3860   24.8853 C.ar      1 UNK         0.0000 
      6 C6         -0.7803   49.4105   24.6940 C.ar      1 UNK         0.0000 
      7 C7          0.3034   49.3109   25.5629 C.ar      1 UNK         0.0000 
      8 C8          0.4163   50.1950   26.6330 C.ar      1 UNK         0.0000 
      9 C9         -0.5755   51.1487   26.8771 C.ar      1 UNK         0.0000 
     10 C10        -1.6561   51.2325   25.9989 C.ar      1 UNK         0.0000 
     11 C11        -0.5020   52.1553   28.0289 C.3       1 UNK         0.0000 
     12 H12        -0.8956   53.1084   27.6812 H         1 UNK         0.0000 
     13 N13        -1.2956   51.6962   29.1224 N.2       1 UNK         0.0000 
     14 N14        -0.5976   51.7523   30.1621 N.pl3     1 UNK         0.0000 
     15 C15         0.6947   52.2417   30.0130 C.2       1 UNK         0.0000 
     16 S16         1.7545   52.4917   31.2728 S.2       1 UNK         0.0000 
     17 N17         0.7882   52.4158   28.6648 N.pl3     1 UNK         0.0000 
     18 N18         1.9240   52.9293   28.1032 N.2       1 UNK         0.0000 
     19 C19         1.9372   53.2705   26.8748 C.2       1 UNK         0.0000 
     20 C20         3.1294   53.7710   26.1746 C.ar      1 UNK         0.0000 
     21 C21         3.0424   53.9112   24.7802 C.ar      1 UNK         0.0000 
     22 C22         4.1414   54.3131   24.0252 C.ar      1 UNK         0.0000 
     23 C23         5.3515   54.5937   24.6522 C.ar      1 UNK         0.0000 
     24 C24         5.4515   54.4938   26.0371 C.ar      1 UNK         0.0000 
     25 C25         4.3549   54.0912   26.8032 C.ar      1 UNK         0.0000 
     26 O26         4.5285   54.0310   28.1659 O.3       1 UNK         0.0000 
     27 Br27        7.1043   54.8969   26.8809 Br        1 UNK         0.0000 
     28 Br28        3.9821   54.4911   22.1368 Br        1 UNK         0.0000 
     29 H29        -5.4827   52.3325   24.7642 H         1 UNK         0.0000 
     30 H30        -4.4381   51.5120   25.9127 H         1 UNK         0.0000 
     31 H31        -5.3789   50.5823   24.7706 H         1 UNK         0.0000 
     32 H32        -4.1712   51.3589   22.8827 H         1 UNK         0.0000 
     33 H33        -3.7155   53.6993   23.4543 H         1 UNK         0.0000 
     34 H34        -2.4415   53.2662   24.5535 H         1 UNK         0.0000 
     35 H35        -2.2786   52.9010   22.8497 H         1 UNK         0.0000 
     36 H36        -0.8535   48.7367   23.8536 H         1 UNK         0.0000 
     37 H37         1.0608   48.5550   25.4062 H         1 UNK         0.0000 
     38 H38         1.2750   50.1138   27.2810 H         1 UNK         0.0000 
     39 H39        -2.4072   51.9736   26.2055 H         1 UNK         0.0000 
     40 H40         1.0567   53.1922   26.2426 H         1 UNK         0.0000 
     41 H41         2.1236   53.6871   24.2544 H         1 UNK         0.0000 
     42 H42         6.2063   54.9018   24.0663 H         1 UNK         0.0000 
     43 H43         5.4209   54.2719   28.4265 H         1 UNK         0.0000 
     44 H44        -1.0093   51.4940   31.0592 H         1 UNK         0.0000 
@<TRIPOS>BOND
     1    1    2 1    
     2    1   29 1    
     3    1   30 1    
     4    1   31 1    
     5    2    3 1    
     6    2    4 1    
     7    2   32 1    
     8    3   33 1    
     9    3   34 1    
    10    3   35 1    
    11    4    5 1    
    12    5   10 ar   
    13    5    6 ar   
    14    6    7 ar   
    15    6   36 1    
    16    7    8 ar   
    17    7   37 1    
    18    8    9 ar   
    19    8   38 1    
    20    9   10 ar   
    21    9   11 1    
    22   10   39 1    
    23   11   12 1    
    24   11   17 1    
    25   11   13 1    
    26   13   14 2    
    27   14   15 1    
    28   14   44 1    
    29   15   16 2    
    30   15   17 1    
    31   17   18 1    
    32   18   19 2    
    33   19   20 1    
    34   19   40 1    
    35   20   25 ar   
    36   20   21 ar   
    37   21   22 ar   
    38   21   41 1    
    39   22   23 ar   
    40   22   28 1    
    41   23   24 ar   
    42   23   42 1    
    43   24   25 ar   
    44   24   27 1    
    45   25   26 1    
    46   26   43 1    
@<TRIPOS>SUBSTRUCTURE
     1 UNK         1 GROUP             0       ****    0 ROOT    
