@<TRIPOS>MOLECULE
ZINC35674641_841
65   67    1
SMALL
USER_CHARGES


@<TRIPOS>ATOM
      1 C1          1.0767   48.9942   25.5517 C.3       1 UNK         0.0000 
      2 C2          0.3824   49.9198   26.5447 C.3       1 UNK         0.0000 
      3 C3         -0.6782   50.8831   25.9618 C.3       1 UNK         0.0000 
      4 H4         -1.0940   50.3817   25.0888 H         1 UNK         0.0000 
      5 C5         -0.0951   52.2999   25.5489 C.3       1 UNK         0.0000 
      6 H6         -0.9329   52.9929   25.5222 H         1 UNK         0.0000 
      7 C7          0.9080   52.8521   26.6134 C.ar      1 UNK         0.0000 
      8 C8          0.5729   52.9054   27.9753 C.ar      1 UNK         0.0000 
      9 C9          1.4710   53.3579   28.9572 C.ar      1 UNK         0.0000 
     10 C10         2.7345   53.8174   28.5665 C.ar      1 UNK         0.0000 
     11 C11         3.0551   53.8250   27.2040 C.ar      1 UNK         0.0000 
     12 C12         2.1653   53.3609   26.2344 C.ar      1 UNK         0.0000 
     13 C13         2.5494   53.4005   24.7691 C.3       1 UNK         0.0000 
     14 C14         1.3001   53.5820   23.9066 C.3       1 UNK         0.0000 
     15 N15         0.4683   52.3867   24.1601 N.am      1 UNK         0.0000 
     16 C16        -0.2112   51.9201   23.0769 C.2       1 UNK         0.0000 
     17 O17        -1.4284   51.7336   23.0590 O.2       1 UNK         0.0000 
     18 N18         0.5823   51.5989   22.0334 N.am      1 UNK         0.0000 
     19 C19         0.1470   51.0214   20.7622 C.3       1 UNK         0.0000 
     20 C20        -0.5088   52.0722   19.8476 C.3       1 UNK         0.0000 
     21 C21         1.3241   50.3197   20.0654 C.3       1 UNK         0.0000 
     22 O22         3.6062   54.2425   29.5565 O.3       1 UNK         0.0000 
     23 C23         4.9598   54.5319   29.2115 C.3       1 UNK         0.0000 
     24 O24         1.1883   53.3660   30.3137 O.3       1 UNK         0.0000 
     25 C25        -0.0304   52.7961   30.7783 C.3       1 UNK         0.0000 
     26 N26        -1.8206   50.9132   26.8855 N.am      1 UNK         0.0000 
     27 C27        -2.9999   51.5397   26.7453 C.2       1 UNK         0.0000 
     28 O28        -3.2589   52.2762   25.7936 O.2       1 UNK         0.0000 
     29 C29        -4.0213   51.2916   27.8395 C.ar      1 UNK         0.0000 
     30 C30        -3.6671   50.6785   29.0549 C.ar      1 UNK         0.0000 
     31 C31        -4.6094   50.4939   30.0596 C.ar      1 UNK         0.0000 
     32 C32        -5.9194   50.9227   29.8659 C.ar      1 UNK         0.0000 
     33 C33        -6.2960   51.5197   28.6634 C.ar      1 UNK         0.0000 
     34 C34        -5.3513   51.7014   27.6553 C.ar      1 UNK         0.0000 
     35 Cl35       -7.0797   50.7239   31.1276 Cl        1 UNK         0.0000 
     36 H36         1.8927   48.4953   26.0816 H         1 UNK         0.0000 
     37 H37         0.3991   48.2292   25.1706 H         1 UNK         0.0000 
     38 H38         1.4861   49.5385   24.7022 H         1 UNK         0.0000 
     39 H39         1.1414   50.4306   27.1304 H         1 UNK         0.0000 
     40 H40        -0.0948   49.2895   27.2814 H         1 UNK         0.0000 
     41 H41        -0.4028   52.5564   28.2686 H         1 UNK         0.0000 
     42 H42         4.0121   54.1888   26.8644 H         1 UNK         0.0000 
     43 H43         3.2366   54.2266   24.5852 H         1 UNK         0.0000 
     44 H44         3.0855   52.4971   24.4860 H         1 UNK         0.0000 
     45 H45         0.7795   54.5075   24.1464 H         1 UNK         0.0000 
     46 H46         1.6353   53.6586   22.8702 H         1 UNK         0.0000 
     47 H47         1.5795   51.6956   22.1531 H         1 UNK         0.0000 
     48 H48        -0.5964   50.2479   20.9778 H         1 UNK         0.0000 
     49 H49        -0.8058   51.6261   18.8966 H         1 UNK         0.0000 
     50 H50        -1.4045   52.4974   20.2979 H         1 UNK         0.0000 
     51 H51         0.1868   52.8783   19.6111 H         1 UNK         0.0000 
     52 H52         1.0131   49.8875   19.1139 H         1 UNK         0.0000 
     53 H53         2.1350   51.0144   19.8367 H         1 UNK         0.0000 
     54 H54         1.7205   49.5009   20.6702 H         1 UNK         0.0000 
     55 H55         5.4944   54.9066   30.0812 H         1 UNK         0.0000 
     56 H56         5.4771   53.6362   28.8650 H         1 UNK         0.0000 
     57 H57         5.0355   55.2963   28.4412 H         1 UNK         0.0000 
     58 H58        -0.0862   52.8995   31.8623 H         1 UNK         0.0000 
     59 H59        -0.0923   51.7332   30.5423 H         1 UNK         0.0000 
     60 H60        -0.8937   53.3035   30.3508 H         1 UNK         0.0000 
     61 H61        -1.7703   50.2077   27.6122 H         1 UNK         0.0000 
     62 H62        -2.6577   50.3472   29.2535 H         1 UNK         0.0000 
     63 H63        -4.3118   50.0313   30.9919 H         1 UNK         0.0000 
     64 H64        -7.3164   51.8415   28.5124 H         1 UNK         0.0000 
     65 H65        -5.6607   52.1710   26.7309 H         1 UNK         0.0000 
@<TRIPOS>BOND
     1    1    2 1    
     2    1   36 1    
     3    1   37 1    
     4    1   38 1    
     5    2    3 1    
     6    2   39 1    
     7    2   40 1    
     8    3    4 1    
     9    3    5 1    
    10    3   26 1    
    11    5    6 1    
    12    5   15 1    
    13    5    7 1    
    14    7   12 ar   
    15    7    8 ar   
    16    8    9 ar   
    17    8   41 1    
    18    9   10 ar   
    19    9   24 1    
    20   10   11 ar   
    21   10   22 1    
    22   11   12 ar   
    23   11   42 1    
    24   12   13 1    
    25   13   14 1    
    26   13   43 1    
    27   13   44 1    
    28   14   15 1    
    29   14   45 1    
    30   14   46 1    
    31   15   16 am   BACKBONE|DICT|INTERRES
    32   16   17 2    
    33   16   18 am   BACKBONE|DICT|INTERRES
    34   18   19 1    
    35   18   47 1    
    36   19   20 1    
    37   19   21 1    
    38   19   48 1    
    39   20   49 1    
    40   20   50 1    
    41   20   51 1    
    42   21   52 1    
    43   21   53 1    
    44   21   54 1    
    45   22   23 1    
    46   23   55 1    
    47   23   56 1    
    48   23   57 1    
    49   24   25 1    
    50   25   58 1    
    51   25   59 1    
    52   25   60 1    
    53   26   27 am   BACKBONE|DICT|INTERRES
    54   26   61 1    
    55   27   28 2    
    56   27   29 1    
    57   29   34 ar   
    58   29   30 ar   
    59   30   31 ar   
    60   30   62 1    
    61   31   32 ar   
    62   31   63 1    
    63   32   33 ar   
    64   32   35 1    
    65   33   34 ar   
    66   33   64 1    
    67   34   65 1    
@<TRIPOS>SUBSTRUCTURE
     1 UNK         1 GROUP             0       ****    0 ROOT    
