ZINC20568842_4981
                    3D
 Schrodinger Suite 2024-2.
 67 71  0  0  1  0            999 V2000
   -4.1989   46.3178   15.9509 C   0  0  0  0  0  0
   -3.5333   46.9874   14.7319 C   0  0  2  0  0  0
   -4.3082   47.0692   13.9670 H   0  0  0  0  0  0
   -2.3995   46.1614   14.0885 C   0  0  0  0  0  0
   -1.2295   45.9286   15.0693 C   0  0  0  0  0  0
   -0.8246   47.2536   15.7405 C   0  0  0  0  0  0
   -1.6786   48.3676   15.7009 C   0  0  0  0  0  0
   -0.9932   49.7424   16.4746 S   0  0  0  0  0  0
    0.4618   48.8617   16.8764 C   0  0  0  0  0  0
    0.4227   47.5355   16.3737 C   0  0  0  0  0  0
    1.4336   46.5058   16.5907 C   0  0  0  0  0  0
    1.1487   45.3149   16.6953 O   0  0  0  0  0  0
    2.7044   46.8966   16.6745 N   0  0  0  0  0  0
    1.5043   49.4728   17.5840 N   0  0  0  0  0  0
    1.4576   50.5868   18.3495 C   0  0  0  0  0  0
    0.4360   51.2246   18.6177 O   0  0  0  0  0  0
    2.8093   51.0376   18.9311 C   0  0  0  0  0  0
    2.6001   52.0105   20.1229 N   0  3  0  0  0  0
    2.2646   51.2262   21.4123 C   0  0  0  0  0  0
    2.0367   52.2224   22.5630 C   0  0  0  0  0  0
    3.2202   53.0700   22.7814 N   0  0  0  0  0  0
    3.5608   53.8339   21.5691 C   0  0  0  0  0  0
    3.8444   52.8946   20.3711 C   0  0  0  0  0  0
    3.0371   53.9084   23.9826 C   0  0  0  0  0  0
    4.2960   54.0984   24.8529 C   0  0  0  0  0  0
    5.5665   54.1981   24.2744 C   0  0  0  0  0  0
    6.7044   54.3961   25.0411 C   0  0  0  0  0  0
    6.6181   54.4657   26.4239 C   0  0  0  0  0  0
    5.3683   54.3558   27.0680 C   0  0  0  0  0  0
    4.1765   54.1903   26.2881 C   0  0  0  0  0  0
    2.9386   54.1015   26.9965 C   0  0  0  0  0  0
    2.8958   54.1641   28.3866 C   0  0  0  0  0  0
    4.0630   54.3095   29.1228 C   0  0  0  0  0  0
    5.2902   54.4039   28.4816 C   0  0  0  0  0  0
   -3.0427   48.4247   15.0178 C   0  0  0  0  0  0
   -3.5144   46.2386   16.7954 H   0  0  0  0  0  0
   -5.0694   46.8858   16.2843 H   0  0  0  0  0  0
   -4.5445   45.3128   15.7072 H   0  0  0  0  0  0
   -2.0335   46.6618   13.1904 H   0  0  0  0  0  0
   -2.7797   45.1882   13.7741 H   0  0  0  0  0  0
   -1.5139   45.2006   15.8291 H   0  0  0  0  0  0
   -0.3922   45.4844   14.5296 H   0  0  0  0  0  0
    3.4088   46.1943   16.8424 H   0  0  0  0  0  0
    3.0192   47.8479   16.4811 H   0  0  0  0  0  0
    2.4077   49.0166   17.5357 H   0  0  0  0  0  0
    3.4420   50.2193   19.2818 H   0  0  0  0  0  0
    3.3594   51.5925   18.1680 H   0  0  0  0  0  0
    1.3454   50.6733   21.2132 H   0  0  0  0  0  0
    3.0822   50.5302   21.6129 H   0  0  0  0  0  0
    1.1938   52.8709   22.3163 H   0  0  0  0  0  0
    1.7925   51.6519   23.4622 H   0  0  0  0  0  0
    4.4021   54.5070   21.7147 H   0  0  0  0  0  0
    2.7055   54.4558   21.3256 H   0  0  0  0  0  0
    4.7043   52.2416   20.5310 H   0  0  0  0  0  0
    3.9813   53.4798   19.4608 H   0  0  0  0  0  0
    2.6305   54.8853   23.7180 H   0  0  0  0  0  0
    2.2881   53.4142   24.5962 H   0  0  0  0  0  0
    5.7053   54.1164   23.2112 H   0  0  0  0  0  0
    7.6639   54.4718   24.5548 H   0  0  0  0  0  0
    7.5066   54.5861   27.0242 H   0  0  0  0  0  0
    2.0008   53.9962   26.4777 H   0  0  0  0  0  0
    1.9448   54.1007   28.8970 H   0  0  0  0  0  0
    4.0237   54.3509   30.2005 H   0  0  0  0  0  0
    6.1956   54.5157   29.0622 H   0  0  0  0  0  0
   -2.9728   48.9803   14.0815 H   0  0  0  0  0  0
   -3.7666   48.9570   15.6359 H   0  0  0  0  0  0
    1.8242   52.6227   19.8980 H   0  0  0  0  0  0
  1  2  1  0  0  0
  1 36  1  0  0  0
  1 37  1  0  0  0
  1 38  1  0  0  0
  2  3  1  0  0  0
  2 35  1  0  0  0
  2  4  1  0  0  0
  4  5  1  0  0  0
  4 39  1  0  0  0
  4 40  1  0  0  0
  5  6  1  0  0  0
  5 41  1  0  0  0
  5 42  1  0  0  0
  6 10  1  0  0  0
  6  7  2  0  0  0
  7  8  1  0  0  0
  7 35  1  0  0  0
  8  9  1  0  0  0
  9 10  2  0  0  0
  9 14  1  0  0  0
 10 11  1  0  0  0
 11 12  2  0  0  0
 11 13  1  0  0  0
 13 43  1  0  0  0
 13 44  1  0  0  0
 14 15  1  0  0  0
 14 45  1  0  0  0
 15 16  2  0  0  0
 15 17  1  0  0  0
 17 18  1  0  0  0
 17 46  1  0  0  0
 17 47  1  0  0  0
 18 23  1  0  0  0
 18 19  1  0  0  0
 18 67  1  0  0  0
 19 20  1  0  0  0
 19 48  1  0  0  0
 19 49  1  0  0  0
 20 21  1  0  0  0
 20 50  1  0  0  0
 20 51  1  0  0  0
 21 22  1  0  0  0
 21 24  1  0  0  0
 22 23  1  0  0  0
 22 52  1  0  0  0
 22 53  1  0  0  0
 23 54  1  0  0  0
 23 55  1  0  0  0
 24 25  1  0  0  0
 24 56  1  0  0  0
 24 57  1  0  0  0
 25 30  2  0  0  0
 25 26  1  0  0  0
 26 27  2  0  0  0
 26 58  1  0  0  0
 27 28  1  0  0  0
 27 59  1  0  0  0
 28 29  2  0  0  0
 28 60  1  0  0  0
 29 34  1  0  0  0
 29 30  1  0  0  0
 30 31  1  0  0  0
 31 32  2  0  0  0
 31 61  1  0  0  0
 32 33  1  0  0  0
 32 62  1  0  0  0
 33 34  2  0  0  0
 33 63  1  0  0  0
 34 64  1  0  0  0
 35 65  1  0  0  0
 35 66  1  0  0  0
M  CHG  1  18   1
M  END
> <i_i_glide_confnum>
194

> <i_i_glide_lignum>
4982

> <i_i_glide_posenum>
372

> <i_i_glide_rotatable_bonds>
7

> <i_m_Source_File_Index>
3332

> <b_m_subgroup_collapsed>
0

> <r_i_docking_score>
-6.19964

> <r_i_glide_ecoul>
-8.67564

> <r_i_glide_eff_state_penalty>
0

> <r_i_glide_einternal>
7.93199

> <r_i_glide_emodel>
-56.1321

> <r_i_glide_energy>
-40.3294

> <r_i_glide_erotb>
0.532789

> <r_i_glide_esite>
-0.295895

> <r_i_glide_evdw>
-31.6537

> <r_i_glide_gscore>
-6.19964

> <r_i_glide_hbond>
-0.280169

> <r_i_glide_ligand_efficiency>
-0.182342

> <r_i_glide_ligand_efficiency_ln>
-1.36967

> <r_i_glide_ligand_efficiency_sa>
-0.590719

> <r_i_glide_lipo>
-3.00418

> <r_i_glide_metal>
0

> <r_i_glide_rewards>
-0.268151

> <s_i_glide_gridfile>
wee1_glide-grid

> <s_m_Source_File>
wee1_decoys_glide_SP.sdf

> <s_m_Source_Path>
/Users/zhangxujun/Desktop

> <s_m_entry_id>
3607

> <s_m_entry_name>
wee1_decoys_glide_SP.3332

> <s_m_subgroup_title>
wee1_decoys_glide_SP

> <s_m_subgroupid>
wee1_decoys_glide_SP


$$$$
