@<TRIPOS>MOLECULE
ZINC32946448_1952
40   43    1
SMALL
USER_CHARGES


@<TRIPOS>ATOM
      1 C1         -0.3029   52.0297   29.5570 C.3       1 UNK         0.0000 
      2 O2          0.7670   52.6142   28.8267 O.3       1 UNK         0.0000 
      3 C3          2.0101   52.7104   29.3616 C.2       1 UNK         0.0000 
      4 O4          2.2884   52.3846   30.5203 O.2       1 UNK         0.0000 
      5 C5          3.0045   53.3238   28.4224 C.ar      1 UNK         0.0000 
      6 C6          4.1745   53.8865   28.9345 C.ar      1 UNK         0.0000 
      7 C7          5.1433   54.3914   28.0789 C.ar      1 UNK         0.0000 
      8 C8          4.9597   54.3379   26.6899 C.ar      1 UNK         0.0000 
      9 C9          3.7793   53.8085   26.1233 C.ar      1 UNK         0.0000 
     10 C10         2.8233   53.2972   27.0297 C.ar      1 UNK         0.0000 
     11 N11         3.6581   53.7731   24.6746 N.pl3     1 UNK         0.0000 
     12 C12         4.7518   54.1989   23.8891 C.ar      1 UNK         0.0000 
     13 C13         4.5906   54.0968   22.5442 C.2       1 UNK         0.0000 
     14 S14         3.0097   53.4100   22.2232 S.3       1 UNK         0.0000 
     15 C15         2.5791   53.3911   23.9000 C.2       1 UNK         0.0000 
     16 S16         1.0146   52.9073   24.2137 S.2       1 UNK         0.0000 
     17 C17         5.5036   54.4972   21.4804 C.2       1 UNK         0.0000 
     18 O18         6.4889   55.2135   21.6649 O.2       1 UNK         0.0000 
     19 N19         5.1841   54.0352   20.2580 N.am      1 UNK         0.0000 
     20 C20         5.9507   54.2555   19.0308 C.3       1 UNK         0.0000 
     21 C21         5.6798   55.6147   18.4140 C.2       1 UNK         0.0000 
     22 C22         4.6728   55.9940   17.5255 C.2       1 UNK         0.0000 
     23 C23         4.7344   57.3296   17.1169 C.2       1 UNK         0.0000 
     24 C24         5.7996   58.0063   17.6815 C.2       1 UNK         0.0000 
     25 S25         6.7045   56.9882   18.7506 S.3       1 UNK         0.0000 
     26 N26         5.8984   54.7113   24.5213 N.2       1 UNK         0.0000 
     27 C27         6.0793   54.8256   25.8059 C.ar      1 UNK         0.0000 
     28 O28         7.1022   55.2941   26.3040 O.2       1 UNK         0.0000 
     29 H29        -1.2379   52.1621   29.0129 H         1 UNK         0.0000 
     30 H30        -0.1412   50.9597   29.6814 H         1 UNK         0.0000 
     31 H31        -0.4164   52.4838   30.5431 H         1 UNK         0.0000 
     32 H32         4.3546   53.9218   29.9998 H         1 UNK         0.0000 
     33 H33         6.0472   54.8034   28.5083 H         1 UNK         0.0000 
     34 H34         1.9331   52.8125   26.6829 H         1 UNK         0.0000 
     35 H35         4.3648   53.4519   20.1799 H         1 UNK         0.0000 
     36 H36         5.6882   53.4601   18.3316 H         1 UNK         0.0000 
     37 H37         7.0166   54.1176   19.2246 H         1 UNK         0.0000 
     38 H38         3.9116   55.3103   17.1791 H         1 UNK         0.0000 
     39 H39         4.0311   57.7866   16.4350 H         1 UNK         0.0000 
     40 H40         6.0704   59.0457   17.5435 H         1 UNK         0.0000 
@<TRIPOS>BOND
     1    1    2 1    
     2    1   29 1    
     3    1   30 1    
     4    1   31 1    
     5    2    3 1    
     6    3    4 2    
     7    3    5 1    
     8    5   10 ar   
     9    5    6 ar   
    10    6    7 ar   
    11    6   32 1    
    12    7    8 ar   
    13    7   33 1    
    14    8   27 ar   
    15    8    9 ar   
    16    9   10 ar   
    17    9   11 ar   
    18   10   34 1    
    19   11   15 1    
    20   11   12 ar   
    21   12   13 2    
    22   12   26 ar   
    23   13   14 1    
    24   13   17 1    
    25   14   15 1    
    26   15   16 2    
    27   17   18 2    
    28   17   19 am   BACKBONE|DICT|INTERRES
    29   19   20 1    
    30   19   35 1    
    31   20   21 1    
    32   20   36 1    
    33   20   37 1    
    34   21   25 1    
    35   21   22 2    
    36   22   23 1    
    37   22   38 1    
    38   23   24 2    
    39   23   39 1    
    40   24   25 1    
    41   24   40 1    
    42   26   27 ar   
    43   27   28 2    
@<TRIPOS>SUBSTRUCTURE
     1 UNK         1 GROUP             0       ****    0 ROOT    
