@<TRIPOS>MOLECULE
ZINC14907932_2451
49   51    1
SMALL
USER_CHARGES


@<TRIPOS>ATOM
      1 C1          5.9665   54.0976   28.2364 C.ar      1 UNK         0.0000 
      2 C2          6.1322   54.1486   26.8529 C.ar      1 UNK         0.0000 
      3 C3          5.0253   54.3155   26.0100 C.ar      1 UNK         0.0000 
      4 C4          3.7516   54.4223   26.5800 C.ar      1 UNK         0.0000 
      5 C5          3.5868   54.3941   27.9654 C.ar      1 UNK         0.0000 
      6 C6          4.6957   54.2289   28.7940 C.ar      1 UNK         0.0000 
      7 Br7         1.8521   54.6058   28.7202 Br        1 UNK         0.0000 
      8 C8          5.1626   54.3999   24.5445 C.2       1 UNK         0.0000 
      9 C9          6.2697   54.7944   23.8790 C.2       1 UNK         0.0000 
     10 C10         6.3273   54.8264   22.4364 C.2       1 UNK         0.0000 
     11 O11         5.4052   54.4296   21.7189 O.2       1 UNK         0.0000 
     12 N12         7.5035   55.2967   21.9659 N.am      1 UNK         0.0000 
     13 N13         7.7496   55.3829   20.5850 N.am      1 UNK         0.0000 
     14 C14         7.2277   56.4036   19.8695 C.2       1 UNK         0.0000 
     15 O15         6.5518   57.2967   20.3772 O.2       1 UNK         0.0000 
     16 C16         7.5401   56.4377   18.3921 C.ar      1 UNK         0.0000 
     17 C17         6.7540   57.2207   17.5325 C.ar      1 UNK         0.0000 
     18 C18         7.0163   57.2584   16.1632 C.ar      1 UNK         0.0000 
     19 C19         8.0655   56.5119   15.6313 C.ar      1 UNK         0.0000 
     20 C20         8.8683   55.7424   16.4750 C.ar      1 UNK         0.0000 
     21 C21         8.6146   55.7154   17.8485 C.ar      1 UNK         0.0000 
     22 S22        10.1760   54.7313   15.7936 S.o2      1 UNK         0.0000 
     23 O23        10.5941   55.3421   14.5263 O.2       1 UNK         0.0000 
     24 O24        11.1486   54.4777   16.8635 O.2       1 UNK         0.0000 
     25 N25         9.3933   53.1936   15.4114 N.pl3     1 UNK         0.0000 
     26 C26         8.6870   52.4726   16.5003 C.3       1 UNK         0.0000 
     27 C27         9.5787   51.2695   16.7076 C.3       1 UNK         0.0000 
     28 C28         9.9374   50.8913   15.2876 C.3       1 UNK         0.0000 
     29 C29        10.1444   52.2252   14.5524 C.3       1 UNK         0.0000 
     30 H30         6.8265   53.9741   28.8788 H         1 UNK         0.0000 
     31 H31         7.1247   54.0454   26.4433 H         1 UNK         0.0000 
     32 H32         2.8827   54.5401   25.9495 H         1 UNK         0.0000 
     33 H33         4.5747   54.2093   29.8659 H         1 UNK         0.0000 
     34 H34         4.2884   54.0962   23.9819 H         1 UNK         0.0000 
     35 H35         7.1575   55.1059   24.4116 H         1 UNK         0.0000 
     36 H36         8.2510   55.6665   22.5399 H         1 UNK         0.0000 
     37 H37         8.0182   54.4969   20.1831 H         1 UNK         0.0000 
     38 H38         5.9294   57.8060   17.9165 H         1 UNK         0.0000 
     39 H39         6.3991   57.8621   15.5137 H         1 UNK         0.0000 
     40 H40         8.2506   56.5326   14.5670 H         1 UNK         0.0000 
     41 H41         9.2592   55.1205   18.4807 H         1 UNK         0.0000 
     42 H42         8.4503   53.0876   17.3671 H         1 UNK         0.0000 
     43 H43         7.7123   52.1434   16.1347 H         1 UNK         0.0000 
     44 H44        10.4673   51.5459   17.2801 H         1 UNK         0.0000 
     45 H45         9.0713   50.4871   17.2630 H         1 UNK         0.0000 
     46 H46         9.1123   50.3351   14.8353 H         1 UNK         0.0000 
     47 H47        10.8188   50.2497   15.2372 H         1 UNK         0.0000 
     48 H48         9.6998   52.0876   13.5658 H         1 UNK         0.0000 
     49 H49        11.2218   52.4005   14.5730 H         1 UNK         0.0000 
@<TRIPOS>BOND
     1    1    6 ar   
     2    1    2 ar   
     3    1   30 1    
     4    2    3 ar   
     5    2   31 1    
     6    3    4 ar   
     7    3    8 1    
     8    4    5 ar   
     9    4   32 1    
    10    5    6 ar   
    11    5    7 1    
    12    6   33 1    
    13    8    9 2    
    14    8   34 1    
    15    9   10 1    
    16    9   35 1    
    17   10   11 2    
    18   10   12 am   BACKBONE|DICT|INTERRES
    19   12   13 1    
    20   12   36 1    
    21   13   14 am   BACKBONE|DICT|INTERRES
    22   13   37 1    
    23   14   15 2    
    24   14   16 1    
    25   16   21 ar   
    26   16   17 ar   
    27   17   18 ar   
    28   17   38 1    
    29   18   19 ar   
    30   18   39 1    
    31   19   20 ar   
    32   19   40 1    
    33   20   21 ar   
    34   20   22 1    
    35   21   41 1    
    36   22   23 2    
    37   22   24 2    
    38   22   25 1    
    39   25   29 1    
    40   25   26 1    
    41   26   27 1    
    42   26   42 1    
    43   26   43 1    
    44   27   28 1    
    45   27   44 1    
    46   27   45 1    
    47   28   29 1    
    48   28   46 1    
    49   28   47 1    
    50   29   48 1    
    51   29   49 1    
@<TRIPOS>SUBSTRUCTURE
     1 UNK         1 GROUP             0       ****    0 ROOT    
