ZINC10538538_5133
                    3D
 Schrodinger Suite 2024-2.
 48 50  0  0  1  0            999 V2000
    0.2132   49.4106   24.1636 C   0  0  0  0  0  0
    0.4197   50.9279   24.1169 C   0  0  0  0  0  0
    1.4469   51.2435   23.1833 O   0  0  0  0  0  0
    1.7091   52.5231   22.8422 C   0  0  0  0  0  0
    1.1050   53.4813   23.3329 O   0  0  0  0  0  0
    2.8086   52.7143   21.8606 C   0  0  0  0  0  0
    3.2634   51.7910   20.9643 C   0  0  0  0  0  0
    4.2888   52.0967   20.1064 N   0  0  0  0  0  0
    4.8509   53.3179   19.9507 C   0  0  0  0  0  0
    5.8476   53.5200   19.2672 O   0  0  0  0  0  0
    4.3046   54.2922   20.7202 N   0  0  0  0  0  0
    3.5912   54.0458   22.0029 C   0  0  2  0  0  0
    2.9053   54.8817   22.1569 H   0  0  0  0  0  0
    4.4858   54.1498   23.2601 C   0  0  0  0  0  0
    5.8702   53.9499   23.1807 C   0  0  0  0  0  0
    6.6783   54.0967   24.3035 C   0  0  0  0  0  0
    6.1051   54.4286   25.5276 C   0  0  0  0  0  0
    4.7308   54.6248   25.6305 C   0  0  0  0  0  0
    3.9273   54.4929   24.5002 C   0  0  0  0  0  0
    7.1044   54.5942   26.9235 Cl  0  0  0  0  0  0
    2.6812   50.4016   20.6575 C   0  0  0  0  0  0
    1.9905   50.2216   19.3576 N   0  0  0  0  0  0
    1.5453   51.2596   18.5572 C   0  0  0  0  0  0
    0.9260   51.1423   17.3610 C   0  0  0  0  0  0
    0.7443   49.7677   16.9120 C   0  0  0  0  0  0
    1.1047   48.7223   17.6916 C   0  0  0  0  0  0
    1.7067   48.9101   19.0153 C   0  0  0  0  0  0
    1.9044   47.9481   19.7652 O   0  0  0  0  0  0
    0.8669   47.0693   17.1050 Cl  0  0  0  0  0  0
    0.4089   52.3277   16.5534 C   0  0  0  0  0  0
   -0.9166   52.2406   16.4368 F   0  0  0  0  0  0
    0.7090   53.4879   17.1417 F   0  0  0  0  0  0
    0.9509   52.3124   15.3364 F   0  0  0  0  0  0
   -0.6037   49.1501   24.8373 H   0  0  0  0  0  0
   -0.0263   49.0121   23.1769 H   0  0  0  0  0  0
    1.1045   48.8977   24.5232 H   0  0  0  0  0  0
    0.6857   51.3034   25.1068 H   0  0  0  0  0  0
   -0.5128   51.4141   23.8229 H   0  0  0  0  0  0
    4.6150   51.4174   19.4206 H   0  0  0  0  0  0
    4.7486   55.1907   20.6127 H   0  0  0  0  0  0
    6.3335   53.6963   22.2435 H   0  0  0  0  0  0
    7.7436   53.9462   24.2184 H   0  0  0  0  0  0
    4.2876   54.8866   26.5799 H   0  0  0  0  0  0
    2.8677   54.6754   24.5976 H   0  0  0  0  0  0
    3.5044   49.6966   20.7291 H   0  0  0  0  0  0
    1.9834   50.0630   21.4128 H   0  0  0  0  0  0
    1.6848   52.2253   19.0231 H   0  0  0  0  0  0
    0.3205   49.5814   15.9348 H   0  0  0  0  0  0
  1  2  1  0  0  0
  1 34  1  0  0  0
  1 35  1  0  0  0
  1 36  1  0  0  0
  2  3  1  0  0  0
  2 37  1  0  0  0
  2 38  1  0  0  0
  3  4  1  0  0  0
  4  5  2  0  0  0
  4  6  1  0  0  0
  6 12  1  0  0  0
  6  7  2  0  0  0
  7  8  1  0  0  0
  7 21  1  0  0  0
  8  9  1  0  0  0
  8 39  1  0  0  0
  9 10  2  0  0  0
  9 11  1  0  0  0
 11 12  1  0  0  0
 11 40  1  0  0  0
 12 13  1  0  0  0
 12 14  1  0  0  0
 14 19  2  0  0  0
 14 15  1  0  0  0
 15 16  2  0  0  0
 15 41  1  0  0  0
 16 17  1  0  0  0
 16 42  1  0  0  0
 17 18  2  0  0  0
 17 20  1  0  0  0
 18 19  1  0  0  0
 18 43  1  0  0  0
 19 44  1  0  0  0
 21 22  1  0  0  0
 21 45  1  0  0  0
 21 46  1  0  0  0
 22 27  1  0  0  0
 22 23  1  0  0  0
 23 24  2  0  0  0
 23 47  1  0  0  0
 24 25  1  0  0  0
 24 30  1  0  0  0
 25 26  2  0  0  0
 25 48  1  0  0  0
 26 27  1  0  0  0
 26 29  1  0  0  0
 27 28  2  0  0  0
 30 31  1  0  0  0
 30 32  1  0  0  0
 30 33  1  0  0  0
M  END
> <i_i_glide_confnum>
14

> <i_i_glide_lignum>
5134

> <i_i_glide_posenum>
309

> <i_i_glide_rotatable_bonds>
7

> <i_m_Source_File_Index>
840

> <b_m_subgroup_collapsed>
0

> <r_i_docking_score>
-4.65072

> <r_i_glide_ecoul>
-4.27129

> <r_i_glide_eff_state_penalty>
0

> <r_i_glide_einternal>
5.31186

> <r_i_glide_emodel>
-53.1338

> <r_i_glide_energy>
-42.8842

> <r_i_glide_erotb>
0.423319

> <r_i_glide_esite>
-0.171244

> <r_i_glide_evdw>
-38.6129

> <r_i_glide_gscore>
-4.65072

> <r_i_glide_hbond>
-0.16

> <r_i_glide_ligand_efficiency>
-0.145335

> <r_i_glide_ligand_efficiency_ln>
-1.04142

> <r_i_glide_ligand_efficiency_sa>
-0.46141

> <r_i_glide_lipo>
-1.86789

> <r_i_glide_metal>
0

> <r_i_glide_rewards>
-0.303574

> <s_i_glide_gridfile>
wee1_glide-grid

> <s_m_Source_File>
wee1_decoys_glide_SP.sdf

> <s_m_Source_Path>
/Users/zhangxujun/Desktop

> <s_m_entry_id>
1115

> <s_m_entry_name>
wee1_decoys_glide_SP.840

> <s_m_subgroup_title>
wee1_decoys_glide_SP

> <s_m_subgroupid>
wee1_decoys_glide_SP


$$$$
