@<TRIPOS>MOLECULE
ZINC38611404_2774
34   35    1
SMALL
USER_CHARGES


@<TRIPOS>ATOM
      1 C1          0.4746   52.4687   29.7257 C.3       1 UNK         0.0000 
      2 C2          1.9862   52.3890   29.7033 C.2       1 UNK         0.0000 
      3 C3          2.8444   52.2170   28.6942 C.2       1 UNK         0.0000 
      4 C4          4.2119   52.2640   29.3128 C.3       1 UNK         0.0000 
      5 H5          4.8013   51.3582   29.1878 H         1 UNK         0.0000 
      6 N6          3.8984   52.4047   30.7103 N.2       1 UNK         0.0000 
      7 N7          2.6419   52.4869   30.8810 N.2       1 UNK         0.0000 
      8 C8          5.0348   53.4744   28.7915 C.2       1 UNK         0.0000 
      9 O9          5.0228   54.5459   29.4084 O.2       1 UNK         0.0000 
     10 N10         5.6493   53.3431   27.5885 N.am      1 UNK         0.0000 
     11 N11         6.4104   54.3496   27.0807 N.2       1 UNK         0.0000 
     12 C12         6.2357   54.7274   25.8696 C.2       1 UNK         0.0000 
     13 C13         5.2704   54.2999   24.8225 C.ar      1 UNK         0.0000 
     14 C14         5.7534   53.9585   23.5381 C.ar      1 UNK         0.0000 
     15 C15         4.8803   53.6713   22.4754 C.ar      1 UNK         0.0000 
     16 C16         3.5034   53.7250   22.7007 C.ar      1 UNK         0.0000 
     17 C17         3.0021   54.0544   23.9501 C.ar      1 UNK         0.0000 
     18 C18         3.8713   54.3560   25.0060 C.ar      1 UNK         0.0000 
     19 Br19        3.1048   54.8959   26.6660 Br        1 UNK         0.0000 
     20 Br20        1.1071   54.0954   24.1511 Br        1 UNK         0.0000 
     21 O21         5.4280   53.3629   21.2420 O.3       1 UNK         0.0000 
     22 C22         4.5851   52.9806   20.1577 C.3       1 UNK         0.0000 
     23 O23         7.1036   53.8937   23.2817 O.3       1 UNK         0.0000 
     24 H24         0.0672   52.3350   28.7238 H         1 UNK         0.0000 
     25 H25         0.0506   51.6973   30.3668 H         1 UNK         0.0000 
     26 H26         0.1501   53.4397   30.1011 H         1 UNK         0.0000 
     27 H27         2.6341   52.0907   27.6422 H         1 UNK         0.0000 
     28 H28         5.5037   52.5430   26.9892 H         1 UNK         0.0000 
     29 H29         6.8705   55.5306   25.5076 H         1 UNK         0.0000 
     30 H30         2.7991   53.5194   21.9083 H         1 UNK         0.0000 
     31 H31         5.2013   52.7390   19.2911 H         1 UNK         0.0000 
     32 H32         3.9985   52.0924   20.3976 H         1 UNK         0.0000 
     33 H33         3.9123   53.7896   19.8681 H         1 UNK         0.0000 
     34 H34         7.6816   54.2907   23.9377 H         1 UNK         0.0000 
@<TRIPOS>BOND
     1    1    2 1    
     2    1   24 1    
     3    1   25 1    
     4    1   26 1    
     5    2    7 1    
     6    2    3 2    
     7    3    4 1    
     8    3   27 1    
     9    4    5 1    
    10    4    6 1    
    11    4    8 1    
    12    6    7 2    
    13    8    9 2    
    14    8   10 am   BACKBONE|DICT|INTERRES
    15   10   11 1    
    16   10   28 1    
    17   11   12 2    
    18   12   13 1    
    19   12   29 1    
    20   13   18 ar   
    21   13   14 ar   
    22   14   15 ar   
    23   14   23 1    
    24   15   16 ar   
    25   15   21 1    
    26   16   17 ar   
    27   16   30 1    
    28   17   18 ar   
    29   17   20 1    
    30   18   19 1    
    31   21   22 1    
    32   22   31 1    
    33   22   32 1    
    34   22   33 1    
    35   23   34 1    
@<TRIPOS>SUBSTRUCTURE
     1 UNK         1 GROUP             0       ****    0 ROOT    
