@<TRIPOS>MOLECULE
ZINC13254624_5818
53   56    1
SMALL
USER_CHARGES


@<TRIPOS>ATOM
      1 C1         -2.4859   46.6703   24.1169 C.3       1 UNK         0.0000 
      2 C2         -2.9362   48.1165   23.8587 C.3       1 UNK         0.0000 
      3 C3         -2.8764   49.0217   25.1054 C.3       1 UNK         0.0000 
      4 C4         -1.4653   49.2968   25.6804 C.3       1 UNK         0.0000 
      5 N5         -0.6350   50.2313   24.8801 N.pl3     1 UNK         0.0000 
      6 C6          0.1863   49.6366   23.9240 C.ar      1 UNK         0.0000 
      7 O7          0.2764   48.4169   23.7816 O.2       1 UNK         0.0000 
      8 C8          0.9029   50.6333   23.1215 C.ar      1 UNK         0.0000 
      9 C9          1.8435   50.4359   22.0801 C.2       1 UNK         0.0000 
     10 C10         2.3454   51.6560   21.5952 C.2       1 UNK         0.0000 
     11 S11         1.6137   53.0099   22.4061 S.3       1 UNK         0.0000 
     12 C12         0.6277   51.9717   23.3463 C.ar      1 UNK         0.0000 
     13 N13        -0.2459   52.4586   24.2612 N.2       1 UNK         0.0000 
     14 C14        -0.7714   51.6093   25.0731 C.ar      1 UNK         0.0000 
     15 S15        -1.6267   52.3423   26.4821 S.3       1 UNK         0.0000 
     16 C16        -0.5071   51.8731   27.8782 C.3       1 UNK         0.0000 
     17 C17         0.9212   52.4354   27.8286 C.ar      1 UNK         0.0000 
     18 N18         1.6962   52.3197   28.9650 N.pl3     1 UNK         0.0000 
     19 H19         1.2832   51.9135   29.7898 H         1 UNK         0.0000 
     20 C20         2.9935   52.7188   29.1489 C.ar      1 UNK         0.0000 
     21 O21         3.5075   52.5648   30.2533 O.2       1 UNK         0.0000 
     22 C22         3.5511   53.3102   27.9101 C.ar      1 UNK         0.0000 
     23 C23         4.8469   53.8261   27.6434 C.2       1 UNK         0.0000 
     24 C24         4.9586   54.2901   26.3071 C.2       1 UNK         0.0000 
     25 S25         3.4600   54.0967   25.4325 S.3       1 UNK         0.0000 
     26 C26         2.7005   53.4113   26.8109 C.ar      1 UNK         0.0000 
     27 N27         1.4091   52.9933   26.7757 N.2       1 UNK         0.0000 
     28 C28         6.0934   54.8932   25.5748 C.2       1 UNK         0.0000 
     29 O29         5.9750   55.0642   24.3407 O.co2     1 UNK         0.0000 
     30 O30         7.1041   55.2188   26.2351 O.co2     1 UNK         0.0000 
     31 C31         5.9892   53.7699   28.6350 C.3       1 UNK         0.0000 
     32 C32         3.3746   51.8966   20.5118 C.3       1 UNK         0.0000 
     33 C33         2.2212   49.0892   21.4925 C.3       1 UNK         0.0000 
     34 H34        -2.5817   46.0703   23.2139 H         1 UNK         0.0000 
     35 H35        -1.4404   46.6261   24.4325 H         1 UNK         0.0000 
     36 H36        -3.0871   46.2005   24.8953 H         1 UNK         0.0000 
     37 H37        -3.9651   48.0961   23.4945 H         1 UNK         0.0000 
     38 H38        -2.3485   48.5532   23.0510 H         1 UNK         0.0000 
     39 H39        -3.4674   48.5495   25.8929 H         1 UNK         0.0000 
     40 H40        -3.3779   49.9690   24.9015 H         1 UNK         0.0000 
     41 H41        -0.9368   48.3576   25.8576 H         1 UNK         0.0000 
     42 H42        -1.6082   49.6963   26.6826 H         1 UNK         0.0000 
     43 H43        -0.9876   52.2638   28.7733 H         1 UNK         0.0000 
     44 H44        -0.5039   50.7974   28.0393 H         1 UNK         0.0000 
     45 H45         6.0144   54.6520   29.2756 H         1 UNK         0.0000 
     46 H46         5.8936   52.8977   29.2756 H         1 UNK         0.0000 
     47 H47         6.9689   53.6519   28.1676 H         1 UNK         0.0000 
     48 H48         4.2486   51.2538   20.6340 H         1 UNK         0.0000 
     49 H49         2.9721   51.7008   19.5155 H         1 UNK         0.0000 
     50 H50         3.7395   52.9275   20.5087 H         1 UNK         0.0000 
     51 H51         2.8391   48.5003   22.1692 H         1 UNK         0.0000 
     52 H52         2.7201   49.1585   20.5269 H         1 UNK         0.0000 
     53 H53         1.3275   48.4980   21.3084 H         1 UNK         0.0000 
@<TRIPOS>BOND
     1    1    2 1    
     2    1   34 1    
     3    1   35 1    
     4    1   36 1    
     5    2    3 1    
     6    2   37 1    
     7    2   38 1    
     8    3    4 1    
     9    3   39 1    
    10    3   40 1    
    11    4    5 1    
    12    4   41 1    
    13    4   42 1    
    14    5   14 ar   
    15    5    6 ar   
    16    6    7 2    
    17    6    8 ar   
    18    8   12 ar   
    19    8    9 1    
    20    9   10 2    
    21    9   33 1    
    22   10   11 1    
    23   10   32 1    
    24   11   12 1    
    25   12   13 ar   
    26   13   14 ar   
    27   14   15 1    
    28   15   16 1    
    29   16   17 1    
    30   16   43 1    
    31   16   44 1    
    32   17   27 ar   
    33   17   18 ar   
    34   18   19 1    
    35   18   20 ar   
    36   20   21 2    
    37   20   22 ar   
    38   22   26 ar   
    39   22   23 1    
    40   23   24 2    
    41   23   31 1    
    42   24   25 1    
    43   24   28 1    
    44   25   26 1    
    45   26   27 ar   
    46   28   29 2    
    47   28   30 1    
    48   31   45 1    
    49   31   46 1    
    50   31   47 1    
    51   32   48 1    
    52   32   49 1    
    53   32   50 1    
    54   33   51 1    
    55   33   52 1    
    56   33   53 1    
@<TRIPOS>SUBSTRUCTURE
     1 UNK         1 GROUP             0       ****    0 ROOT    
