@<TRIPOS>MOLECULE
ZINC36570126_4642
68   71    1
SMALL
USER_CHARGES


@<TRIPOS>ATOM
      1 C1          0.6338   48.4184   25.6193 C.3       1 UNK         0.0000 
      2 C2          0.3020   49.7790   25.1079 C.3       1 UNK         0.0000 
      3 C3          1.0436   50.1875   23.8184 C.3       1 UNK         0.0000 
      4 N4          0.3618   51.2886   23.1041 N.am      1 UNK         0.0000 
      5 C5          0.6944   52.6700   23.6196 C.3       1 UNK         0.0000 
      6 H6          0.0262   53.3747   23.1324 H         1 UNK         0.0000 
      7 C7          0.3129   52.7617   25.1111 C.ar      1 UNK         0.0000 
      8 C8          1.2766   52.8957   26.1239 C.ar      1 UNK         0.0000 
      9 C9          0.9802   52.7155   27.4861 C.ar      1 UNK         0.0000 
     10 C10         1.9924   52.8667   28.4698 C.ar      1 UNK         0.0000 
     11 C11         1.7111   52.6523   29.8138 C.ar      1 UNK         0.0000 
     12 C12         0.4354   52.2761   30.2066 C.ar      1 UNK         0.0000 
     13 C13        -0.5695   52.0915   29.2629 C.ar      1 UNK         0.0000 
     14 C14        -0.3330   52.3228   27.8716 C.ar      1 UNK         0.0000 
     15 C15        -1.3430   52.1796   26.8739 C.ar      1 UNK         0.0000 
     16 C16        -1.0488   52.4965   25.5043 C.ar      1 UNK         0.0000 
     17 C17        -2.1194   52.4503   24.5596 C.ar      1 UNK         0.0000 
     18 C18        -3.3924   52.0352   24.9264 C.ar      1 UNK         0.0000 
     19 C19        -3.6506   51.6384   26.2280 C.ar      1 UNK         0.0000 
     20 C20        -2.6527   51.6954   27.1924 C.ar      1 UNK         0.0000 
     21 C21         2.0864   53.2291   23.1483 C.2       1 UNK         0.0000 
     22 O22         2.7779   53.9261   23.8884 O.2       1 UNK         0.0000 
     23 N23         2.4834   52.8989   21.9050 N.am      1 UNK         0.0000 
     24 C24         3.7669   53.1706   21.2413 C.3       1 UNK         0.0000 
     25 C25         3.5703   52.9248   19.7311 C.3       1 UNK         0.0000 
     26 C26         4.8422   52.2017   21.7652 C.3       1 UNK         0.0000 
     27 C27         4.2651   54.6198   21.4778 C.3       1 UNK         0.0000 
     28 C28        -0.1526   51.1190   21.8406 C.2       1 UNK         0.0000 
     29 O29        -0.3202   52.0975   21.1109 O.2       1 UNK         0.0000 
     30 C30        -0.5782   49.7440   21.3108 C.ar      1 UNK         0.0000 
     31 C31        -1.1212   48.7696   22.1711 C.ar      1 UNK         0.0000 
     32 C32        -1.5660   47.5178   21.7180 C.ar      1 UNK         0.0000 
     33 C33        -1.4926   47.2424   20.3507 C.ar      1 UNK         0.0000 
     34 C34        -0.9946   48.1936   19.4704 C.ar      1 UNK         0.0000 
     35 C35        -0.5493   49.4335   19.9281 C.ar      1 UNK         0.0000 
     36 O36        -0.0885   50.2158   19.0370 O.co2     1 UNK         0.0000 
     37 N37        -2.0939   46.5006   22.6647 N.pl3     1 UNK         0.0000 
     38 O38        -2.1044   46.7571   23.8650 O.co2     1 UNK         0.0000 
     39 O39        -2.4795   45.4200   22.2209 O.co2     1 UNK         0.0000 
     40 H40        -0.0942   48.1316   26.3800 H         1 UNK         0.0000 
     41 H41         0.5916   47.6682   24.8301 H         1 UNK         0.0000 
     42 H42         1.6213   48.4124   26.0797 H         1 UNK         0.0000 
     43 H43         0.5901   50.4166   25.9331 H         1 UNK         0.0000 
     44 H44        -0.7792   49.8699   25.0158 H         1 UNK         0.0000 
     45 H45         1.1690   49.3208   23.1681 H         1 UNK         0.0000 
     46 H46         2.0632   50.4777   24.0724 H         1 UNK         0.0000 
     47 H47         2.3189   53.0511   25.9093 H         1 UNK         0.0000 
     48 H48         2.9908   53.1496   28.1667 H         1 UNK         0.0000 
     49 H49         2.4874   52.7655   30.5563 H         1 UNK         0.0000 
     50 H50         0.2214   52.0992   31.2530 H         1 UNK         0.0000 
     51 H51        -1.5323   51.7731   29.6251 H         1 UNK         0.0000 
     52 H52        -1.9490   52.7097   23.5268 H         1 UNK         0.0000 
     53 H53        -4.1790   51.9912   24.1876 H         1 UNK         0.0000 
     54 H54        -4.6356   51.2855   26.4971 H         1 UNK         0.0000 
     55 H55        -2.9083   51.3755   28.1890 H         1 UNK         0.0000 
     56 H56         1.8143   52.3948   21.3371 H         1 UNK         0.0000 
     57 H57         2.8490   53.6196   19.3002 H         1 UNK         0.0000 
     58 H58         4.5008   53.0522   19.1765 H         1 UNK         0.0000 
     59 H59         3.2115   51.9139   19.5285 H         1 UNK         0.0000 
     60 H60         5.1668   52.4935   22.7691 H         1 UNK         0.0000 
     61 H61         4.4758   51.1735   21.7908 H         1 UNK         0.0000 
     62 H62         5.7224   52.2066   21.1254 H         1 UNK         0.0000 
     63 H63         4.8916   54.7008   22.3662 H         1 UNK         0.0000 
     64 H64         4.8538   55.0014   20.6436 H         1 UNK         0.0000 
     65 H65         3.4307   55.2957   21.6635 H         1 UNK         0.0000 
     66 H66        -1.2463   48.9839   23.2152 H         1 UNK         0.0000 
     67 H67        -1.8230   46.2900   19.9590 H         1 UNK         0.0000 
     68 H68        -0.9468   47.9608   18.4167 H         1 UNK         0.0000 
@<TRIPOS>BOND
     1    1    2 1    
     2    1   40 1    
     3    1   41 1    
     4    1   42 1    
     5    2    3 1    
     6    2   43 1    
     7    2   44 1    
     8    3    4 1    
     9    3   45 1    
    10    3   46 1    
    11    4    5 1    
    12    4   28 am   BACKBONE|DICT|INTERRES
    13    5    6 1    
    14    5    7 1    
    15    5   21 1    
    16    7   16 ar   
    17    7    8 ar   
    18    8    9 ar   
    19    8   47 1    
    20    9   14 ar   
    21    9   10 ar   
    22   10   11 ar   
    23   10   48 1    
    24   11   12 ar   
    25   11   49 1    
    26   12   13 ar   
    27   12   50 1    
    28   13   14 ar   
    29   13   51 1    
    30   14   15 ar   
    31   15   20 ar   
    32   15   16 ar   
    33   16   17 ar   
    34   17   18 ar   
    35   17   52 1    
    36   18   19 ar   
    37   18   53 1    
    38   19   20 ar   
    39   19   54 1    
    40   20   55 1    
    41   21   22 2    
    42   21   23 am   BACKBONE|DICT|INTERRES
    43   23   24 1    
    44   23   56 1    
    45   24   25 1    
    46   24   26 1    
    47   24   27 1    
    48   25   57 1    
    49   25   58 1    
    50   25   59 1    
    51   26   60 1    
    52   26   61 1    
    53   26   62 1    
    54   27   63 1    
    55   27   64 1    
    56   27   65 1    
    57   28   29 2    
    58   28   30 1    
    59   30   35 ar   
    60   30   31 ar   
    61   31   32 ar   
    62   31   66 1    
    63   32   33 ar   
    64   32   37 1    
    65   33   34 ar   
    66   33   67 1    
    67   34   35 ar   
    68   34   68 1    
    69   35   36 1    
    70   37   38 2    
    71   37   39 1    
@<TRIPOS>SUBSTRUCTURE
     1 UNK         1 GROUP             0       ****    0 ROOT    
