@<TRIPOS>MOLECULE
ZINC35723136_3624
58   62    1
SMALL
USER_CHARGES


@<TRIPOS>ATOM
      1 C1         -0.1713   52.9021   29.9703 C.ar      1 UNK         0.0000 
      2 C2          0.2294   51.7453   29.3164 C.ar      1 UNK         0.0000 
      3 C3          1.5060   51.6725   28.7811 C.ar      1 UNK         0.0000 
      4 C4          2.3678   52.7683   28.8346 C.ar      1 UNK         0.0000 
      5 C5          1.9240   53.9783   29.4000 C.ar      1 UNK         0.0000 
      6 C6          0.6623   54.0192   30.0043 C.ar      1 UNK         0.0000 
      7 C7          2.8088   55.2166   29.2802 C.3       1 UNK         0.0000 
      8 C8          4.2950   54.8273   29.0621 C.3       1 UNK         0.0000 
      9 N9          4.3903   53.9322   27.9041 N.pl3     1 UNK         0.0000 
     10 C10         3.7679   52.6610   28.2558 C.3       1 UNK         0.0000 
     11 C11         4.8842   54.2351   26.6320 C.ar      1 UNK         0.0000 
     12 C12         6.2264   54.6253   26.5625 C.ar      1 UNK         0.0000 
     13 C13         6.8485   54.8573   25.3372 C.ar      1 UNK         0.0000 
     14 C14         6.1388   54.7767   24.1492 C.ar      1 UNK         0.0000 
     15 C15         4.7911   54.4089   24.1932 C.ar      1 UNK         0.0000 
     16 C16         4.1554   54.0979   25.4118 C.ar      1 UNK         0.0000 
     17 C17         2.6902   53.7094   25.3674 C.2       1 UNK         0.0000 
     18 O18         1.9060   54.0937   26.2293 O.2       1 UNK         0.0000 
     19 N19         2.3048   52.9316   24.3393 N.am      1 UNK         0.0000 
     20 C20         0.9342   52.4948   24.1012 C.3       1 UNK         0.0000 
     21 C21         0.6970   51.0441   23.7569 C.3       1 UNK         0.0000 
     22 C22         0.2650   51.5780   25.1020 C.3       1 UNK         0.0000 
     23 N23         6.8685   55.1041   22.9946 N.am      1 UNK         0.0000 
     24 C24         6.4781   55.2339   21.7149 C.2       1 UNK         0.0000 
     25 O25         5.3576   54.9763   21.2806 O.2       1 UNK         0.0000 
     26 N26         7.5044   55.6966   20.9770 N.am      1 UNK         0.0000 
     27 C27         7.4860   56.0982   19.6323 C.ar      1 UNK         0.0000 
     28 C28         6.3650   56.6738   19.0161 C.ar      1 UNK         0.0000 
     29 C29         6.4362   57.1085   17.6917 C.ar      1 UNK         0.0000 
     30 C30         7.6268   56.9757   16.9771 C.ar      1 UNK         0.0000 
     31 C31         8.7476   56.4094   17.5870 C.ar      1 UNK         0.0000 
     32 C32         8.6761   55.9758   18.9112 C.ar      1 UNK         0.0000 
     33 F33         9.9065   56.2797   16.9017 F         1 UNK         0.0000 
     34 F34         7.6937   57.3994   15.6958 F         1 UNK         0.0000 
     35 H35        -1.1485   52.9196   30.4234 H         1 UNK         0.0000 
     36 H36        -0.4369   50.8964   29.2655 H         1 UNK         0.0000 
     37 H37         1.8293   50.7554   28.3116 H         1 UNK         0.0000 
     38 H38         0.3151   54.9286   30.4705 H         1 UNK         0.0000 
     39 H39         2.4693   55.8010   28.4247 H         1 UNK         0.0000 
     40 H40         2.6795   55.8641   30.1438 H         1 UNK         0.0000 
     41 H41         4.6865   54.3375   29.9558 H         1 UNK         0.0000 
     42 H42         4.9363   55.6936   28.9395 H         1 UNK         0.0000 
     43 H43         4.4182   52.0923   28.9215 H         1 UNK         0.0000 
     44 H44         3.6771   52.0967   27.3347 H         1 UNK         0.0000 
     45 H45         6.8089   54.7044   27.4707 H         1 UNK         0.0000 
     46 H46         7.9030   55.0899   25.2820 H         1 UNK         0.0000 
     47 H47         4.2247   54.3605   23.2759 H         1 UNK         0.0000 
     48 H48         2.9517   52.8033   23.5776 H         1 UNK         0.0000 
     49 H49         0.3128   53.2524   23.6197 H         1 UNK         0.0000 
     50 H50        -0.0614   50.8056   23.0113 H         1 UNK         0.0000 
     51 H51         1.5528   50.3695   23.7028 H         1 UNK         0.0000 
     52 H52         0.8164   51.2840   25.9947 H         1 UNK         0.0000 
     53 H53        -0.7961   51.7266   25.3083 H         1 UNK         0.0000 
     54 H54         7.8425   55.2975   23.1785 H         1 UNK         0.0000 
     55 H55         8.4187   55.6808   21.4044 H         1 UNK         0.0000 
     56 H56         5.4426   56.8084   19.5585 H         1 UNK         0.0000 
     57 H57         5.5739   57.5574   17.2211 H         1 UNK         0.0000 
     58 H58         9.5519   55.5436   19.3706 H         1 UNK         0.0000 
@<TRIPOS>BOND
     1    1    6 ar   
     2    1    2 ar   
     3    1   35 1    
     4    2    3 ar   
     5    2   36 1    
     6    3    4 ar   
     7    3   37 1    
     8    4   10 1    
     9    4    5 ar   
    10    5    6 ar   
    11    5    7 1    
    12    6   38 1    
    13    7    8 1    
    14    7   39 1    
    15    7   40 1    
    16    8    9 1    
    17    8   41 1    
    18    8   42 1    
    19    9   10 1    
    20    9   11 1    
    21   10   43 1    
    22   10   44 1    
    23   11   16 ar   
    24   11   12 ar   
    25   12   13 ar   
    26   12   45 1    
    27   13   14 ar   
    28   13   46 1    
    29   14   15 ar   
    30   14   23 1    
    31   15   16 ar   
    32   15   47 1    
    33   16   17 1    
    34   17   18 2    
    35   17   19 am   BACKBONE|DICT|INTERRES
    36   19   20 1    
    37   19   48 1    
    38   20   22 1    
    39   20   21 1    
    40   20   49 1    
    41   21   22 1    
    42   21   50 1    
    43   21   51 1    
    44   22   52 1    
    45   22   53 1    
    46   23   24 am   BACKBONE|DICT|INTERRES
    47   23   54 1    
    48   24   25 2    
    49   24   26 am   BACKBONE|DICT|INTERRES
    50   26   27 1    
    51   26   55 1    
    52   27   32 ar   
    53   27   28 ar   
    54   28   29 ar   
    55   28   56 1    
    56   29   30 ar   
    57   29   57 1    
    58   30   31 ar   
    59   30   34 1    
    60   31   32 ar   
    61   31   33 1    
    62   32   58 1    
@<TRIPOS>SUBSTRUCTURE
     1 UNK         1 GROUP             0       ****    0 ROOT    
