@<TRIPOS>MOLECULE
ZINC39670959_221
65   68    1
SMALL
USER_CHARGES


@<TRIPOS>ATOM
      1 C1         -4.3096   52.0381   25.4103 C.3       1 UNK         0.0000 
      2 C2         -4.3754   50.9689   26.5495 C.3       1 UNK         0.0000 
      3 C3         -4.1497   49.5099   26.0425 C.3       1 UNK         0.0000 
      4 C4         -5.2593   49.0329   25.0796 C.3       1 UNK         0.0000 
      5 C5         -6.6554   49.1245   25.7256 C.3       1 UNK         0.0000 
      6 C6         -6.9464   50.5277   26.2908 C.3       1 UNK         0.0000 
      7 C7         -5.8043   51.0305   27.2062 C.3       1 UNK         0.0000 
      8 C8         -3.2905   51.2968   27.6496 C.2       1 UNK         0.0000 
      9 O9         -3.6280   51.2369   28.8359 O.2       1 UNK         0.0000 
     10 N10        -2.0120   51.6554   27.3382 N.am      1 UNK         0.0000 
     11 C11        -1.0024   51.8767   28.3860 C.3       1 UNK         0.0000 
     12 C12         0.2307   52.3365   27.5888 C.3       1 UNK         0.0000 
     13 H13         0.1371   53.3924   27.3430 H         1 UNK         0.0000 
     14 C14         0.1306   51.4979   26.2874 C.3       1 UNK         0.0000 
     15 C15        -1.3869   51.6235   26.0093 C.3       1 UNK         0.0000 
     16 C16         1.0204   52.0400   25.1396 C.3       1 UNK         0.0000 
     17 C17         0.8127   51.2538   23.8239 C.3       1 UNK         0.0000 
     18 N18         1.1029   49.7518   24.0651 N.4       1 UNK         0.0000 
     19 C19         0.3020   49.1287   25.2296 C.3       1 UNK         0.0000 
     20 C20         0.5121   49.9959   26.4856 C.3       1 UNK         0.0000 
     21 C21         1.5305   52.1656   28.4111 C.2       1 UNK         0.0000 
     22 O22         1.6358   51.2974   29.2748 O.2       1 UNK         0.0000 
     23 N23         2.4908   53.0818   28.1992 N.am      1 UNK         0.0000 
     24 C24         3.7601   53.1408   28.9240 C.3       1 UNK         0.0000 
     25 C25         4.5635   54.4192   28.6174 C.3       1 UNK         0.0000 
     26 C26         5.1211   54.4609   27.2105 C.2       1 UNK         0.0000 
     27 C27         6.4086   54.4882   26.6982 C.2       1 UNK         0.0000 
     28 C28         6.2983   54.5106   25.3066 C.2       1 UNK         0.0000 
     29 C29         4.9410   54.4970   25.0307 C.2       1 UNK         0.0000 
     30 O30         4.2272   54.4719   26.1852 O.3       1 UNK         0.0000 
     31 H31        -5.2445   52.1223   24.8600 H         1 UNK         0.0000 
     32 H32        -4.0949   53.0403   25.7889 H         1 UNK         0.0000 
     33 H33        -3.5720   51.7971   24.6478 H         1 UNK         0.0000 
     34 H34        -3.1876   49.3898   25.5500 H         1 UNK         0.0000 
     35 H35        -4.1447   48.8221   26.8926 H         1 UNK         0.0000 
     36 H36        -5.2378   49.6259   24.1647 H         1 UNK         0.0000 
     37 H37        -5.0646   48.0037   24.7753 H         1 UNK         0.0000 
     38 H38        -7.4221   48.8484   25.0002 H         1 UNK         0.0000 
     39 H39        -6.7268   48.3903   26.5303 H         1 UNK         0.0000 
     40 H40        -7.1246   51.2251   25.4732 H         1 UNK         0.0000 
     41 H41        -7.8798   50.5025   26.8555 H         1 UNK         0.0000 
     42 H42        -5.8395   50.3775   28.0810 H         1 UNK         0.0000 
     43 H43        -6.0317   52.0399   27.5574 H         1 UNK         0.0000 
     44 H44        -0.8260   50.9010   28.8472 H         1 UNK         0.0000 
     45 H45        -1.2952   52.5574   29.1837 H         1 UNK         0.0000 
     46 H46        -1.5310   52.6047   25.5530 H         1 UNK         0.0000 
     47 H47        -1.7253   50.8564   25.3215 H         1 UNK         0.0000 
     48 H48         0.7499   53.0799   24.9487 H         1 UNK         0.0000 
     49 H49         2.0716   52.0967   25.4237 H         1 UNK         0.0000 
     50 H50        -0.2112   51.3129   23.4508 H         1 UNK         0.0000 
     51 H51         1.4946   51.5768   23.0354 H         1 UNK         0.0000 
     52 H52         0.9238   49.2299   23.2195 H         1 UNK         0.0000 
     53 H53        -0.7349   49.0560   24.9087 H         1 UNK         0.0000 
     54 H54         0.6886   48.1174   25.3612 H         1 UNK         0.0000 
     55 H55         1.5044   49.8591   26.8822 H         1 UNK         0.0000 
     56 H56        -0.0953   49.5758   27.2792 H         1 UNK         0.0000 
     57 H57         2.3667   53.7657   27.4686 H         1 UNK         0.0000 
     58 H58         4.3565   52.2608   28.6717 H         1 UNK         0.0000 
     59 H59         3.5750   53.0829   29.9985 H         1 UNK         0.0000 
     60 H60         5.3876   54.4951   29.3270 H         1 UNK         0.0000 
     61 H61         3.9429   55.2951   28.8095 H         1 UNK         0.0000 
     62 H62         7.3183   54.4882   27.2792 H         1 UNK         0.0000 
     63 H63         7.1042   54.5281   24.5865 H         1 UNK         0.0000 
     64 H64         4.3672   54.4995   24.1152 H         1 UNK         0.0000 
     65 H65         2.0865   49.6161   24.2602 H         1 UNK         0.0000 
@<TRIPOS>BOND
     1    1    2 1    
     2    1   31 1    
     3    1   32 1    
     4    1   33 1    
     5    2    7 1    
     6    2    3 1    
     7    2    8 1    
     8    3    4 1    
     9    3   34 1    
    10    3   35 1    
    11    4    5 1    
    12    4   36 1    
    13    4   37 1    
    14    5    6 1    
    15    5   38 1    
    16    5   39 1    
    17    6    7 1    
    18    6   40 1    
    19    6   41 1    
    20    7   42 1    
    21    7   43 1    
    22    8    9 2    
    23    8   10 am   BACKBONE|DICT|INTERRES
    24   10   15 1    
    25   10   11 1    
    26   11   12 1    
    27   11   44 1    
    28   11   45 1    
    29   12   13 1    
    30   12   14 1    
    31   12   21 1    
    32   14   20 1    
    33   14   15 1    
    34   14   16 1    
    35   15   46 1    
    36   15   47 1    
    37   16   17 1    
    38   16   48 1    
    39   16   49 1    
    40   17   18 1    
    41   17   50 1    
    42   17   51 1    
    43   18   19 1    
    44   18   52 1    
    45   18   65 1    
    46   19   20 1    
    47   19   53 1    
    48   19   54 1    
    49   20   55 1    
    50   20   56 1    
    51   21   22 2    
    52   21   23 am   BACKBONE|DICT|INTERRES
    53   23   24 1    
    54   23   57 1    
    55   24   25 1    
    56   24   58 1    
    57   24   59 1    
    58   25   26 1    
    59   25   60 1    
    60   25   61 1    
    61   26   30 1    
    62   26   27 2    
    63   27   28 1    
    64   27   62 1    
    65   28   29 2    
    66   28   63 1    
    67   29   30 1    
    68   29   64 1    
@<TRIPOS>SUBSTRUCTURE
     1 UNK         1 GROUP             0       ****    0 ROOT    
