@<TRIPOS>MOLECULE
ZINC19877491_4980
69   73    1
SMALL
USER_CHARGES


@<TRIPOS>ATOM
      1 C1          7.2104   56.6423   13.9534 C.3       1 UNK         0.0000 
      2 C2          6.6303   56.2727   15.3066 C.ar      1 UNK         0.0000 
      3 C3          5.2646   55.9955   15.4213 C.ar      1 UNK         0.0000 
      4 C4          4.6922   55.6396   16.6437 C.ar      1 UNK         0.0000 
      5 C5          5.5229   55.5618   17.7697 C.ar      1 UNK         0.0000 
      6 C6          6.9085   55.8418   17.6503 C.ar      1 UNK         0.0000 
      7 C7          7.4741   56.1958   16.4185 C.ar      1 UNK         0.0000 
      8 S8          7.6642   55.6635   19.2252 S.3       1 UNK         0.0000 
      9 C9          6.0868   55.2481   19.8826 C.2       1 UNK         0.0000 
     10 N10         5.1055   55.2316   19.0195 N.2       1 UNK         0.0000 
     11 C11         5.9029   54.9467   21.3406 C.ar      1 UNK         0.0000 
     12 C12         6.8884   55.2960   22.2681 C.ar      1 UNK         0.0000 
     13 C13         6.7046   55.0509   23.6236 C.ar      1 UNK         0.0000 
     14 C14         5.5361   54.4363   24.0828 C.ar      1 UNK         0.0000 
     15 C15         4.5439   54.0926   23.1611 C.ar      1 UNK         0.0000 
     16 C16         4.7255   54.3443   21.8021 C.ar      1 UNK         0.0000 
     17 N17         5.2915   54.0959   25.4270 N.am      1 UNK         0.0000 
     18 C18         6.0496   54.2960   26.5341 C.2       1 UNK         0.0000 
     19 O19         7.1035   54.9192   26.5419 O.2       1 UNK         0.0000 
     20 C20         5.5806   53.7029   27.8808 C.3       1 UNK         0.0000 
     21 N21         4.0799   53.3135   27.8530 N.4       1 UNK         0.0000 
     22 C22         3.7100   52.2816   28.9364 C.3       1 UNK         0.0000 
     23 C23         2.2684   51.8181   28.5921 C.3       1 UNK         0.0000 
     24 C24         1.1892   52.9602   28.6144 C.3       1 UNK         0.0000 
     25 C25         1.7560   54.1152   27.7019 C.3       1 UNK         0.0000 
     26 C26         3.1914   54.5714   27.9985 C.3       1 UNK         0.0000 
     27 C27         1.1272   53.5103   30.0982 C.2       1 UNK         0.0000 
     28 O28         1.5006   52.8249   31.0500 O.2       1 UNK         0.0000 
     29 N29         0.7018   54.7515   30.3375 N.am      1 UNK         0.0000 
     30 N30        -0.1665   52.5095   28.1566 N.3       1 UNK         0.0000 
     31 C31        -0.2919   52.1314   26.7272 C.3       1 UNK         0.0000 
     32 C32        -1.7584   51.9671   26.2831 C.3       1 UNK         0.0000 
     33 C33        -2.4881   50.9157   27.1183 C.3       1 UNK         0.0000 
     34 C34        -2.2977   51.2355   28.6049 C.3       1 UNK         0.0000 
     35 C35        -0.8133   51.4590   28.9825 C.3       1 UNK         0.0000 
     36 H36         6.6582   56.1606   13.1459 H         1 UNK         0.0000 
     37 H37         7.1778   57.7221   13.8049 H         1 UNK         0.0000 
     38 H38         8.2445   56.3075   13.8643 H         1 UNK         0.0000 
     39 H39         4.6329   56.0593   14.5465 H         1 UNK         0.0000 
     40 H40         3.6359   55.4280   16.7202 H         1 UNK         0.0000 
     41 H41         8.5309   56.4054   16.3332 H         1 UNK         0.0000 
     42 H42         7.8107   55.7654   21.9591 H         1 UNK         0.0000 
     43 H43         7.5038   55.3403   24.2837 H         1 UNK         0.0000 
     44 H44         3.6275   53.6186   23.4829 H         1 UNK         0.0000 
     45 H45         3.9425   54.0725   21.1075 H         1 UNK         0.0000 
     46 H46         4.4287   53.5960   25.5490 H         1 UNK         0.0000 
     47 H47         5.7309   54.3923   28.7144 H         1 UNK         0.0000 
     48 H48         6.1460   52.7923   28.0841 H         1 UNK         0.0000 
     49 H49         4.4189   51.4596   28.8821 H         1 UNK         0.0000 
     50 H50         3.8234   52.7584   29.9116 H         1 UNK         0.0000 
     51 H51         1.9724   51.0391   29.2930 H         1 UNK         0.0000 
     52 H52         2.2058   51.2397   27.6758 H         1 UNK         0.0000 
     53 H53         1.6699   53.9007   26.6430 H         1 UNK         0.0000 
     54 H54         1.0913   54.9772   27.7542 H         1 UNK         0.0000 
     55 H55         3.5020   55.2928   27.2419 H         1 UNK         0.0000 
     56 H56         3.3387   54.9979   28.9934 H         1 UNK         0.0000 
     57 H57         0.6780   55.0792   31.2921 H         1 UNK         0.0000 
     58 H58         0.3038   55.3112   29.6003 H         1 UNK         0.0000 
     59 H59         0.2855   51.2278   26.5257 H         1 UNK         0.0000 
     60 H60         0.1000   52.8906   26.0605 H         1 UNK         0.0000 
     61 H61        -1.7854   51.6698   25.2343 H         1 UNK         0.0000 
     62 H62        -2.2689   52.9302   26.3263 H         1 UNK         0.0000 
     63 H63        -3.5491   50.8903   26.8659 H         1 UNK         0.0000 
     64 H64        -2.0924   49.9266   26.8824 H         1 UNK         0.0000 
     65 H65        -2.9015   52.0955   28.8796 H         1 UNK         0.0000 
     66 H66        -2.6970   50.4183   29.2055 H         1 UNK         0.0000 
     67 H67        -0.2519   50.5252   28.9003 H         1 UNK         0.0000 
     68 H68        -0.7941   51.7320   30.0376 H         1 UNK         0.0000 
     69 H69         3.9205   52.8576   26.9660 H         1 UNK         0.0000 
@<TRIPOS>BOND
     1    1    2 1    
     2    1   36 1    
     3    1   37 1    
     4    1   38 1    
     5    2    7 ar   
     6    2    3 ar   
     7    3    4 ar   
     8    3   39 1    
     9    4    5 ar   
    10    4   40 1    
    11    5   10 1    
    12    5    6 ar   
    13    6    7 ar   
    14    6    8 1    
    15    7   41 1    
    16    8    9 1    
    17    9   10 2    
    18    9   11 1    
    19   11   16 ar   
    20   11   12 ar   
    21   12   13 ar   
    22   12   42 1    
    23   13   14 ar   
    24   13   43 1    
    25   14   15 ar   
    26   14   17 1    
    27   15   16 ar   
    28   15   44 1    
    29   16   45 1    
    30   17   18 am   BACKBONE|DICT|INTERRES
    31   17   46 1    
    32   18   19 2    
    33   18   20 1    
    34   20   21 1    
    35   20   47 1    
    36   20   48 1    
    37   21   26 1    
    38   21   22 1    
    39   21   69 1    
    40   22   23 1    
    41   22   49 1    
    42   22   50 1    
    43   23   24 1    
    44   23   51 1    
    45   23   52 1    
    46   24   25 1    
    47   24   27 1    
    48   24   30 1    
    49   25   26 1    
    50   25   53 1    
    51   25   54 1    
    52   26   55 1    
    53   26   56 1    
    54   27   28 2    
    55   27   29 am   BACKBONE|DICT|INTERRES
    56   29   57 1    
    57   29   58 1    
    58   30   35 1    
    59   30   31 1    
    60   31   32 1    
    61   31   59 1    
    62   31   60 1    
    63   32   33 1    
    64   32   61 1    
    65   32   62 1    
    66   33   34 1    
    67   33   63 1    
    68   33   64 1    
    69   34   35 1    
    70   34   65 1    
    71   34   66 1    
    72   35   67 1    
    73   35   68 1    
@<TRIPOS>SUBSTRUCTURE
     1 UNK         1 GROUP             0       ****    0 ROOT    
