ZINC40428682_290
                    3D
 Schrodinger Suite 2024-2.
 61 66  0  0  1  0            999 V2000
    0.7328   52.3845   27.5081 C   0  0  0  0  0  0
    0.3604   52.4692   28.8459 C   0  0  0  0  0  0
    0.7497   53.5731   29.6011 C   0  0  0  0  0  0
    1.5196   54.5827   29.0328 C   0  0  0  0  0  0
    1.8992   54.4885   27.6960 C   0  0  0  0  0  0
    1.5075   53.3940   26.9135 C   0  0  0  0  0  0
    1.8680   53.2969   25.4503 C   0  0  0  0  0  0
    3.0786   53.6266   24.7816 C   0  0  0  0  0  0
    2.8650   53.2161   23.4719 N   0  0  0  0  0  0
    3.6835   53.1319   22.3682 C   0  0  0  0  0  0
    3.1977   52.6048   21.1800 C   0  0  0  0  0  0
    1.8780   52.1609   21.0876 C   0  0  0  0  0  0
    1.0359   52.2391   22.2051 C   0  0  0  0  0  0
    1.5397   52.7548   23.4149 C   0  0  0  0  0  0
    0.9441   52.8502   24.6219 N   0  0  0  0  0  0
    1.3727   51.5921   19.7576 C   0  0  2  0  0  0
    2.1298   50.3028   19.3515 C   0  0  0  0  0  0
    1.6780   49.7742   17.9812 C   0  0  0  0  0  0
    1.9044   50.8966   16.9414 N   0  3  2  0  0  0
    1.0052   52.1154   17.2568 C   0  0  0  0  0  0
    1.3809   52.6651   18.6426 C   0  0  0  0  0  0
    1.6303   50.3487   15.5182 C   0  0  0  0  0  0
    2.1410   51.3418   14.4591 C   0  0  0  0  0  0
    3.6269   51.5247   14.2634 C   0  0  0  0  0  0
    2.7987   50.8182   13.2047 C   0  0  0  0  0  0
    4.3863   54.1720   25.2899 C   0  0  0  0  0  0
    5.3127   54.8699   24.5023 C   0  0  0  0  0  0
    6.4774   55.3310   25.1156 C   0  0  0  0  0  0
    6.7043   55.1713   26.4426 N   0  0  0  0  0  0
    5.7522   54.4990   27.1313 C   0  0  0  0  0  0
    4.6247   53.9627   26.6117 N   0  0  0  0  0  0
    5.9077   54.4166   28.5017 N   0  0  0  0  0  0
    0.3826   53.6662   30.8985 F   0  0  0  0  0  0
    0.4142   51.5300   26.9279 H   0  0  0  0  0  0
   -0.2368   51.6871   29.2953 H   0  0  0  0  0  0
    1.8191   55.4325   29.6260 H   0  0  0  0  0  0
    2.5012   55.2839   27.2815 H   0  0  0  0  0  0
    4.7206   53.3962   22.4736 H   0  0  0  0  0  0
    3.8592   52.5255   20.3280 H   0  0  0  0  0  0
    0.0176   51.8839   22.1548 H   0  0  0  0  0  0
    0.3336   51.3158   19.9305 H   0  0  0  0  0  0
    1.9429   49.5151   20.0833 H   0  0  0  0  0  0
    3.2071   50.4768   19.3144 H   0  0  0  0  0  0
    0.6250   49.4867   17.9469 H   0  0  0  0  0  0
    2.3034   48.9305   17.6844 H   0  0  0  0  0  0
    1.1983   52.8764   16.4997 H   0  0  0  0  0  0
   -0.0356   51.7855   17.1960 H   0  0  0  0  0  0
    2.3541   53.1502   18.5747 H   0  0  0  0  0  0
    0.6454   53.4325   18.8863 H   0  0  0  0  0  0
    0.5591   50.1502   15.4469 H   0  0  0  0  0  0
    2.1838   49.4089   15.4620 H   0  0  0  0  0  0
    1.4998   52.2178   14.3488 H   0  0  0  0  0  0
    4.3088   50.9410   14.8858 H   0  0  0  0  0  0
    4.0072   52.5273   14.0635 H   0  0  0  0  0  0
    2.5950   51.3280   12.2618 H   0  0  0  0  0  0
    2.9084   49.7406   13.0739 H   0  0  0  0  0  0
    5.1487   55.0868   23.4637 H   0  0  0  0  0  0
    7.2282   55.8659   24.5492 H   0  0  0  0  0  0
    5.1755   53.9803   29.0424 H   0  0  0  0  0  0
    6.6299   54.9914   28.9315 H   0  0  0  0  0  0
    2.8870   51.1433   16.9719 H   0  0  0  0  0  0
  1  6  2  0  0  0
  1  2  1  0  0  0
  1 34  1  0  0  0
  2  3  2  0  0  0
  2 35  1  0  0  0
  3  4  1  0  0  0
  3 33  1  0  0  0
  4  5  2  0  0  0
  4 36  1  0  0  0
  5  6  1  0  0  0
  5 37  1  0  0  0
  6  7  1  0  0  0
  7 15  1  0  0  0
  7  8  2  0  0  0
  8  9  1  0  0  0
  8 26  1  0  0  0
  9 14  1  0  0  0
  9 10  1  0  0  0
 10 11  2  0  0  0
 10 38  1  0  0  0
 11 12  1  0  0  0
 11 39  1  0  0  0
 12 13  2  0  0  0
 12 16  1  0  0  0
 13 14  1  0  0  0
 13 40  1  0  0  0
 14 15  2  0  0  0
 16 21  1  0  0  0
 16 17  1  0  0  0
 16 41  1  0  0  0
 17 18  1  0  0  0
 17 42  1  0  0  0
 17 43  1  0  0  0
 18 19  1  0  0  0
 18 44  1  0  0  0
 18 45  1  0  0  0
 19 20  1  0  0  0
 19 22  1  0  0  0
 19 61  1  0  0  0
 20 21  1  0  0  0
 20 46  1  0  0  0
 20 47  1  0  0  0
 21 48  1  0  0  0
 21 49  1  0  0  0
 22 23  1  0  0  0
 22 50  1  0  0  0
 22 51  1  0  0  0
 23 25  1  0  0  0
 23 24  1  0  0  0
 23 52  1  0  0  0
 24 25  1  0  0  0
 24 53  1  0  0  0
 24 54  1  0  0  0
 25 55  1  0  0  0
 25 56  1  0  0  0
 26 31  2  0  0  0
 26 27  1  0  0  0
 27 28  2  0  0  0
 27 57  1  0  0  0
 28 29  1  0  0  0
 28 58  1  0  0  0
 29 30  2  0  0  0
 30 31  1  0  0  0
 30 32  1  0  0  0
 32 59  1  0  0  0
 32 60  1  0  0  0
M  CHG  1  19   1
M  END
> <i_i_glide_confnum>
838

> <i_i_glide_lignum>
291

> <i_i_glide_posenum>
325

> <i_i_glide_rotatable_bonds>
5

> <i_m_Source_File_Index>
3482

> <b_m_subgroup_collapsed>
0

> <r_i_docking_score>
-7.7935

> <r_i_glide_ecoul>
-5.34926

> <r_i_glide_eff_state_penalty>
0

> <r_i_glide_einternal>
2.26927

> <r_i_glide_emodel>
-67.0939

> <r_i_glide_energy>
-43.4502

> <r_i_glide_erotb>
0.35569

> <r_i_glide_esite>
-0.0999467

> <r_i_glide_evdw>
-38.1009

> <r_i_glide_gscore>
-7.7935

> <r_i_glide_hbond>
-0.616092

> <r_i_glide_ligand_efficiency>
-0.236167

> <r_i_glide_ligand_efficiency_ln>
-1.73323

> <r_i_glide_ligand_efficiency_sa>
-0.757513

> <r_i_glide_lipo>
-2.43389

> <r_i_glide_metal>
0

> <r_i_glide_rewards>
-2.29182

> <s_i_glide_gridfile>
wee1_glide-grid

> <s_m_Source_File>
wee1_decoys_glide_SP.sdf

> <s_m_Source_Path>
/Users/zhangxujun/Desktop

> <s_m_entry_id>
3757

> <s_m_entry_name>
wee1_decoys_glide_SP.3482

> <s_m_subgroup_title>
wee1_decoys_glide_SP

> <s_m_subgroupid>
wee1_decoys_glide_SP


$$$$
