ZINC02936370_561
                    3D
 Schrodinger Suite 2024-2.
 51 54  0  0  1  0            999 V2000
    5.9540   54.9011   27.0374 C   0  0  0  0  0  0
    5.5336   54.5256   25.6275 C   0  0  0  0  0  0
    4.2082   54.1827   25.3562 C   0  0  0  0  0  0
    3.8390   53.7907   24.0718 C   0  0  0  0  0  0
    4.7966   53.7405   23.0481 C   0  0  0  0  0  0
    6.1140   54.1310   23.3160 C   0  0  0  0  0  0
    6.4787   54.5206   24.6011 C   0  0  0  0  0  0
    4.4378   53.2456   21.7137 C   0  0  0  0  0  0
    4.7287   54.1610   20.5157 C   0  0  0  0  0  0
    4.8503   53.3562   19.1981 C   0  0  2  0  0  0
    5.6785   52.6454   19.2708 H   0  0  0  0  0  0
    3.4715   51.5525   20.2837 C   0  0  1  0  0  0
    4.2028   50.7650   20.0825 H   0  0  0  0  0  0
    3.8099   52.1333   21.5863 N   0  0  0  0  0  0
    2.0843   50.9236   20.2370 C   0  0  0  0  0  0
    1.9047   49.7229   19.5467 C   0  0  0  0  0  0
    0.6531   49.1166   19.5068 C   0  0  0  0  0  0
   -0.4393   49.7084   20.1415 C   0  0  0  0  0  0
   -0.2823   50.9354   20.8139 C   0  0  0  0  0  0
    0.9904   51.5203   20.8717 C   0  0  0  0  0  0
   -1.4133   51.6082   21.4828 N   0  3  0  0  0  0
   -1.2175   52.0939   22.5935 O   0  0  0  0  0  0
   -2.4777   51.6964   20.8804 O   0  5  0  0  0  0
   -1.9537   48.8703   20.0912 Cl  0  0  0  0  0  0
    4.9856   54.1686   17.9101 C   0  0  0  0  0  0
    4.3223   55.3989   17.7713 C   0  0  0  0  0  0
    4.4777   56.1721   16.6220 C   0  0  0  0  0  0
    5.2979   55.7236   15.5886 C   0  0  0  0  0  0
    5.9470   54.4948   15.7050 C   0  0  0  0  0  0
    5.7893   53.7114   16.8492 C   0  0  0  0  0  0
    6.4294   52.4967   16.8814 O   0  0  0  0  0  0
    3.5683   57.8381   16.4753 Br  0  0  0  0  0  0
    5.1125   55.2809   27.6153 H   0  0  0  0  0  0
    6.3796   54.0383   27.5515 H   0  0  0  0  0  0
    6.7008   55.6952   27.0259 H   0  0  0  0  0  0
    3.4664   54.1898   26.1421 H   0  0  0  0  0  0
    2.8166   53.4977   23.8844 H   0  0  0  0  0  0
    6.8761   54.0979   22.5494 H   0  0  0  0  0  0
    7.5035   54.7911   24.7977 H   0  0  0  0  0  0
    3.8978   54.8648   20.4652 H   0  0  0  0  0  0
    5.6240   54.7621   20.6842 H   0  0  0  0  0  0
    2.7356   49.2519   19.0374 H   0  0  0  0  0  0
    0.5350   48.1810   18.9781 H   0  0  0  0  0  0
    1.1248   52.4523   21.4054 H   0  0  0  0  0  0
    3.6715   55.7781   18.5432 H   0  0  0  0  0  0
    5.4195   56.3221   14.6983 H   0  0  0  0  0  0
    6.5682   54.1405   14.8961 H   0  0  0  0  0  0
    6.0114   51.8099   17.4291 H   0  0  0  0  0  0
    3.5929   52.4945   19.0710 N   0  3  0  0  0  0
    3.6586   51.9344   18.2280 H   0  0  0  0  0  0
    2.7748   53.0810   18.9844 H   0  0  0  0  0  0
  1  2  1  0  0  0
  1 33  1  0  0  0
  1 34  1  0  0  0
  1 35  1  0  0  0
  2  7  2  0  0  0
  2  3  1  0  0  0
  3  4  2  0  0  0
  3 36  1  0  0  0
  4  5  1  0  0  0
  4 37  1  0  0  0
  5  6  2  0  0  0
  5  8  1  0  0  0
  6  7  1  0  0  0
  6 38  1  0  0  0
  7 39  1  0  0  0
  8  9  1  0  0  0
  8 14  2  0  0  0
  9 10  1  0  0  0
  9 40  1  0  0  0
  9 41  1  0  0  0
 10 11  1  0  0  0
 10 25  1  0  0  0
 10 49  1  0  0  0
 12 13  1  0  0  0
 12 15  1  0  0  0
 12 49  1  0  0  0
 12 14  1  0  0  0
 15 20  2  0  0  0
 15 16  1  0  0  0
 16 17  2  0  0  0
 16 42  1  0  0  0
 17 18  1  0  0  0
 17 43  1  0  0  0
 18 19  2  0  0  0
 18 24  1  0  0  0
 19 20  1  0  0  0
 19 21  1  0  0  0
 20 44  1  0  0  0
 21 22  2  0  0  0
 21 23  1  0  0  0
 25 30  2  0  0  0
 25 26  1  0  0  0
 26 27  2  0  0  0
 26 45  1  0  0  0
 27 28  1  0  0  0
 27 32  1  0  0  0
 28 29  2  0  0  0
 28 46  1  0  0  0
 29 30  1  0  0  0
 29 47  1  0  0  0
 30 31  1  0  0  0
 31 48  1  0  0  0
 49 50  1  0  0  0
 49 51  1  0  0  0
M  CHG  3  21   1  23  -1  49   1
M  END
> <i_i_glide_confnum>
15

> <i_i_glide_lignum>
562

> <i_i_glide_posenum>
383

> <i_i_glide_rotatable_bonds>
5

> <i_m_Source_File_Index>
4711

> <b_m_subgroup_collapsed>
0

> <r_i_docking_score>
-5.29834

> <r_i_glide_ecoul>
-7.5877

> <r_i_glide_eff_state_penalty>
0

> <r_i_glide_einternal>
2.67504

> <r_i_glide_emodel>
-56.8896

> <r_i_glide_energy>
-41.3251

> <r_i_glide_erotb>
0.243409

> <r_i_glide_esite>
-0.164946

> <r_i_glide_evdw>
-33.7374

> <r_i_glide_gscore>
-5.29834

> <r_i_glide_hbond>
-0.176596

> <r_i_glide_ligand_efficiency>
-0.170914

> <r_i_glide_ligand_efficiency_ln>
-1.19494

> <r_i_glide_ligand_efficiency_sa>
-0.536906

> <r_i_glide_lipo>
-2.13557

> <r_i_glide_metal>
0

> <r_i_glide_rewards>
-0.239614

> <s_i_glide_gridfile>
wee1_glide-grid

> <s_m_Source_File>
wee1_decoys_glide_SP.sdf

> <s_m_Source_Path>
/Users/zhangxujun/Desktop

> <s_m_entry_id>
4986

> <s_m_entry_name>
wee1_decoys_glide_SP.4711

> <s_m_subgroup_title>
wee1_decoys_glide_SP

> <s_m_subgroupid>
wee1_decoys_glide_SP


$$$$
