@<TRIPOS>MOLECULE
ZINC15449191_2547
72   75    1
SMALL
USER_CHARGES


@<TRIPOS>ATOM
      1 C1         -0.9090   48.8111   22.2870 C.3       1 UNK         0.0000 
      2 C2         -0.5810   49.2139   23.7469 C.3       1 UNK         0.0000 
      3 H3         -1.4985   49.6398   24.1461 H         1 UNK         0.0000 
      4 C4         -0.2739   47.9768   24.6316 C.3       1 UNK         0.0000 
      5 C5         -1.2723   46.7920   24.5812 C.3       1 UNK         0.0000 
      6 C6         -2.6862   47.0084   25.1345 C.2       1 UNK         0.0000 
      7 O7         -3.5113   46.0963   25.0597 O.2       1 UNK         0.0000 
      8 O8         -2.8964   48.2210   25.6825 O.3       1 UNK         0.0000 
      9 C9         -4.1271   48.5268   26.3158 C.3       1 UNK         0.0000 
     10 C10         0.5402   50.3058   23.9054 C.3       1 UNK         0.0000 
     11 H11         0.9640   50.1426   24.8955 H         1 UNK         0.0000 
     12 C12         1.7636   50.1651   22.9763 C.3       1 UNK         0.0000 
     13 C13         2.0074   51.5508   22.3815 C.3       1 UNK         0.0000 
     14 C14         1.3847   52.5785   23.3536 C.3       1 UNK         0.0000 
     15 H15         1.0577   53.4457   22.7737 H         1 UNK         0.0000 
     16 C16         0.1064   51.8204   23.8840 C.3       1 UNK         0.0000 
     17 C17        -0.3445   52.3351   25.2907 C.3       1 UNK         0.0000 
     18 H18        -0.8252   53.2976   25.1417 H         1 UNK         0.0000 
     19 C19         0.8268   52.5364   26.2627 C.3       1 UNK         0.0000 
     20 C20         1.8089   53.6167   25.7539 C.3       1 UNK         0.0000 
     21 H21         1.2331   54.4967   25.4796 H         1 UNK         0.0000 
     22 C22         2.4258   53.1281   24.4079 C.3       1 UNK         0.0000 
     23 H23         3.1032   52.3192   24.6508 H         1 UNK         0.0000 
     24 C24         3.2866   54.2980   23.8525 C.3       1 UNK         0.0000 
     25 H25         2.6752   55.2023   23.8343 H         1 UNK         0.0000 
     26 C26         4.4735   54.5434   24.7927 C.3       1 UNK         0.0000 
     27 C27         4.0148   54.9560   26.2150 C.3       1 UNK         0.0000 
     28 H28         3.5276   55.9153   26.0707 H         1 UNK         0.0000 
     29 C29         2.8938   54.0426   26.8459 C.3       1 UNK         0.0000 
     30 C30         3.6806   52.8310   27.3660 C.3       1 UNK         0.0000 
     31 C31         4.6726   53.0658   28.5103 C.3       1 UNK         0.0000 
     32 C32         5.7970   53.9935   28.0215 C.3       1 UNK         0.0000 
     33 H33         6.3301   54.3927   28.8876 H         1 UNK         0.0000 
     34 C34         5.2674   55.1364   27.1414 C.3       1 UNK         0.0000 
     35 O35         6.7423   53.2967   27.2508 O.3       1 UNK         0.0000 
     36 C36         2.1554   54.7553   28.0221 C.3       1 UNK         0.0000 
     37 O37         3.7565   54.1173   22.5306 O.3       1 UNK         0.0000 
     38 O38        -1.3488   51.5282   25.8794 O.3       1 UNK         0.0000 
     39 C39        -1.0576   52.0939   22.8791 C.3       1 UNK         0.0000 
     40 H40        -0.1438   48.1679   21.8550 H         1 UNK         0.0000 
     41 H41        -1.8512   48.2638   22.2342 H         1 UNK         0.0000 
     42 H42        -1.0109   49.6713   21.6288 H         1 UNK         0.0000 
     43 H43        -0.1681   48.2898   25.6739 H         1 UNK         0.0000 
     44 H44         0.7040   47.5935   24.3527 H         1 UNK         0.0000 
     45 H45        -0.8547   45.9885   25.1810 H         1 UNK         0.0000 
     46 H46        -1.3598   46.4176   23.5619 H         1 UNK         0.0000 
     47 H47        -4.1058   49.5532   26.6830 H         1 UNK         0.0000 
     48 H48        -4.3030   47.8659   27.1649 H         1 UNK         0.0000 
     49 H49        -4.9620   48.4331   25.6195 H         1 UNK         0.0000 
     50 H50         2.6411   49.8852   23.5646 H         1 UNK         0.0000 
     51 H51         1.6598   49.4137   22.1945 H         1 UNK         0.0000 
     52 H52         3.0669   51.7132   22.1830 H         1 UNK         0.0000 
     53 H53         1.5121   51.6170   21.4120 H         1 UNK         0.0000 
     54 H54         1.3621   51.6121   26.4736 H         1 UNK         0.0000 
     55 H55         0.4092   52.8335   27.2256 H         1 UNK         0.0000 
     56 H56         5.1516   55.2937   24.3830 H         1 UNK         0.0000 
     57 H57         5.0824   53.6407   24.8426 H         1 UNK         0.0000 
     58 H58         3.0140   52.0436   27.7108 H         1 UNK         0.0000 
     59 H59         4.2444   52.4966   26.5138 H         1 UNK         0.0000 
     60 H60         5.0590   52.1144   28.8782 H         1 UNK         0.0000 
     61 H61         4.1292   53.5418   29.3256 H         1 UNK         0.0000 
     62 H62         6.0683   55.6996   26.6652 H         1 UNK         0.0000 
     63 H63         4.8416   55.6967   27.9482 H         1 UNK         0.0000 
     64 H64         6.2863   52.6037   26.7643 H         1 UNK         0.0000 
     65 H65         2.8217   55.3392   28.6543 H         1 UNK         0.0000 
     66 H66         1.3780   55.4376   27.6820 H         1 UNK         0.0000 
     67 H67         1.6651   54.0355   28.6788 H         1 UNK         0.0000 
     68 H68         3.0052   54.0913   21.9305 H         1 UNK         0.0000 
     69 H69        -0.9677   50.6820   26.1373 H         1 UNK         0.0000 
     70 H70        -1.3554   53.1413   22.8928 H         1 UNK         0.0000 
     71 H71        -0.7848   51.8634   21.8512 H         1 UNK         0.0000 
     72 H72        -1.9581   51.5318   23.1203 H         1 UNK         0.0000 
@<TRIPOS>BOND
     1    1    2 1    
     2    1   40 1    
     3    1   41 1    
     4    1   42 1    
     5    2    3 1    
     6    2    4 1    
     7    2   10 1    
     8    4    5 1    
     9    4   43 1    
    10    4   44 1    
    11    5    6 1    
    12    5   45 1    
    13    5   46 1    
    14    6    7 2    
    15    6    8 1    
    16    8    9 1    
    17    9   47 1    
    18    9   48 1    
    19    9   49 1    
    20   10   11 1    
    21   10   16 1    
    22   10   12 1    
    23   12   13 1    
    24   12   50 1    
    25   12   51 1    
    26   13   14 1    
    27   13   52 1    
    28   13   53 1    
    29   14   15 1    
    30   14   22 1    
    31   14   16 1    
    32   16   17 1    
    33   16   39 1    
    34   17   18 1    
    35   17   19 1    
    36   17   38 1    
    37   19   20 1    
    38   19   54 1    
    39   19   55 1    
    40   20   21 1    
    41   20   29 1    
    42   20   22 1    
    43   22   23 1    
    44   22   24 1    
    45   24   25 1    
    46   24   26 1    
    47   24   37 1    
    48   26   27 1    
    49   26   56 1    
    50   26   57 1    
    51   27   28 1    
    52   27   34 1    
    53   27   29 1    
    54   29   30 1    
    55   29   36 1    
    56   30   31 1    
    57   30   58 1    
    58   30   59 1    
    59   31   32 1    
    60   31   60 1    
    61   31   61 1    
    62   32   33 1    
    63   32   34 1    
    64   32   35 1    
    65   34   62 1    
    66   34   63 1    
    67   35   64 1    
    68   36   65 1    
    69   36   66 1    
    70   36   67 1    
    71   37   68 1    
    72   38   69 1    
    73   39   70 1    
    74   39   71 1    
    75   39   72 1    
@<TRIPOS>SUBSTRUCTURE
     1 UNK         1 GROUP             0       ****    0 ROOT    
