@<TRIPOS>MOLECULE
ZINC66066905_2576
44   45    1
SMALL
USER_CHARGES


@<TRIPOS>ATOM
      1 C1          5.9579   54.5801   28.3030 C.3       1 UNK         0.0000 
      2 C2          4.8683   54.1432   27.2974 C.3       1 UNK         0.0000 
      3 H3          4.8361   53.0504   27.3291 H         1 UNK         0.0000 
      4 C4          5.2044   54.4927   25.8295 C.ar      1 UNK         0.0000 
      5 C5          6.3042   55.2963   25.4932 C.ar      1 UNK         0.0000 
      6 C6          6.7042   55.4444   24.1674 C.ar      1 UNK         0.0000 
      7 C7          6.0176   54.7932   23.1472 C.ar      1 UNK         0.0000 
      8 C8          4.8788   54.0461   23.4469 C.ar      1 UNK         0.0000 
      9 C9          4.4653   53.9178   24.7826 C.ar      1 UNK         0.0000 
     10 S10         4.0145   53.1867   22.1260 S.o2      1 UNK         0.0000 
     11 O11         4.8974   52.1038   21.6817 O.2       1 UNK         0.0000 
     12 O12         2.6513   52.9249   22.5981 O.2       1 UNK         0.0000 
     13 N13         3.9045   54.3015   20.8000 N.pl3     1 UNK         0.0000 
     14 N14         3.5446   54.6401   27.6883 N.am      1 UNK         0.0000 
     15 C15         2.9337   54.4821   28.8824 C.2       1 UNK         0.0000 
     16 O16         3.4560   53.9275   29.8514 O.2       1 UNK         0.0000 
     17 C17         1.5060   55.0399   29.0132 C.3       1 UNK         0.0000 
     18 H18         1.2114   55.5216   28.0814 H         1 UNK         0.0000 
     19 C19         1.4314   56.1236   30.1115 C.3       1 UNK         0.0000 
     20 S20         0.3053   53.6992   29.3200 S.3       1 UNK         0.0000 
     21 C21         0.0796   52.6894   27.8792 C.ar      1 UNK         0.0000 
     22 C22         0.8008   52.8964   26.6991 C.ar      1 UNK         0.0000 
     23 C23         0.5647   52.0964   25.5850 C.ar      1 UNK         0.0000 
     24 C24        -0.3970   51.0926   25.6511 C.ar      1 UNK         0.0000 
     25 C25        -1.1234   50.8907   26.8220 C.ar      1 UNK         0.0000 
     26 C26        -0.8785   51.6812   27.9395 C.ar      1 UNK         0.0000 
     27 Cl27       -0.6884   50.0941   24.2739 Cl        1 UNK         0.0000 
     28 H28         6.9618   54.3102   27.9748 H         1 UNK         0.0000 
     29 H29         5.9045   55.6588   28.4527 H         1 UNK         0.0000 
     30 H30         5.8341   54.1194   29.2813 H         1 UNK         0.0000 
     31 H31         6.8791   55.7979   26.2542 H         1 UNK         0.0000 
     32 H32         7.5546   56.0641   23.9274 H         1 UNK         0.0000 
     33 H33         6.3551   54.8919   22.1254 H         1 UNK         0.0000 
     34 H34         3.6139   53.2939   25.0146 H         1 UNK         0.0000 
     35 H35         4.4233   53.9925   19.9754 H         1 UNK         0.0000 
     36 H36         2.9412   54.5914   20.5763 H         1 UNK         0.0000 
     37 H37         3.0170   55.0692   26.9444 H         1 UNK         0.0000 
     38 H38         2.2139   56.8772   30.0040 H         1 UNK         0.0000 
     39 H39         0.4819   56.6532   30.0819 H         1 UNK         0.0000 
     40 H40         1.5053   55.6962   31.1105 H         1 UNK         0.0000 
     41 H41         1.5186   53.6872   26.6050 H         1 UNK         0.0000 
     42 H42         1.1193   52.2575   24.6720 H         1 UNK         0.0000 
     43 H43        -1.8558   50.0975   26.8807 H         1 UNK         0.0000 
     44 H44        -1.4332   51.5012   28.8495 H         1 UNK         0.0000 
@<TRIPOS>BOND
     1    1    2 1    
     2    1   28 1    
     3    1   29 1    
     4    1   30 1    
     5    2    3 1    
     6    2    4 1    
     7    2   14 1    
     8    4    9 ar   
     9    4    5 ar   
    10    5    6 ar   
    11    5   31 1    
    12    6    7 ar   
    13    6   32 1    
    14    7    8 ar   
    15    7   33 1    
    16    8    9 ar   
    17    8   10 1    
    18    9   34 1    
    19   10   11 2    
    20   10   12 2    
    21   10   13 1    
    22   13   35 1    
    23   13   36 1    
    24   14   15 am   BACKBONE|DICT|INTERRES
    25   14   37 1    
    26   15   16 2    
    27   15   17 1    
    28   17   18 1    
    29   17   19 1    
    30   17   20 1    
    31   19   38 1    
    32   19   39 1    
    33   19   40 1    
    34   20   21 1    
    35   21   26 ar   
    36   21   22 ar   
    37   22   23 ar   
    38   22   41 1    
    39   23   24 ar   
    40   23   42 1    
    41   24   25 ar   
    42   24   27 1    
    43   25   26 ar   
    44   25   43 1    
    45   26   44 1    
@<TRIPOS>SUBSTRUCTURE
     1 UNK         1 GROUP             0       ****    0 ROOT    
