@<TRIPOS>MOLECULE
ZINC19641783_2620
62   65    1
SMALL
USER_CHARGES


@<TRIPOS>ATOM
      1 C1          4.7044   54.4072   29.0960 C.3       1 UNK         0.0000 
      2 C2          4.3232   54.4967   27.6123 C.3       1 UNK         0.0000 
      3 H3          3.7177   55.3874   27.4949 H         1 UNK         0.0000 
      4 C4          3.4893   53.2967   27.1830 C.3       1 UNK         0.0000 
      5 C5          2.9150   53.4700   25.7638 C.3       1 UNK         0.0000 
      6 C6          3.9882   53.9784   24.7785 C.2       1 UNK         0.0000 
      7 C7          5.2020   54.4951   25.2655 C.2       1 UNK         0.0000 
      8 S8          6.3044   54.8967   24.0017 S.3       1 UNK         0.0000 
      9 C9          5.1491   54.4274   22.7782 C.2       1 UNK         0.0000 
     10 C10         3.9613   53.9026   23.3450 C.2       1 UNK         0.0000 
     11 C11         2.9013   53.3013   22.5262 C.2       1 UNK         0.0000 
     12 O12         3.0781   53.0447   21.3341 O.2       1 UNK         0.0000 
     13 N13         1.7361   53.0407   23.1446 N.am      1 UNK         0.0000 
     14 C14         0.5786   52.3664   22.5492 C.3       1 UNK         0.0000 
     15 C15         0.8172   50.8555   22.2907 C.3       1 UNK         0.0000 
     16 C16         1.0230   50.0587   23.5968 C.3       1 UNK         0.0000 
     17 C17        -0.1654   50.2400   24.5641 C.3       1 UNK         0.0000 
     18 C18        -0.5225   51.7240   24.7948 C.3       1 UNK         0.0000 
     19 C19        -0.6665   52.4967   23.4632 C.3       1 UNK         0.0000 
     20 N20         5.3970   54.5776   21.4075 N.am      1 UNK         0.0000 
     21 C21         6.4678   55.1062   20.7715 C.2       1 UNK         0.0000 
     22 O22         7.4733   55.5294   21.3435 O.2       1 UNK         0.0000 
     23 C23         6.4167   55.0855   19.2166 C.3       1 UNK         0.0000 
     24 H24         5.7147   54.2818   18.9834 H         1 UNK         0.0000 
     25 C25         7.7835   54.6961   18.5777 C.3       1 UNK         0.0000 
     26 C26         7.7077   54.8073   17.0571 C.2       1 UNK         0.0000 
     27 C27         6.7241   55.4448   16.3886 C.2       1 UNK         0.0000 
     28 C28         5.5749   56.2003   17.0594 C.3       1 UNK         0.0000 
     29 C29         5.8397   56.3960   18.5850 C.3       1 UNK         0.0000 
     30 H30         4.8906   56.6757   19.0422 H         1 UNK         0.0000 
     31 C31         6.7333   57.6414   18.8575 C.2       1 UNK         0.0000 
     32 O32         6.7044   58.0967   20.0205 O.co2     1 UNK         0.0000 
     33 O33         7.5044   58.0609   17.9662 O.co2     1 UNK         0.0000 
     34 C34         5.5960   54.5961   26.7364 C.3       1 UNK         0.0000 
     35 H35         5.2896   53.5065   29.2817 H         1 UNK         0.0000 
     36 H36         5.3034   55.2642   29.4080 H         1 UNK         0.0000 
     37 H37         3.8217   54.3728   29.7349 H         1 UNK         0.0000 
     38 H38         4.1017   52.4080   27.2817 H         1 UNK         0.0000 
     39 H39         2.6637   53.1425   27.8796 H         1 UNK         0.0000 
     40 H40         2.0603   54.1449   25.7838 H         1 UNK         0.0000 
     41 H41         2.5347   52.4967   25.4647 H         1 UNK         0.0000 
     42 H42         1.7220   53.1249   24.1484 H         1 UNK         0.0000 
     43 H43         0.3656   52.8705   21.6028 H         1 UNK         0.0000 
     44 H44         1.6785   50.7167   21.6357 H         1 UNK         0.0000 
     45 H45        -0.0306   50.4415   21.7431 H         1 UNK         0.0000 
     46 H46         1.9440   50.3811   24.0817 H         1 UNK         0.0000 
     47 H47         1.1580   49.0000   23.3713 H         1 UNK         0.0000 
     48 H48         0.0524   49.7553   25.5174 H         1 UNK         0.0000 
     49 H49        -1.0363   49.7229   24.1583 H         1 UNK         0.0000 
     50 H50         0.2403   52.1918   25.4160 H         1 UNK         0.0000 
     51 H51        -1.4495   51.7934   25.3655 H         1 UNK         0.0000 
     52 H52        -1.5476   52.1364   22.9298 H         1 UNK         0.0000 
     53 H53        -0.8629   53.5477   23.6817 H         1 UNK         0.0000 
     54 H54         4.6424   54.2321   20.8270 H         1 UNK         0.0000 
     55 H55         8.5813   55.3611   18.9143 H         1 UNK         0.0000 
     56 H56         8.0840   53.6967   18.8817 H         1 UNK         0.0000 
     57 H57         8.4837   54.3358   16.4717 H         1 UNK         0.0000 
     58 H58         6.7707   55.4392   15.3095 H         1 UNK         0.0000 
     59 H59         4.6604   55.6259   16.9099 H         1 UNK         0.0000 
     60 H60         5.4134   57.1572   16.5590 H         1 UNK         0.0000 
     61 H61         6.2757   53.7767   26.9775 H         1 UNK         0.0000 
     62 H62         6.1337   55.5224   26.9417 H         1 UNK         0.0000 
@<TRIPOS>BOND
     1    1    2 1    
     2    1   35 1    
     3    1   36 1    
     4    1   37 1    
     5    2    3 1    
     6    2   34 1    
     7    2    4 1    
     8    4    5 1    
     9    4   38 1    
    10    4   39 1    
    11    5    6 1    
    12    5   40 1    
    13    5   41 1    
    14    6   10 1    
    15    6    7 2    
    16    7    8 1    
    17    7   34 1    
    18    8    9 1    
    19    9   10 2    
    20    9   20 am   BACKBONE|DICT|INTERRES
    21   10   11 1    
    22   11   12 2    
    23   11   13 am   BACKBONE|DICT|INTERRES
    24   13   14 1    
    25   13   42 1    
    26   14   19 1    
    27   14   15 1    
    28   14   43 1    
    29   15   16 1    
    30   15   44 1    
    31   15   45 1    
    32   16   17 1    
    33   16   46 1    
    34   16   47 1    
    35   17   18 1    
    36   17   48 1    
    37   17   49 1    
    38   18   19 1    
    39   18   50 1    
    40   18   51 1    
    41   19   52 1    
    42   19   53 1    
    43   20   21 am   BACKBONE|DICT|INTERRES
    44   20   54 1    
    45   21   22 2    
    46   21   23 1    
    47   23   24 1    
    48   23   29 1    
    49   23   25 1    
    50   25   26 1    
    51   25   55 1    
    52   25   56 1    
    53   26   27 2    
    54   26   57 1    
    55   27   28 1    
    56   27   58 1    
    57   28   29 1    
    58   28   59 1    
    59   28   60 1    
    60   29   30 1    
    61   29   31 1    
    62   31   32 2    
    63   31   33 1    
    64   34   61 1    
    65   34   62 1    
@<TRIPOS>SUBSTRUCTURE
     1 UNK         1 GROUP             0       ****    0 ROOT    
