@<TRIPOS>MOLECULE
ZINC12589556_3111
67   69    1
SMALL
USER_CHARGES


@<TRIPOS>ATOM
      1 C1          6.9025   55.0566   24.9649 C.3       1 UNK         0.0000 
      2 C2          6.0576   54.6721   23.7659 C.ar      1 UNK         0.0000 
      3 C3          4.8010   54.0970   23.9510 C.ar      1 UNK         0.0000 
      4 C4          4.0505   53.6966   22.8494 C.ar      1 UNK         0.0000 
      5 C5          4.5625   53.8463   21.5529 C.ar      1 UNK         0.0000 
      6 C6          5.7858   54.4970   21.3723 C.ar      1 UNK         0.0000 
      7 C7          6.5397   54.8964   22.4757 C.ar      1 UNK         0.0000 
      8 N8          3.8999   53.3892   20.3911 N.pl3     1 UNK         0.0000 
      9 C9          3.0609   52.3203   20.1652 C.2       1 UNK         0.0000 
     10 S10         2.7043   51.0909   21.2337 S.2       1 UNK         0.0000 
     11 N11         2.4702   52.2069   18.9409 N.pl3     1 UNK         0.0000 
     12 N12         2.6274   53.1337   17.9100 N.pl3     1 UNK         0.0000 
     13 C13         2.3168   52.8542   16.6129 C.2       1 UNK         0.0000 
     14 S14         1.5045   51.5277   16.0033 S.2       1 UNK         0.0000 
     15 N15         2.8368   53.8063   15.7815 N.2       1 UNK         0.0000 
     16 P16         2.1734   55.2239   15.4261 P.3       1 UNK         0.0000 
     17 C17         3.3877   56.5356   16.0566 C.3       1 UNK         0.0000 
     18 C18         4.6298   56.4978   15.1336 C.3       1 UNK         0.0000 
     19 C19         3.8672   56.2046   17.4939 C.3       1 UNK         0.0000 
     20 C20         2.7931   57.9666   16.0050 C.3       1 UNK         0.0000 
     21 N21         2.0528   55.3027   13.7074 N.pl3     1 UNK         0.0000 
     22 C22         1.2889   56.4054   13.1053 C.3       1 UNK         0.0000 
     23 C23         1.7718   56.6664   11.6659 C.3       1 UNK         0.0000 
     24 O24         1.7470   55.4569   10.9080 O.3       1 UNK         0.0000 
     25 C25         2.5646   54.4196   11.4514 C.3       1 UNK         0.0000 
     26 C26         2.1399   54.0770   12.8942 C.3       1 UNK         0.0000 
     27 N27         0.5535   55.3448   16.0357 N.pl3     1 UNK         0.0000 
     28 C28         0.3014   55.8380   17.3873 C.3       1 UNK         0.0000 
     29 C29        -1.0657   56.5481   17.4584 C.3       1 UNK         0.0000 
     30 O30        -2.0969   55.6913   16.9676 O.3       1 UNK         0.0000 
     31 C31        -1.8856   55.2605   15.6190 C.3       1 UNK         0.0000 
     32 C32        -0.5346   54.5234   15.4798 C.3       1 UNK         0.0000 
     33 H33         6.4595   54.7257   25.9066 H         1 UNK         0.0000 
     34 H34         7.8888   54.5989   24.8814 H         1 UNK         0.0000 
     35 H35         7.0412   56.1364   24.9978 H         1 UNK         0.0000 
     36 H36         4.4079   53.9417   24.9455 H         1 UNK         0.0000 
     37 H37         3.0793   53.2610   23.0232 H         1 UNK         0.0000 
     38 H38         6.1834   54.6513   20.3791 H         1 UNK         0.0000 
     39 H39         7.5061   55.3571   22.3290 H         1 UNK         0.0000 
     40 H40         4.1849   53.8898   19.5641 H         1 UNK         0.0000 
     41 H41         2.2554   51.2874   18.5772 H         1 UNK         0.0000 
     42 H42         3.1886   53.9334   18.1516 H         1 UNK         0.0000 
     43 H43         4.3838   56.7569   14.1032 H         1 UNK         0.0000 
     44 H44         5.3949   57.2020   15.4635 H         1 UNK         0.0000 
     45 H45         5.0880   55.5078   15.1153 H         1 UNK         0.0000 
     46 H46         3.0584   56.0964   18.2100 H         1 UNK         0.0000 
     47 H47         4.4400   55.2766   17.5182 H         1 UNK         0.0000 
     48 H48         4.5275   56.9830   17.8791 H         1 UNK         0.0000 
     49 H49         1.8218   58.0599   16.4841 H         1 UNK         0.0000 
     50 H50         3.4520   58.6839   16.4980 H         1 UNK         0.0000 
     51 H51         2.6825   58.3295   14.9853 H         1 UNK         0.0000 
     52 H52         1.3752   57.3088   13.7017 H         1 UNK         0.0000 
     53 H53         0.2319   56.1392   13.0937 H         1 UNK         0.0000 
     54 H54         1.1439   57.4127   11.1782 H         1 UNK         0.0000 
     55 H55         2.7882   57.0655   11.6880 H         1 UNK         0.0000 
     56 H56         2.5030   53.5385   10.8128 H         1 UNK         0.0000 
     57 H57         3.6076   54.7429   11.4504 H         1 UNK         0.0000 
     58 H58         1.1726   53.5746   12.8954 H         1 UNK         0.0000 
     59 H59         2.8651   53.3837   13.3204 H         1 UNK         0.0000 
     60 H60         0.3227   54.9971   18.0815 H         1 UNK         0.0000 
     61 H61         1.0795   56.5272   17.6820 H         1 UNK         0.0000 
     62 H62        -1.0319   57.4625   16.8624 H         1 UNK         0.0000 
     63 H63        -1.2966   56.8440   18.4812 H         1 UNK         0.0000 
     64 H64        -1.8954   56.1272   14.9548 H         1 UNK         0.0000 
     65 H65        -2.7080   54.6126   15.3143 H         1 UNK         0.0000 
     66 H66        -0.3426   54.2790   14.4364 H         1 UNK         0.0000 
     67 H67        -0.5879   53.5843   16.0280 H         1 UNK         0.0000 
@<TRIPOS>BOND
     1    1    2 1    
     2    1   33 1    
     3    1   34 1    
     4    1   35 1    
     5    2    7 ar   
     6    2    3 ar   
     7    3    4 ar   
     8    3   36 1    
     9    4    5 ar   
    10    4   37 1    
    11    5    6 ar   
    12    5    8 1    
    13    6    7 ar   
    14    6   38 1    
    15    7   39 1    
    16    8    9 1    
    17    8   40 1    
    18    9   10 2    
    19    9   11 1    
    20   11   12 1    
    21   11   41 1    
    22   12   13 1    
    23   12   42 1    
    24   13   14 2    
    25   13   15 1    
    26   15   16 2    
    27   16   17 1    
    28   16   21 1    
    29   16   27 1    
    30   17   18 1    
    31   17   19 1    
    32   17   20 1    
    33   18   43 1    
    34   18   44 1    
    35   18   45 1    
    36   19   46 1    
    37   19   47 1    
    38   19   48 1    
    39   20   49 1    
    40   20   50 1    
    41   20   51 1    
    42   21   26 1    
    43   21   22 1    
    44   22   23 1    
    45   22   52 1    
    46   22   53 1    
    47   23   24 1    
    48   23   54 1    
    49   23   55 1    
    50   24   25 1    
    51   25   26 1    
    52   25   56 1    
    53   25   57 1    
    54   26   58 1    
    55   26   59 1    
    56   27   32 1    
    57   27   28 1    
    58   28   29 1    
    59   28   60 1    
    60   28   61 1    
    61   29   30 1    
    62   29   62 1    
    63   29   63 1    
    64   30   31 1    
    65   31   32 1    
    66   31   64 1    
    67   31   65 1    
    68   32   66 1    
    69   32   67 1    
@<TRIPOS>SUBSTRUCTURE
     1 UNK         1 GROUP             0       ****    0 ROOT    
