@<TRIPOS>MOLECULE
ZINC54946451_231
65   66    1
SMALL
USER_CHARGES


@<TRIPOS>ATOM
      1 C1          2.9351   54.3057   23.7926 C.3       1 UNK         0.0000 
      2 C2          3.8602   54.1969   25.0019 C.ar      1 UNK         0.0000 
      3 C3          3.2849   53.8190   26.2173 C.ar      1 UNK         0.0000 
      4 C4          4.0292   53.7386   27.4040 C.ar      1 UNK         0.0000 
      5 C5          5.3895   54.0887   27.3390 C.ar      1 UNK         0.0000 
      6 C6          5.9866   54.4598   26.1336 C.ar      1 UNK         0.0000 
      7 C7          5.2398   54.4966   24.9545 C.ar      1 UNK         0.0000 
      8 N8          5.9046   54.8879   23.7781 N.am      1 UNK         0.0000 
      9 C9          5.8919   54.2080   22.6094 C.2       1 UNK         0.0000 
     10 O10         5.5045   53.0384   22.4819 O.2       1 UNK         0.0000 
     11 C11         6.3032   55.0417   21.4430 C.2       1 UNK         0.0000 
     12 O12         6.9367   56.0963   21.5387 O.2       1 UNK         0.0000 
     13 N13         5.8540   54.5388   20.2768 N.am      1 UNK         0.0000 
     14 C14         5.8745   55.2090   18.9757 C.3       1 UNK         0.0000 
     15 C15         5.1214   54.4366   17.8280 C.3       1 UNK         0.0000 
     16 C16         4.2291   53.2614   18.3210 C.3       1 UNK         0.0000 
     17 C17         4.1622   55.4106   17.0912 C.3       1 UNK         0.0000 
     18 N18         6.1428   53.8236   16.8024 N.4       1 UNK         0.0000 
     19 C19         7.2164   52.8950   17.4550 C.3       1 UNK         0.0000 
     20 C20         8.0653   52.2081   16.3618 C.3       1 UNK         0.0000 
     21 H21         7.3970   51.5992   15.7520 H         1 UNK         0.0000 
     22 C22         8.7204   53.2804   15.4729 C.3       1 UNK         0.0000 
     23 C23         7.6758   54.1711   14.7808 C.3       1 UNK         0.0000 
     24 H24         8.2338   54.9609   14.2745 H         1 UNK         0.0000 
     25 C25         6.7849   54.8684   15.8362 C.3       1 UNK         0.0000 
     26 C26         6.8541   53.4341   13.7012 C.3       1 UNK         0.0000 
     27 C27         9.1319   51.2831   16.9731 C.3       1 UNK         0.0000 
     28 N28         3.4137   53.3319   28.6221 N.pl3     1 UNK         0.0000 
     29 C29         2.1407   52.6049   28.5879 C.3       1 UNK         0.0000 
     30 C30         4.2201   53.1826   29.8305 C.3       1 UNK         0.0000 
     31 H31         1.9328   54.6144   24.0917 H         1 UNK         0.0000 
     32 H32         3.2716   55.0572   23.0824 H         1 UNK         0.0000 
     33 H33         2.8632   53.3471   23.2818 H         1 UNK         0.0000 
     34 H34         2.2324   53.5889   26.2205 H         1 UNK         0.0000 
     35 H35         6.0133   54.0643   28.2190 H         1 UNK         0.0000 
     36 H36         7.0389   54.7006   26.1240 H         1 UNK         0.0000 
     37 H37         6.3494   55.7946   23.7800 H         1 UNK         0.0000 
     38 H38         5.3422   53.6686   20.3300 H         1 UNK         0.0000 
     39 H39         6.9071   55.4358   18.7069 H         1 UNK         0.0000 
     40 H40         5.4147   56.1909   19.1191 H         1 UNK         0.0000 
     41 H41         3.4312   53.6179   18.9748 H         1 UNK         0.0000 
     42 H42         3.7516   52.7401   17.4905 H         1 UNK         0.0000 
     43 H43         4.7717   52.5033   18.8836 H         1 UNK         0.0000 
     44 H44         3.3393   55.7137   17.7416 H         1 UNK         0.0000 
     45 H45         4.6557   56.3342   16.7846 H         1 UNK         0.0000 
     46 H46         3.7142   54.9558   16.2062 H         1 UNK         0.0000 
     47 H47         6.7050   52.1141   18.0189 H         1 UNK         0.0000 
     48 H48         7.8262   53.4899   18.1360 H         1 UNK         0.0000 
     49 H49         9.3507   52.7916   14.7267 H         1 UNK         0.0000 
     50 H50         9.4101   53.8841   16.0676 H         1 UNK         0.0000 
     51 H51         7.3310   55.5934   16.4410 H         1 UNK         0.0000 
     52 H52         5.9749   55.3641   15.3023 H         1 UNK         0.0000 
     53 H53         6.2068   52.6655   14.1241 H         1 UNK         0.0000 
     54 H54         7.5053   52.9516   12.9719 H         1 UNK         0.0000 
     55 H55         6.2161   54.1264   13.1511 H         1 UNK         0.0000 
     56 H56         9.8943   51.8554   17.5020 H         1 UNK         0.0000 
     57 H57         8.7045   50.5756   17.6841 H         1 UNK         0.0000 
     58 H58         9.6392   50.7021   16.2015 H         1 UNK         0.0000 
     59 H59         2.2485   51.6848   28.0119 H         1 UNK         0.0000 
     60 H60         1.7956   52.3275   29.5858 H         1 UNK         0.0000 
     61 H61         1.3540   53.1994   28.1232 H         1 UNK         0.0000 
     62 H62         4.9963   52.4298   29.6804 H         1 UNK         0.0000 
     63 H63         4.7043   54.1282   30.0804 H         1 UNK         0.0000 
     64 H64         3.6222   52.8764   30.6908 H         1 UNK         0.0000 
     65 H65         5.5927   53.2086   16.2159 H         1 UNK         0.0000 
@<TRIPOS>BOND
     1    1    2 1    
     2    1   31 1    
     3    1   32 1    
     4    1   33 1    
     5    2    7 ar   
     6    2    3 ar   
     7    3    4 ar   
     8    3   34 1    
     9    4    5 ar   
    10    4   28 1    
    11    5    6 ar   
    12    5   35 1    
    13    6    7 ar   
    14    6   36 1    
    15    7    8 1    
    16    8    9 am   BACKBONE|DICT|INTERRES
    17    8   37 1    
    18    9   10 2    
    19    9   11 1    
    20   11   12 2    
    21   11   13 am   BACKBONE|DICT|INTERRES
    22   13   14 1    
    23   13   38 1    
    24   14   15 1    
    25   14   39 1    
    26   14   40 1    
    27   15   16 1    
    28   15   17 1    
    29   15   18 1    
    30   16   41 1    
    31   16   42 1    
    32   16   43 1    
    33   17   44 1    
    34   17   45 1    
    35   17   46 1    
    36   18   25 1    
    37   18   19 1    
    38   18   65 1    
    39   19   20 1    
    40   19   47 1    
    41   19   48 1    
    42   20   21 1    
    43   20   22 1    
    44   20   27 1    
    45   22   23 1    
    46   22   49 1    
    47   22   50 1    
    48   23   24 1    
    49   23   25 1    
    50   23   26 1    
    51   25   51 1    
    52   25   52 1    
    53   26   53 1    
    54   26   54 1    
    55   26   55 1    
    56   27   56 1    
    57   27   57 1    
    58   27   58 1    
    59   28   29 1    
    60   28   30 1    
    61   29   59 1    
    62   29   60 1    
    63   29   61 1    
    64   30   62 1    
    65   30   63 1    
    66   30   64 1    
@<TRIPOS>SUBSTRUCTURE
     1 UNK         1 GROUP             0       ****    0 ROOT    
