@<TRIPOS>MOLECULE
ZINC02265060_2847
61   65    1
SMALL
USER_CHARGES


@<TRIPOS>ATOM
      1 C1          7.6122   49.8792   12.9490 C.3       1 UNK         0.0000 
      2 C2          7.5202   51.3896   13.1997 C.3       1 UNK         0.0000 
      3 C3          7.0453   51.7212   14.6257 C.3       1 UNK         0.0000 
      4 C4          6.9289   53.2250   14.9054 C.3       1 UNK         0.0000 
      5 O5          6.4761   53.3692   16.2439 O.3       1 UNK         0.0000 
      6 C6          6.5097   54.5629   16.8814 C.2       1 UNK         0.0000 
      7 O7          6.9392   55.6024   16.3741 O.2       1 UNK         0.0000 
      8 C8          6.0461   54.4669   18.3055 C.ar      1 UNK         0.0000 
      9 C9          5.3843   53.3267   18.7834 C.ar      1 UNK         0.0000 
     10 C10         5.0093   53.2281   20.1192 C.ar      1 UNK         0.0000 
     11 C11         5.2968   54.2741   21.0002 C.ar      1 UNK         0.0000 
     12 C12         5.9038   55.4386   20.5185 C.ar      1 UNK         0.0000 
     13 C13         6.2803   55.5322   19.1828 C.ar      1 UNK         0.0000 
     14 N14         4.9419   54.1737   22.3734 N.pl3     1 UNK         0.0000 
     15 C15         5.7580   54.4899   23.4649 C.ar      1 UNK         0.0000 
     16 C16         5.0779   54.3153   24.6799 C.ar      1 UNK         0.0000 
     17 C17         3.7822   53.8181   24.2888 C.ar      1 UNK         0.0000 
     18 C18         3.7400   53.7032   22.8796 C.ar      1 UNK         0.0000 
     19 N19         2.6714   53.2360   22.2239 N.ar      1 UNK         0.0000 
     20 C20         1.5967   52.8306   22.9548 C.ar      1 UNK         0.0000 
     21 C21         0.4634   52.2823   22.3139 C.ar      1 UNK         0.0000 
     22 C22        -0.6248   51.8591   23.0773 C.ar      1 UNK         0.0000 
     23 C23        -0.6064   51.9663   24.4666 C.ar      1 UNK         0.0000 
     24 C24         0.5001   52.4969   25.1258 C.ar      1 UNK         0.0000 
     25 C25         1.6143   52.9408   24.3759 C.ar      1 UNK         0.0000 
     26 N26         2.7078   53.4547   25.0033 N.ar      1 UNK         0.0000 
     27 C27         5.6152   54.5997   25.9968 C.2       1 UNK         0.0000 
     28 O28         6.6472   55.2522   26.1722 O.2       1 UNK         0.0000 
     29 N29         4.8617   54.0967   26.9872 N.am      1 UNK         0.0000 
     30 C30         5.0080   54.3309   28.4187 C.3       1 UNK         0.0000 
     31 C31         3.6316   54.2672   29.0505 C.2       1 UNK         0.0000 
     32 C32         2.7123   55.2910   29.2996 C.2       1 UNK         0.0000 
     33 C33         1.5111   54.8621   29.8741 C.2       1 UNK         0.0000 
     34 C34         1.4809   53.4934   30.0801 C.2       1 UNK         0.0000 
     35 S35         2.9476   52.7396   29.5554 S.3       1 UNK         0.0000 
     36 N36         7.0577   54.8743   23.2568 N.pl3     1 UNK         0.0000 
     37 H37         7.9591   49.6719   11.9384 H         1 UNK         0.0000 
     38 H38         6.6410   49.3985   13.0732 H         1 UNK         0.0000 
     39 H39         8.3091   49.3987   13.6397 H         1 UNK         0.0000 
     40 H40         8.4979   51.8450   13.0253 H         1 UNK         0.0000 
     41 H41         6.8384   51.8341   12.4730 H         1 UNK         0.0000 
     42 H42         6.0766   51.2508   14.8054 H         1 UNK         0.0000 
     43 H43         7.7412   51.2922   15.3484 H         1 UNK         0.0000 
     44 H44         7.8998   53.7065   14.7732 H         1 UNK         0.0000 
     45 H45         6.2207   53.6949   14.2205 H         1 UNK         0.0000 
     46 H46         5.1541   52.4970   18.1294 H         1 UNK         0.0000 
     47 H47         4.5210   52.3237   20.4555 H         1 UNK         0.0000 
     48 H48         6.0893   56.2734   21.1773 H         1 UNK         0.0000 
     49 H49         6.7640   56.4381   18.8388 H         1 UNK         0.0000 
     50 H50         0.4526   52.1922   21.2378 H         1 UNK         0.0000 
     51 H51        -1.4894   51.4409   22.5843 H         1 UNK         0.0000 
     52 H52        -1.4537   51.6232   25.0422 H         1 UNK         0.0000 
     53 H53         0.5180   52.5686   26.2044 H         1 UNK         0.0000 
     54 H54         4.0833   53.5158   26.7180 H         1 UNK         0.0000 
     55 H55         5.6662   53.5685   28.8370 H         1 UNK         0.0000 
     56 H56         5.4822   55.2929   28.6167 H         1 UNK         0.0000 
     57 H57         2.9060   56.3272   29.0667 H         1 UNK         0.0000 
     58 H58         0.7007   55.5290   30.1303 H         1 UNK         0.0000 
     59 H59         0.6814   52.9045   30.5060 H         1 UNK         0.0000 
     60 H60         7.6907   55.0574   24.0262 H         1 UNK         0.0000 
     61 H61         7.4734   54.8977   22.3344 H         1 UNK         0.0000 
@<TRIPOS>BOND
     1    1    2 1    
     2    1   37 1    
     3    1   38 1    
     4    1   39 1    
     5    2    3 1    
     6    2   40 1    
     7    2   41 1    
     8    3    4 1    
     9    3   42 1    
    10    3   43 1    
    11    4    5 1    
    12    4   44 1    
    13    4   45 1    
    14    5    6 1    
    15    6    7 2    
    16    6    8 1    
    17    8   13 ar   
    18    8    9 ar   
    19    9   10 ar   
    20    9   46 1    
    21   10   11 ar   
    22   10   47 1    
    23   11   12 ar   
    24   11   14 1    
    25   12   13 ar   
    26   12   48 1    
    27   13   49 1    
    28   14   18 ar   
    29   14   15 ar   
    30   15   16 ar   
    31   15   36 1    
    32   16   17 ar   
    33   16   27 1    
    34   17   26 ar   
    35   17   18 ar   
    36   18   19 ar   
    37   19   20 ar   
    38   20   25 ar   
    39   20   21 ar   
    40   21   22 ar   
    41   21   50 1    
    42   22   23 ar   
    43   22   51 1    
    44   23   24 ar   
    45   23   52 1    
    46   24   25 ar   
    47   24   53 1    
    48   25   26 ar   
    49   27   28 2    
    50   27   29 am   BACKBONE|DICT|INTERRES
    51   29   30 1    
    52   29   54 1    
    53   30   31 1    
    54   30   55 1    
    55   30   56 1    
    56   31   35 1    
    57   31   32 2    
    58   32   33 1    
    59   32   57 1    
    60   33   34 2    
    61   33   58 1    
    62   34   35 1    
    63   34   59 1    
    64   36   60 1    
    65   36   61 1    
@<TRIPOS>SUBSTRUCTURE
     1 UNK         1 GROUP             0       ****    0 ROOT    
