@<TRIPOS>MOLECULE
ZINC66346537_2581
45   47    1
SMALL
USER_CHARGES


@<TRIPOS>ATOM
      1 C1         -3.0369   45.3755   19.8391 C.3       1 UNK         0.0000 
      2 C2         -2.5192   45.7106   21.2309 C.2       1 UNK         0.0000 
      3 O3         -2.4833   44.8241   22.0827 O.2       1 UNK         0.0000 
      4 N4         -2.1154   46.9865   21.4014 N.am      1 UNK         0.0000 
      5 C5         -1.6057   47.6159   22.5513 C.ar      1 UNK         0.0000 
      6 C6         -1.8238   47.1703   23.8642 C.ar      1 UNK         0.0000 
      7 C7         -1.2948   47.8849   24.9411 C.ar      1 UNK         0.0000 
      8 C8         -0.5588   49.0509   24.7188 C.ar      1 UNK         0.0000 
      9 C9         -0.3249   49.4795   23.4034 C.ar      1 UNK         0.0000 
     10 C10        -0.8594   48.7739   22.3313 C.ar      1 UNK         0.0000 
     11 N11        -0.0593   49.7321   25.8480 N.am      1 UNK         0.0000 
     12 C12         0.2084   51.0523   25.9439 C.2       1 UNK         0.0000 
     13 O13        -0.0750   51.8880   25.0822 O.2       1 UNK         0.0000 
     14 N14         0.8196   51.3720   27.0993 N.am      1 UNK         0.0000 
     15 C15         1.2128   52.7324   27.5055 C.3       1 UNK         0.0000 
     16 H16         0.4678   53.4008   27.0777 H         1 UNK         0.0000 
     17 C17         2.5516   53.2292   26.9127 C.ar      1 UNK         0.0000 
     18 C18         3.7311   53.3007   27.6729 C.ar      1 UNK         0.0000 
     19 C19         4.8953   53.8393   27.1339 C.ar      1 UNK         0.0000 
     20 C20         4.8964   54.3131   25.8263 C.ar      1 UNK         0.0000 
     21 C21         3.7433   54.2346   25.0492 C.ar      1 UNK         0.0000 
     22 C22         2.5789   53.6972   25.5921 C.ar      1 UNK         0.0000 
     23 Cl23        6.3327   55.0090   25.1704 Cl        1 UNK         0.0000 
     24 C24         1.0951   52.8692   29.0152 C.2       1 UNK         0.0000 
     25 C25         1.7727   52.0991   29.9726 C.2       1 UNK         0.0000 
     26 C26         1.4769   52.4446   31.2821 C.2       1 UNK         0.0000 
     27 S27         0.3049   53.7061   31.3712 S.3       1 UNK         0.0000 
     28 C28         0.2627   53.7825   29.6478 C.2       1 UNK         0.0000 
     29 H29        -3.6741   46.1755   19.4563 H         1 UNK         0.0000 
     30 H30        -3.6245   44.4556   19.8590 H         1 UNK         0.0000 
     31 H31        -2.2011   45.2331   19.1510 H         1 UNK         0.0000 
     32 H32        -2.1140   47.5616   20.5736 H         1 UNK         0.0000 
     33 H33        -2.4136   46.2903   24.0659 H         1 UNK         0.0000 
     34 H34        -1.4714   47.5422   25.9532 H         1 UNK         0.0000 
     35 H35         0.2690   50.3577   23.1956 H         1 UNK         0.0000 
     36 H36        -0.6737   49.1330   21.3287 H         1 UNK         0.0000 
     37 H37        -0.0563   49.1923   26.7038 H         1 UNK         0.0000 
     38 H38         1.1972   50.6205   27.6537 H         1 UNK         0.0000 
     39 H39         3.7714   52.9625   28.6930 H         1 UNK         0.0000 
     40 H40         5.7912   53.8983   27.7348 H         1 UNK         0.0000 
     41 H41         3.7464   54.5983   24.0325 H         1 UNK         0.0000 
     42 H42         1.6882   53.6675   24.9824 H         1 UNK         0.0000 
     43 H43         2.4613   51.3138   29.7002 H         1 UNK         0.0000 
     44 H44         1.8543   52.0051   32.1948 H         1 UNK         0.0000 
     45 H45        -0.3858   54.4964   29.1686 H         1 UNK         0.0000 
@<TRIPOS>BOND
     1    1    2 1    
     2    1   29 1    
     3    1   30 1    
     4    1   31 1    
     5    2    3 2    
     6    2    4 am   BACKBONE|DICT|INTERRES
     7    4    5 1    
     8    4   32 1    
     9    5   10 ar   
    10    5    6 ar   
    11    6    7 ar   
    12    6   33 1    
    13    7    8 ar   
    14    7   34 1    
    15    8    9 ar   
    16    8   11 1    
    17    9   10 ar   
    18    9   35 1    
    19   10   36 1    
    20   11   12 am   BACKBONE|DICT|INTERRES
    21   11   37 1    
    22   12   13 2    
    23   12   14 am   BACKBONE|DICT|INTERRES
    24   14   15 1    
    25   14   38 1    
    26   15   16 1    
    27   15   17 1    
    28   15   24 1    
    29   17   22 ar   
    30   17   18 ar   
    31   18   19 ar   
    32   18   39 1    
    33   19   20 ar   
    34   19   40 1    
    35   20   21 ar   
    36   20   23 1    
    37   21   22 ar   
    38   21   41 1    
    39   22   42 1    
    40   24   28 2    
    41   24   25 1    
    42   25   26 2    
    43   25   43 1    
    44   26   27 1    
    45   26   44 1    
    46   27   28 1    
    47   28   45 1    
@<TRIPOS>SUBSTRUCTURE
     1 UNK         1 GROUP             0       ****    0 ROOT    
