@<TRIPOS>MOLECULE
ZINC03318397_5373
65   68    1
SMALL
USER_CHARGES


@<TRIPOS>ATOM
      1 C1          0.7112   52.8573   31.3789 C.3       1 UNK         0.0000 
      2 C2          1.6264   53.1128   30.1952 C.ar      1 UNK         0.0000 
      3 C3          2.8839   52.5046   30.1296 C.ar      1 UNK         0.0000 
      4 C4          3.7139   52.7393   29.0333 C.ar      1 UNK         0.0000 
      5 C5          3.2972   53.5962   28.0045 C.ar      1 UNK         0.0000 
      6 C6          2.0391   54.2057   28.0812 C.ar      1 UNK         0.0000 
      7 C7          1.2048   53.9623   29.1695 C.ar      1 UNK         0.0000 
      8 N8          4.1413   53.8495   26.8897 N.pl3     1 UNK         0.0000 
      9 C9          5.4739   54.2357   26.9533 C.ar      1 UNK         0.0000 
     10 C10         5.9132   54.4095   25.6566 C.ar      1 UNK         0.0000 
     11 C11         4.8933   54.0968   24.7527 C.ar      1 UNK         0.0000 
     12 C12         3.7898   53.7474   25.5429 C.ar      1 UNK         0.0000 
     13 C13         2.4061   53.2863   25.1018 C.3       1 UNK         0.0000 
     14 C14         4.9909   54.0967   23.2943 C.2       1 UNK         0.0000 
     15 N15         5.9045   54.7562   22.7048 N.2       1 UNK         0.0000 
     16 N16         5.8481   54.6487   21.3631 N.am      1 UNK         0.0000 
     17 C17         6.5873   55.4278   20.5436 C.2       1 UNK         0.0000 
     18 O18         7.1044   56.4965   20.8823 O.2       1 UNK         0.0000 
     19 C19         6.8182   54.8823   19.1575 C.ar      1 UNK         0.0000 
     20 C20         5.8803   54.0440   18.5302 C.ar      1 UNK         0.0000 
     21 C21         6.1385   53.5231   17.2637 C.ar      1 UNK         0.0000 
     22 C22         7.3246   53.8368   16.6004 C.ar      1 UNK         0.0000 
     23 C23         8.2657   54.6678   17.2142 C.ar      1 UNK         0.0000 
     24 C24         8.0105   55.1899   18.4848 C.ar      1 UNK         0.0000 
     25 S25         9.8075   55.0709   16.4009 S.o2      1 UNK         0.0000 
     26 O26         9.7121   54.6672   14.9928 O.2       1 UNK         0.0000 
     27 O27        10.1419   56.4505   16.7745 O.2       1 UNK         0.0000 
     28 N28        11.0346   54.0550   17.1736 N.pl3     1 UNK         0.0000 
     29 C29        11.3595   52.7462   16.7816 C.ar      1 UNK         0.0000 
     30 C30        12.6375   52.2713   17.0882 C.ar      1 UNK         0.0000 
     31 C31        13.0076   50.9745   16.7354 C.ar      1 UNK         0.0000 
     32 C32        12.1116   50.1493   16.0565 C.ar      1 UNK         0.0000 
     33 C33        10.8274   50.6172   15.7589 C.ar      1 UNK         0.0000 
     34 C34        10.4527   51.9081   16.1233 C.ar      1 UNK         0.0000 
     35 O35        12.5240   48.8777   15.7303 O.3       1 UNK         0.0000 
     36 C36        12.3238   48.4820   14.3765 C.3       1 UNK         0.0000 
     37 C37         6.2388   54.4316   28.2424 C.3       1 UNK         0.0000 
     38 H38        -0.3048   52.6427   31.0378 H         1 UNK         0.0000 
     39 H39         0.6624   53.7386   32.0217 H         1 UNK         0.0000 
     40 H40         1.0313   52.0009   31.9761 H         1 UNK         0.0000 
     41 H41         3.2195   51.8589   30.9297 H         1 UNK         0.0000 
     42 H42         4.6726   52.2423   28.9876 H         1 UNK         0.0000 
     43 H43         1.6961   54.8703   27.2999 H         1 UNK         0.0000 
     44 H44         0.2302   54.4310   29.2174 H         1 UNK         0.0000 
     45 H45         6.9127   54.7139   25.3745 H         1 UNK         0.0000 
     46 H46         2.4047   52.8841   24.0873 H         1 UNK         0.0000 
     47 H47         2.0162   52.4932   25.7404 H         1 UNK         0.0000 
     48 H48         1.6834   54.0996   25.1184 H         1 UNK         0.0000 
     49 H49         4.2248   53.5064   22.7973 H         1 UNK         0.0000 
     50 H50         5.2836   53.8907   21.0034 H         1 UNK         0.0000 
     51 H51         4.9426   53.7846   19.0069 H         1 UNK         0.0000 
     52 H52         5.4192   52.8626   16.7996 H         1 UNK         0.0000 
     53 H53         7.5061   53.4304   15.6159 H         1 UNK         0.0000 
     54 H54         8.7511   55.8270   18.9533 H         1 UNK         0.0000 
     55 H55        11.5222   54.4564   17.9603 H         1 UNK         0.0000 
     56 H56        13.3495   52.8998   17.6058 H         1 UNK         0.0000 
     57 H57        13.9957   50.6081   16.9756 H         1 UNK         0.0000 
     58 H58        10.1147   49.9829   15.2529 H         1 UNK         0.0000 
     59 H59         9.4554   52.2427   15.8893 H         1 UNK         0.0000 
     60 H60        12.7601   47.4937   14.2241 H         1 UNK         0.0000 
     61 H61        11.2664   48.4187   14.1125 H         1 UNK         0.0000 
     62 H62        12.8158   49.1713   13.6860 H         1 UNK         0.0000 
     63 H63         7.2051   54.8942   28.0498 H         1 UNK         0.0000 
     64 H64         5.7057   55.0722   28.9437 H         1 UNK         0.0000 
     65 H65         6.4598   53.4939   28.7468 H         1 UNK         0.0000 
@<TRIPOS>BOND
     1    1    2 1    
     2    1   38 1    
     3    1   39 1    
     4    1   40 1    
     5    2    7 ar   
     6    2    3 ar   
     7    3    4 ar   
     8    3   41 1    
     9    4    5 ar   
    10    4   42 1    
    11    5    6 ar   
    12    5    8 1    
    13    6    7 ar   
    14    6   43 1    
    15    7   44 1    
    16    8   12 ar   
    17    8    9 ar   
    18    9   10 ar   
    19    9   37 1    
    20   10   11 ar   
    21   10   45 1    
    22   11   12 ar   
    23   11   14 1    
    24   12   13 1    
    25   13   46 1    
    26   13   47 1    
    27   13   48 1    
    28   14   15 2    
    29   14   49 1    
    30   15   16 1    
    31   16   17 am   BACKBONE|DICT|INTERRES
    32   16   50 1    
    33   17   18 2    
    34   17   19 1    
    35   19   24 ar   
    36   19   20 ar   
    37   20   21 ar   
    38   20   51 1    
    39   21   22 ar   
    40   21   52 1    
    41   22   23 ar   
    42   22   53 1    
    43   23   24 ar   
    44   23   25 1    
    45   24   54 1    
    46   25   26 2    
    47   25   27 2    
    48   25   28 1    
    49   28   29 1    
    50   28   55 1    
    51   29   34 ar   
    52   29   30 ar   
    53   30   31 ar   
    54   30   56 1    
    55   31   32 ar   
    56   31   57 1    
    57   32   33 ar   
    58   32   35 1    
    59   33   34 ar   
    60   33   58 1    
    61   34   59 1    
    62   35   36 1    
    63   36   60 1    
    64   36   61 1    
    65   36   62 1    
    66   37   63 1    
    67   37   64 1    
    68   37   65 1    
@<TRIPOS>SUBSTRUCTURE
     1 UNK         1 GROUP             0       ****    0 ROOT    
