@<TRIPOS>MOLECULE
ZINC16125287_2400
55   58    1
SMALL
USER_CHARGES


@<TRIPOS>ATOM
      1 C1          3.6042   53.9412   23.6447 C.3       1 UNK         0.0000 
      2 C2          4.0532   54.0975   25.0861 C.ar      1 UNK         0.0000 
      3 C3          5.4117   54.1742   25.4019 C.ar      1 UNK         0.0000 
      4 C4          5.8165   54.3060   26.7297 C.ar      1 UNK         0.0000 
      5 C5          4.8702   54.3803   27.7565 C.ar      1 UNK         0.0000 
      6 C6          3.5034   54.3130   27.4397 C.ar      1 UNK         0.0000 
      7 C7          3.1045   54.1584   26.1081 C.ar      1 UNK         0.0000 
      8 N8          2.5228   54.4275   28.4439 N.pl3     1 UNK         0.0000 
      9 C9          1.9609   55.5930   28.9028 C.ar      1 UNK         0.0000 
     10 C10         1.1081   55.2246   29.9266 C.ar      1 UNK         0.0000 
     11 N11         1.1106   53.9191   30.1067 N.2       1 UNK         0.0000 
     12 C12         1.9467   53.4343   29.2142 C.ar      1 UNK         0.0000 
     13 S13         2.2839   51.7060   29.0784 S.3       1 UNK         0.0000 
     14 C14         1.3260   51.3730   27.5621 C.3       1 UNK         0.0000 
     15 C15        -0.1995   51.5795   27.6590 C.2       1 UNK         0.0000 
     16 O16        -0.7128   51.6964   28.7737 O.2       1 UNK         0.0000 
     17 N17        -0.9379   51.6445   26.5163 N.am      1 UNK         0.0000 
     18 C18        -2.3325   51.8104   26.4475 C.ar      1 UNK         0.0000 
     19 C19        -3.3265   51.4005   27.3437 C.ar      1 UNK         0.0000 
     20 C20        -4.6621   51.6922   27.0678 C.ar      1 UNK         0.0000 
     21 C21        -5.0026   52.3635   25.8882 C.ar      1 UNK         0.0000 
     22 C22        -4.0133   52.6806   24.9516 C.ar      1 UNK         0.0000 
     23 C23        -2.6837   52.3499   25.2139 C.ar      1 UNK         0.0000 
     24 C24        -1.4421   52.5943   24.4088 C.3       1 UNK         0.0000 
     25 C25        -0.3576   51.8152   25.1697 C.3       1 UNK         0.0000 
     26 H26         0.5544   52.4100   25.1492 H         1 UNK         0.0000 
     27 C27        -0.0723   50.4360   24.5347 C.3       1 UNK         0.0000 
     28 S28        -6.6901   52.8501   25.5748 S.o2      1 UNK         0.0000 
     29 O29        -6.6598   54.2916   25.3159 O.2       1 UNK         0.0000 
     30 O30        -7.5293   52.2764   26.6309 O.2       1 UNK         0.0000 
     31 N31        -7.1121   52.0628   24.0818 N.pl3     1 UNK         0.0000 
     32 C32         5.3510   54.4966   29.1928 C.3       1 UNK         0.0000 
     33 H33         4.4147   53.5945   23.0023 H         1 UNK         0.0000 
     34 H34         2.8048   53.2026   23.5755 H         1 UNK         0.0000 
     35 H35         3.2215   54.8871   23.2589 H         1 UNK         0.0000 
     36 H36         6.1568   54.1199   24.6215 H         1 UNK         0.0000 
     37 H37         6.8710   54.3472   26.9607 H         1 UNK         0.0000 
     38 H38         2.0537   54.1013   25.8617 H         1 UNK         0.0000 
     39 H39         2.2307   56.5495   28.4823 H         1 UNK         0.0000 
     40 H40         0.5053   55.8840   30.5343 H         1 UNK         0.0000 
     41 H41         1.4989   50.3340   27.2845 H         1 UNK         0.0000 
     42 H42         1.7594   51.9846   26.7808 H         1 UNK         0.0000 
     43 H43        -3.0741   50.8846   28.2607 H         1 UNK         0.0000 
     44 H44        -5.4220   51.4128   27.7833 H         1 UNK         0.0000 
     45 H45        -4.2863   53.1810   24.0342 H         1 UNK         0.0000 
     46 H46        -1.5057   52.3111   23.3570 H         1 UNK         0.0000 
     47 H47        -1.2010   53.6588   24.4209 H         1 UNK         0.0000 
     48 H48         0.3599   50.5519   23.5405 H         1 UNK         0.0000 
     49 H49         0.6268   49.8445   25.1265 H         1 UNK         0.0000 
     50 H50        -0.9871   49.8533   24.4124 H         1 UNK         0.0000 
     51 H51        -7.8571   51.3675   24.1544 H         1 UNK         0.0000 
     52 H52        -7.1446   52.6647   23.2487 H         1 UNK         0.0000 
     53 H53         6.3601   54.0926   29.2798 H         1 UNK         0.0000 
     54 H54         5.3606   55.5294   29.5393 H         1 UNK         0.0000 
     55 H55         4.7042   53.9204   29.8582 H         1 UNK         0.0000 
@<TRIPOS>BOND
     1    1    2 1    
     2    1   33 1    
     3    1   34 1    
     4    1   35 1    
     5    2    7 ar   
     6    2    3 ar   
     7    3    4 ar   
     8    3   36 1    
     9    4    5 ar   
    10    4   37 1    
    11    5    6 ar   
    12    5   32 1    
    13    6    7 ar   
    14    6    8 1    
    15    7   38 1    
    16    8   12 ar   
    17    8    9 ar   
    18    9   10 ar   
    19    9   39 1    
    20   10   11 ar   
    21   10   40 1    
    22   11   12 ar   
    23   12   13 1    
    24   13   14 1    
    25   14   15 1    
    26   14   41 1    
    27   14   42 1    
    28   15   16 2    
    29   15   17 am   BACKBONE|DICT|INTERRES
    30   17   25 1    
    31   17   18 1    
    32   18   23 ar   
    33   18   19 ar   
    34   19   20 ar   
    35   19   43 1    
    36   20   21 ar   
    37   20   44 1    
    38   21   22 ar   
    39   21   28 1    
    40   22   23 ar   
    41   22   45 1    
    42   23   24 1    
    43   24   25 1    
    44   24   46 1    
    45   24   47 1    
    46   25   26 1    
    47   25   27 1    
    48   27   48 1    
    49   27   49 1    
    50   27   50 1    
    51   28   29 2    
    52   28   30 2    
    53   28   31 1    
    54   31   51 1    
    55   31   52 1    
    56   32   53 1    
    57   32   54 1    
    58   32   55 1    
@<TRIPOS>SUBSTRUCTURE
     1 UNK         1 GROUP             0       ****    0 ROOT    
