@<TRIPOS>MOLECULE
ZINC36293381_2771
50   53    1
SMALL
USER_CHARGES


@<TRIPOS>ATOM
      1 C1          4.3675   54.0968   22.0379 C.ar      1 UNK         0.0000 
      2 C2          5.5120   54.5025   21.3608 C.ar      1 UNK         0.0000 
      3 C3          6.6338   54.9057   22.0807 C.ar      1 UNK         0.0000 
      4 C4          6.6259   54.8947   23.4728 C.ar      1 UNK         0.0000 
      5 C5          5.4796   54.4927   24.1531 C.ar      1 UNK         0.0000 
      6 C6          4.3419   54.1015   23.4377 C.ar      1 UNK         0.0000 
      7 C7          3.0986   53.7021   24.1541 C.2       1 UNK         0.0000 
      8 N8          1.9647   53.3269   23.6150 N.2       1 UNK         0.0000 
      9 C9          1.2255   52.9284   24.6312 C.2       1 UNK         0.0000 
     10 C10         1.8845   53.1662   25.8347 C.2       1 UNK         0.0000 
     11 O11         3.0971   53.6795   25.5121 O.3       1 UNK         0.0000 
     12 N12         1.6004   53.0226   27.1594 N.pl3     1 UNK         0.0000 
     13 C13         2.1314   53.9471   28.1658 C.3       1 UNK         0.0000 
     14 C14         1.0609   54.2485   29.2318 C.3       1 UNK         0.0000 
     15 C15         0.3672   53.0194   29.8797 C.3       1 UNK         0.0000 
     16 C16         0.1423   51.8986   28.8298 C.3       1 UNK         0.0000 
     17 C17         1.2594   51.7343   27.7755 C.3       1 UNK         0.0000 
     18 C18         1.2651   52.4967   31.0274 C.2       1 UNK         0.0000 
     19 O19         2.4752   52.3302   30.8805 O.2       1 UNK         0.0000 
     20 N20         0.7046   52.2682   32.2135 N.am      1 UNK         0.0000 
     21 S21        -0.4110   52.2342   24.2963 S.o2      1 UNK         0.0000 
     22 O22        -0.8665   51.5267   25.4951 O.2       1 UNK         0.0000 
     23 O23        -1.2160   53.2966   23.6823 O.2       1 UNK         0.0000 
     24 C24        -0.0642   51.0220   23.0288 C.ar      1 UNK         0.0000 
     25 C25         1.0115   50.1477   23.1978 C.ar      1 UNK         0.0000 
     26 C26         1.3724   49.2967   22.1606 C.ar      1 UNK         0.0000 
     27 C27         0.6315   49.2873   20.9812 C.ar      1 UNK         0.0000 
     28 C28        -0.4610   50.1369   20.8220 C.ar      1 UNK         0.0000 
     29 C29        -0.8081   51.0137   21.8463 C.ar      1 UNK         0.0000 
     30 F30         0.9714   48.4385   19.9863 F         1 UNK         0.0000 
     31 F31         7.7381   55.3169   21.4187 F         1 UNK         0.0000 
     32 H32         3.4988   53.7990   21.4669 H         1 UNK         0.0000 
     33 H33         5.5294   54.5124   20.2809 H         1 UNK         0.0000 
     34 H34         7.5036   55.2065   24.0178 H         1 UNK         0.0000 
     35 H35         5.4768   54.4928   25.2338 H         1 UNK         0.0000 
     36 H36         2.4126   54.8854   27.6843 H         1 UNK         0.0000 
     37 H37         3.0471   53.5386   28.5961 H         1 UNK         0.0000 
     38 H38         0.3045   54.8999   28.8101 H         1 UNK         0.0000 
     39 H39         1.4305   54.9315   29.9988 H         1 UNK         0.0000 
     40 H40        -0.5557   53.3022   30.3878 H         1 UNK         0.0000 
     41 H41        -0.0924   50.9493   29.3171 H         1 UNK         0.0000 
     42 H42        -0.8274   52.0423   28.3504 H         1 UNK         0.0000 
     43 H43         0.9381   51.0262   27.0130 H         1 UNK         0.0000 
     44 H44         2.1572   51.2962   28.2144 H         1 UNK         0.0000 
     45 H45        -0.3055   52.1442   32.3623 H         1 UNK         0.0000 
     46 H46         1.3113   52.0755   32.9998 H         1 UNK         0.0000 
     47 H47         1.5904   50.1535   24.1104 H         1 UNK         0.0000 
     48 H48         2.2212   48.6376   22.2738 H         1 UNK         0.0000 
     49 H49        -1.0253   50.1219   19.9014 H         1 UNK         0.0000 
     50 H50        -1.6380   51.6924   21.7142 H         1 UNK         0.0000 
@<TRIPOS>BOND
     1    1    6 ar   
     2    1    2 ar   
     3    1   32 1    
     4    2    3 ar   
     5    2   33 1    
     6    3    4 ar   
     7    3   31 1    
     8    4    5 ar   
     9    4   34 1    
    10    5    6 ar   
    11    5   35 1    
    12    6    7 1    
    13    7   11 1    
    14    7    8 2    
    15    8    9 1    
    16    9   10 2    
    17    9   21 1    
    18   10   11 1    
    19   10   12 1    
    20   12   17 1    
    21   12   13 1    
    22   13   14 1    
    23   13   36 1    
    24   13   37 1    
    25   14   15 1    
    26   14   38 1    
    27   14   39 1    
    28   15   16 1    
    29   15   18 1    
    30   15   40 1    
    31   16   17 1    
    32   16   41 1    
    33   16   42 1    
    34   17   43 1    
    35   17   44 1    
    36   18   19 2    
    37   18   20 am   BACKBONE|DICT|INTERRES
    38   20   45 1    
    39   20   46 1    
    40   21   22 2    
    41   21   23 2    
    42   21   24 1    
    43   24   29 ar   
    44   24   25 ar   
    45   25   26 ar   
    46   25   47 1    
    47   26   27 ar   
    48   26   48 1    
    49   27   28 ar   
    50   27   30 1    
    51   28   29 ar   
    52   28   49 1    
    53   29   50 1    
@<TRIPOS>SUBSTRUCTURE
     1 UNK         1 GROUP             0       ****    0 ROOT    
