ZINC22801116_618
                    3D
 Schrodinger Suite 2024-2.
 57 59  0  0  1  0            999 V2000
    2.5801   51.9780   17.4247 C   0  0  0  0  0  0
    3.1287   53.3904   17.6391 C   0  0  2  0  0  0
    2.3224   54.0570   17.9576 H   0  0  0  0  0  0
    3.7151   53.8638   16.2867 C   0  0  0  0  0  0
    4.9111   53.7032   16.0398 O   0  0  0  0  0  0
    2.8384   54.4322   15.4321 N   0  0  0  0  0  0
    3.0681   54.9739   14.0840 C   0  0  0  0  0  0
    4.3650   55.6756   13.7324 C   0  0  0  0  0  0
    4.0533   54.3214   13.1361 C   0  0  0  0  0  0
    4.2190   53.5406   18.7460 N   0  3  0  0  0  0
    4.5314   55.0317   19.0424 C   0  0  0  0  0  0
    5.5800   55.1395   20.1742 C   0  0  0  0  0  0
    5.1158   54.4968   21.4148 N   0  0  0  0  0  0
    4.9169   53.0603   21.1277 C   0  0  0  0  0  0
    3.8183   52.8358   20.0646 C   0  0  0  0  0  0
    6.1192   54.7164   22.4874 C   0  0  0  0  0  0
    5.5842   54.4897   23.9212 C   0  0  0  0  0  0
    6.3888   54.5424   24.8495 O   0  0  0  0  0  0
    4.2639   54.2282   24.0654 N   0  0  0  0  0  0
    3.5257   53.9053   25.2185 C   0  0  0  0  0  0
    2.2802   53.3062   25.0066 C   0  0  0  0  0  0
    1.4879   52.8966   26.0845 C   0  0  0  0  0  0
    1.9467   53.1134   27.3884 C   0  0  0  0  0  0
    3.1822   53.7267   27.6230 C   0  0  0  0  0  0
    3.9660   54.1218   26.5329 C   0  0  0  0  0  0
    3.6482   53.9423   29.0596 C   0  0  0  0  0  0
    3.6903   52.7762   29.7074 F   0  0  0  0  0  0
    4.8570   54.4996   29.1263 F   0  0  0  0  0  0
    2.7883   54.7496   29.6822 F   0  0  0  0  0  0
    0.1384   52.2170   25.8438 C   0  0  0  0  0  0
   -0.7248   52.4965   26.8226 F   0  0  0  0  0  0
   -0.4061   52.6032   24.6867 F   0  0  0  0  0  0
    0.3150   50.8961   25.8048 F   0  0  0  0  0  0
    1.8852   51.9411   16.5838 H   0  0  0  0  0  0
    3.4083   51.2967   17.2254 H   0  0  0  0  0  0
    2.0445   51.6287   18.3075 H   0  0  0  0  0  0
    1.8822   54.4957   15.7441 H   0  0  0  0  0  0
    2.1542   55.3779   13.6402 H   0  0  0  0  0  0
    5.1509   55.7620   14.4847 H   0  0  0  0  0  0
    4.3150   56.5612   13.0959 H   0  0  0  0  0  0
    3.7894   54.2590   12.0803 H   0  0  0  0  0  0
    4.6104   53.4445   13.4701 H   0  0  0  0  0  0
    4.9471   55.4621   18.1275 H   0  0  0  0  0  0
    3.5827   55.5139   19.2812 H   0  0  0  0  0  0
    6.5127   54.6651   19.8550 H   0  0  0  0  0  0
    5.7806   56.1985   20.3476 H   0  0  0  0  0  0
    4.6422   52.5155   22.0322 H   0  0  0  0  0  0
    5.8511   52.6332   20.7593 H   0  0  0  0  0  0
    2.8424   53.2185   20.3658 H   0  0  0  0  0  0
    3.7630   51.7713   19.8301 H   0  0  0  0  0  0
    7.0041   54.0980   22.3337 H   0  0  0  0  0  0
    6.4945   55.7395   22.4471 H   0  0  0  0  0  0
    3.7517   54.2160   23.1936 H   0  0  0  0  0  0
    1.9379   53.1316   23.9952 H   0  0  0  0  0  0
    1.3398   52.7992   28.2268 H   0  0  0  0  0  0
    4.9179   54.5954   26.7204 H   0  0  0  0  0  0
    5.0681   53.0977   18.4094 H   0  0  0  0  0  0
  1  2  1  0  0  0
  1 34  1  0  0  0
  1 35  1  0  0  0
  1 36  1  0  0  0
  2  3  1  0  0  0
  2  4  1  0  0  0
  2 10  1  0  0  0
  4  5  2  0  0  0
  4  6  1  0  0  0
  6  7  1  0  0  0
  6 37  1  0  0  0
  7  9  1  0  0  0
  7  8  1  0  0  0
  7 38  1  0  0  0
  8  9  1  0  0  0
  8 39  1  0  0  0
  8 40  1  0  0  0
  9 41  1  0  0  0
  9 42  1  0  0  0
 10 15  1  0  0  0
 10 11  1  0  0  0
 10 57  1  0  0  0
 11 12  1  0  0  0
 11 43  1  0  0  0
 11 44  1  0  0  0
 12 13  1  0  0  0
 12 45  1  0  0  0
 12 46  1  0  0  0
 13 14  1  0  0  0
 13 16  1  0  0  0
 14 15  1  0  0  0
 14 47  1  0  0  0
 14 48  1  0  0  0
 15 49  1  0  0  0
 15 50  1  0  0  0
 16 17  1  0  0  0
 16 51  1  0  0  0
 16 52  1  0  0  0
 17 18  2  0  0  0
 17 19  1  0  0  0
 19 20  1  0  0  0
 19 53  1  0  0  0
 20 25  2  0  0  0
 20 21  1  0  0  0
 21 22  2  0  0  0
 21 54  1  0  0  0
 22 23  1  0  0  0
 22 30  1  0  0  0
 23 24  2  0  0  0
 23 55  1  0  0  0
 24 25  1  0  0  0
 24 26  1  0  0  0
 25 56  1  0  0  0
 26 27  1  0  0  0
 26 28  1  0  0  0
 26 29  1  0  0  0
 30 31  1  0  0  0
 30 32  1  0  0  0
 30 33  1  0  0  0
M  CHG  1  10   1
M  END
> <i_i_glide_confnum>
41

> <i_i_glide_lignum>
619

> <i_i_glide_posenum>
312

> <i_i_glide_rotatable_bonds>
10

> <i_m_Source_File_Index>
966

> <b_m_subgroup_collapsed>
0

> <r_i_docking_score>
-4.40798

> <r_i_glide_ecoul>
-1.7038

> <r_i_glide_eff_state_penalty>
0

> <r_i_glide_einternal>
6.33075

> <r_i_glide_emodel>
-43.5155

> <r_i_glide_energy>
-33.7086

> <r_i_glide_erotb>
0.646603

> <r_i_glide_esite>
-0.0765374

> <r_i_glide_evdw>
-32.0048

> <r_i_glide_gscore>
-4.40798

> <r_i_glide_hbond>
0

> <r_i_glide_ligand_efficiency>
-0.137749

> <r_i_glide_ligand_efficiency_ln>
-0.987067

> <r_i_glide_ligand_efficiency_sa>
-0.437327

> <r_i_glide_lipo>
-1.9446

> <r_i_glide_metal>
0

> <r_i_glide_rewards>
-1.17764

> <s_i_glide_gridfile>
wee1_glide-grid

> <s_m_Source_File>
wee1_decoys_glide_SP.sdf

> <s_m_Source_Path>
/Users/zhangxujun/Desktop

> <s_m_entry_id>
1241

> <s_m_entry_name>
wee1_decoys_glide_SP.966

> <s_m_subgroup_title>
wee1_decoys_glide_SP

> <s_m_subgroupid>
wee1_decoys_glide_SP


$$$$
