@<TRIPOS>MOLECULE
ZINC39531944_4076
76   80    1
SMALL
USER_CHARGES


@<TRIPOS>ATOM
      1 C1          1.2342   51.9821   32.1190 C.3       1 UNK         0.0000 
      2 C2          1.6634   52.3202   30.7090 C.ar      1 UNK         0.0000 
      3 C3          0.7693   52.1255   29.6551 C.ar      1 UNK         0.0000 
      4 C4          1.1164   52.4075   28.3354 C.ar      1 UNK         0.0000 
      5 C5          2.3995   52.9166   28.1192 C.ar      1 UNK         0.0000 
      6 N6          3.0412   53.2820   26.9609 N.pl3     1 UNK         0.0000 
      7 C7          4.3033   53.7817   27.2022 C.ar      1 UNK         0.0000 
      8 H8          2.6804   53.1898   26.0239 H         1 UNK         0.0000 
      9 C9          4.5204   53.6525   28.5688 C.ar      1 UNK         0.0000 
     10 C10         3.3325   53.1250   29.1722 C.ar      1 UNK         0.0000 
     11 C11         2.9582   52.7879   30.4790 C.ar      1 UNK         0.0000 
     12 C12         5.2824   54.1375   26.1877 C.2       1 UNK         0.0000 
     13 O13         6.4773   54.0817   26.4971 O.2       1 UNK         0.0000 
     14 N14         4.8740   54.4791   24.9258 N.am      1 UNK         0.0000 
     15 C15         3.4750   54.7171   24.4817 C.3       1 UNK         0.0000 
     16 C16         3.1373   53.7044   23.3796 C.3       1 UNK         0.0000 
     17 C17         4.1082   53.8727   22.1862 C.3       1 UNK         0.0000 
     18 C18         5.5375   53.6418   22.7553 C.3       1 UNK         0.0000 
     19 C19         5.9053   54.6430   23.8737 C.3       1 UNK         0.0000 
     20 C20         3.6653   52.9966   20.9689 C.3       1 UNK         0.0000 
     21 H21         2.5736   53.0539   20.9533 H         1 UNK         0.0000 
     22 C22         4.0760   51.4962   20.9771 C.3       1 UNK         0.0000 
     23 C23         2.8816   50.5542   20.8515 C.ar      1 UNK         0.0000 
     24 C24         1.9714   50.4277   21.9062 C.ar      1 UNK         0.0000 
     25 C25         0.8601   49.5999   21.7754 C.ar      1 UNK         0.0000 
     26 C26         0.6616   48.8957   20.5902 C.ar      1 UNK         0.0000 
     27 C27         1.5778   48.9945   19.5454 C.ar      1 UNK         0.0000 
     28 C28         2.6891   49.8209   19.6816 C.ar      1 UNK         0.0000 
     29 N29         3.8971   53.7003   19.5943 N.4       1 UNK         0.0000 
     30 C30         3.2667   52.9492   18.3961 C.3       1 UNK         0.0000 
     31 C31         5.3178   54.1869   19.2306 C.3       1 UNK         0.0000 
     32 C32         5.3209   55.4588   18.3966 C.2       1 UNK         0.0000 
     33 C33         4.3119   56.2303   17.9461 C.2       1 UNK         0.0000 
     34 N34         4.8246   57.3826   17.3475 N.pl3     1 UNK         0.0000 
     35 N35         6.1833   57.1141   16.9953 N.3       1 UNK         0.0000 
     36 C36         6.5942   56.1720   18.0082 C.3       1 UNK         0.0000 
     37 H37         6.9692   56.7336   18.8664 H         1 UNK         0.0000 
     38 C38         7.7199   55.2477   17.5137 C.3       1 UNK         0.0000 
     39 C39         4.0299   58.0653   16.3404 C.3       1 UNK         0.0000 
     40 H40         0.3062   51.4196   32.1399 H         1 UNK         0.0000 
     41 H41         1.0943   52.8860   32.7109 H         1 UNK         0.0000 
     42 H42         1.9888   51.3586   32.5966 H         1 UNK         0.0000 
     43 H43        -0.2179   51.7357   29.8623 H         1 UNK         0.0000 
     44 H44         0.4186   52.2395   27.5277 H         1 UNK         0.0000 
     45 H45         5.4508   53.9043   29.0581 H         1 UNK         0.0000 
     46 H46         3.6589   52.8960   31.2934 H         1 UNK         0.0000 
     47 H47         2.7281   54.8499   25.2579 H         1 UNK         0.0000 
     48 H48         3.4335   55.6818   23.9979 H         1 UNK         0.0000 
     49 H49         3.1060   52.6858   23.7598 H         1 UNK         0.0000 
     50 H50         2.1168   53.8988   23.0437 H         1 UNK         0.0000 
     51 H51         4.0428   54.9174   21.8797 H         1 UNK         0.0000 
     52 H52         6.2976   53.7179   21.9929 H         1 UNK         0.0000 
     53 H53         5.6681   52.6251   23.1156 H         1 UNK         0.0000 
     54 H54         5.9048   55.6673   23.5068 H         1 UNK         0.0000 
     55 H55         6.9209   54.4350   24.2170 H         1 UNK         0.0000 
     56 H56         4.8256   51.2911   20.2120 H         1 UNK         0.0000 
     57 H57         4.5610   51.2258   21.9105 H         1 UNK         0.0000 
     58 H58         2.1178   50.9662   22.8284 H         1 UNK         0.0000 
     59 H59         0.1562   49.5040   22.5893 H         1 UNK         0.0000 
     60 H60        -0.2025   48.2553   20.4868 H         1 UNK         0.0000 
     61 H61         1.4355   48.4358   18.6324 H         1 UNK         0.0000 
     62 H62         3.4062   49.8827   18.8804 H         1 UNK         0.0000 
     63 H63         3.9000   52.0940   18.1620 H         1 UNK         0.0000 
     64 H64         2.2577   52.6413   18.6729 H         1 UNK         0.0000 
     65 H65         3.2366   53.6370   17.5511 H         1 UNK         0.0000 
     66 H66         5.8264   54.4324   20.1519 H         1 UNK         0.0000 
     67 H67         5.8361   53.3534   18.7510 H         1 UNK         0.0000 
     68 H68         3.2453   56.0997   18.0719 H         1 UNK         0.0000 
     69 H69         6.6655   57.9879   17.1594 H         1 UNK         0.0000 
     70 H70         8.0547   54.5708   18.2994 H         1 UNK         0.0000 
     71 H71         7.3925   54.6396   16.6685 H         1 UNK         0.0000 
     72 H72         8.5907   55.8205   17.1910 H         1 UNK         0.0000 
     73 H73         3.0381   58.2998   16.7278 H         1 UNK         0.0000 
     74 H74         4.5030   59.0082   16.0564 H         1 UNK         0.0000 
     75 H75         3.9175   57.4485   15.4488 H         1 UNK         0.0000 
     76 H76         3.3518   54.5504   19.6815 H         1 UNK         0.0000 
@<TRIPOS>BOND
     1    1   40 1    
     2    1   41 1    
     3    1   42 1    
     4    1    2 1    
     5    2    3 ar   
     6    2   11 ar   
     7    3    4 ar   
     8    3   43 1    
     9    4    5 ar   
    10    4   44 1    
    11    5    6 ar   
    12    5   10 ar   
    13    6    8 1    
    14    6    7 ar   
    15    7    9 ar   
    16    7   12 1    
    17    9   10 ar   
    18    9   45 1    
    19   10   11 ar   
    20   11   46 1    
    21   12   13 2    
    22   12   14 am   BACKBONE|DICT|INTERRES
    23   14   19 1    
    24   14   15 1    
    25   15   16 1    
    26   15   47 1    
    27   15   48 1    
    28   16   17 1    
    29   16   49 1    
    30   16   50 1    
    31   17   18 1    
    32   17   20 1    
    33   17   51 1    
    34   18   19 1    
    35   18   52 1    
    36   18   53 1    
    37   19   54 1    
    38   19   55 1    
    39   20   21 1    
    40   20   22 1    
    41   20   29 1    
    42   22   23 1    
    43   22   56 1    
    44   22   57 1    
    45   23   28 ar   
    46   23   24 ar   
    47   24   25 ar   
    48   24   58 1    
    49   25   26 ar   
    50   25   59 1    
    51   26   27 ar   
    52   26   60 1    
    53   27   28 ar   
    54   27   61 1    
    55   28   62 1    
    56   29   30 1    
    57   29   31 1    
    58   29   76 1    
    59   30   63 1    
    60   30   64 1    
    61   30   65 1    
    62   31   32 1    
    63   31   66 1    
    64   31   67 1    
    65   32   36 1    
    66   32   33 2    
    67   33   34 1    
    68   33   68 1    
    69   34   35 1    
    70   34   39 1    
    71   35   36 1    
    72   35   69 1    
    73   36   37 1    
    74   36   38 1    
    75   38   70 1    
    76   38   71 1    
    77   38   72 1    
    78   39   73 1    
    79   39   74 1    
    80   39   75 1    
@<TRIPOS>SUBSTRUCTURE
     1 UNK         1 GROUP             0       ****    0 ROOT    
