@<TRIPOS>MOLECULE
ZINC38905309_5454
56   59    1
SMALL
USER_CHARGES


@<TRIPOS>ATOM
      1 C1          0.5613   49.1886   26.2075 C.3       1 UNK         0.0000 
      2 O2          0.2625   49.9478   25.0410 O.3       1 UNK         0.0000 
      3 C3         -0.8444   50.7795   25.0349 C.ar      1 UNK         0.0000 
      4 C4         -1.8041   50.8007   26.0617 C.ar      1 UNK         0.0000 
      5 C5         -2.8590   51.7143   26.0376 C.ar      1 UNK         0.0000 
      6 C6         -2.9859   52.6359   24.9909 C.ar      1 UNK         0.0000 
      7 C7         -2.0481   52.5942   23.9490 C.ar      1 UNK         0.0000 
      8 C8         -0.9992   51.6722   23.9564 C.ar      1 UNK         0.0000 
      9 N9         -0.0616   51.7385   22.9123 N.am      1 UNK         0.0000 
     10 C10         0.3159   50.7102   22.1177 C.2       1 UNK         0.0000 
     11 O11        -0.2503   49.6155   22.1211 O.2       1 UNK         0.0000 
     12 C12         1.5345   50.9101   21.1792 C.3       1 UNK         0.0000 
     13 H13         2.2157   50.1354   21.5403 H         1 UNK         0.0000 
     14 C14         1.1404   50.6430   19.7085 C.3       1 UNK         0.0000 
     15 C15         2.4030   50.7526   18.8326 C.3       1 UNK         0.0000 
     16 C16         3.1070   52.1195   18.9789 C.3       1 UNK         0.0000 
     17 N17         3.4775   52.3779   20.4648 N.4       1 UNK         0.0000 
     18 C18         2.2154   52.2949   21.3630 C.3       1 UNK         0.0000 
     19 C19         4.2177   53.7469   20.5760 C.3       1 UNK         0.0000 
     20 C20         4.7536   54.0421   21.9747 C.2       1 UNK         0.0000 
     21 N21         4.1156   54.0684   23.1115 N.2       1 UNK         0.0000 
     22 C22         5.0786   54.2781   23.9909 C.2       1 UNK         0.0000 
     23 N23         6.2856   54.4551   23.4824 N.2       1 UNK         0.0000 
     24 O24         6.0775   54.3111   22.1103 O.3       1 UNK         0.0000 
     25 C25         4.8097   54.2783   25.4726 C.ar      1 UNK         0.0000 
     26 C26         5.8502   54.4192   26.4049 C.ar      1 UNK         0.0000 
     27 C27         5.5840   54.3735   27.7725 C.ar      1 UNK         0.0000 
     28 C28         4.2757   54.1851   28.2170 C.ar      1 UNK         0.0000 
     29 C29         3.2337   54.0548   27.3053 C.ar      1 UNK         0.0000 
     30 C30         3.5002   54.1007   25.9405 C.ar      1 UNK         0.0000 
     31 Br31        3.9049   54.0968   30.0816 Br        1 UNK         0.0000 
     32 N32        -4.0692   53.6507   24.9967 N.pl3     1 UNK         0.0000 
     33 O33        -4.8677   53.6532   25.9312 O.co2     1 UNK         0.0000 
     34 O34        -4.0980   54.4761   24.0875 O.co2     1 UNK         0.0000 
     35 H35         1.4629   48.6002   26.0374 H         1 UNK         0.0000 
     36 H36         0.7520   49.8588   27.0477 H         1 UNK         0.0000 
     37 H37        -0.2374   48.4949   26.4701 H         1 UNK         0.0000 
     38 H38        -1.7444   50.1170   26.8971 H         1 UNK         0.0000 
     39 H39        -3.5640   51.7075   26.8579 H         1 UNK         0.0000 
     40 H40        -2.1306   53.2952   23.1300 H         1 UNK         0.0000 
     41 H41         0.3183   52.6500   22.7172 H         1 UNK         0.0000 
     42 H42         0.7495   49.6326   19.5689 H         1 UNK         0.0000 
     43 H43         0.4419   51.3945   19.3362 H         1 UNK         0.0000 
     44 H44         3.1010   49.9518   19.0830 H         1 UNK         0.0000 
     45 H45         2.1475   50.5890   17.7830 H         1 UNK         0.0000 
     46 H46         4.0391   52.0975   18.4123 H         1 UNK         0.0000 
     47 H47         2.4819   52.9489   18.6362 H         1 UNK         0.0000 
     48 H48         1.5810   53.1403   21.0774 H         1 UNK         0.0000 
     49 H49         2.5523   52.3689   22.3957 H         1 UNK         0.0000 
     50 H50         5.0290   53.6886   19.8509 H         1 UNK         0.0000 
     51 H51         3.5054   54.4994   20.2352 H         1 UNK         0.0000 
     52 H52         6.8711   54.5457   26.0744 H         1 UNK         0.0000 
     53 H53         6.3865   54.4778   28.4886 H         1 UNK         0.0000 
     54 H54         2.2214   53.9138   27.6557 H         1 UNK         0.0000 
     55 H55         2.6733   53.9868   25.2535 H         1 UNK         0.0000 
     56 H56         4.1152   51.6419   20.7355 H         1 UNK         0.0000 
@<TRIPOS>BOND
     1    1    2 1    
     2    1   35 1    
     3    1   36 1    
     4    1   37 1    
     5    2    3 1    
     6    3    8 ar   
     7    3    4 ar   
     8    4    5 ar   
     9    4   38 1    
    10    5    6 ar   
    11    5   39 1    
    12    6    7 ar   
    13    6   32 1    
    14    7    8 ar   
    15    7   40 1    
    16    8    9 1    
    17    9   10 am   BACKBONE|DICT|INTERRES
    18    9   41 1    
    19   10   11 2    
    20   10   12 1    
    21   12   13 1    
    22   12   18 1    
    23   12   14 1    
    24   14   15 1    
    25   14   42 1    
    26   14   43 1    
    27   15   16 1    
    28   15   44 1    
    29   15   45 1    
    30   16   17 1    
    31   16   46 1    
    32   16   47 1    
    33   17   18 1    
    34   17   19 1    
    35   17   56 1    
    36   18   48 1    
    37   18   49 1    
    38   19   20 1    
    39   19   50 1    
    40   19   51 1    
    41   20   24 1    
    42   20   21 2    
    43   21   22 1    
    44   22   23 2    
    45   22   25 1    
    46   23   24 1    
    47   25   30 ar   
    48   25   26 ar   
    49   26   27 ar   
    50   26   52 1    
    51   27   28 ar   
    52   27   53 1    
    53   28   29 ar   
    54   28   31 1    
    55   29   30 ar   
    56   29   54 1    
    57   30   55 1    
    58   32   33 2    
    59   32   34 1    
@<TRIPOS>SUBSTRUCTURE
     1 UNK         1 GROUP             0       ****    0 ROOT    
