@<TRIPOS>MOLECULE
ZINC36019575_1041
73   76    1
SMALL
USER_CHARGES


@<TRIPOS>ATOM
      1 C1         -6.3113   51.6449   29.9498 C.3       1 UNK         0.0000 
      2 C2         -5.4397   50.3867   29.7230 C.3       1 UNK         0.0000 
      3 C3         -4.6849   50.0745   31.0311 C.3       1 UNK         0.0000 
      4 C4         -6.3439   49.1794   29.3812 C.3       1 UNK         0.0000 
      5 N5         -4.4321   50.6034   28.6715 N.am      1 UNK         0.0000 
      6 C6         -4.6207   50.9666   27.3815 C.2       1 UNK         0.0000 
      7 O7         -5.7496   51.1918   26.9394 O.2       1 UNK         0.0000 
      8 N8         -3.4899   51.1657   26.6427 N.am      1 UNK         0.0000 
      9 C9         -2.1989   50.5559   27.0112 C.3       1 UNK         0.0000 
     10 C10        -1.0272   51.3943   26.4564 C.3       1 UNK         0.0000 
     11 N11        -1.1181   51.7696   25.0373 N.pl3     1 UNK         0.0000 
     12 C12        -2.4302   52.3787   24.7753 C.3       1 UNK         0.0000 
     13 C13        -3.6489   51.5533   25.2305 C.3       1 UNK         0.0000 
     14 C14        -0.0092   52.2601   24.3372 C.ar      1 UNK         0.0000 
     15 C15         1.0457   52.8607   25.0439 C.ar      1 UNK         0.0000 
     16 C16         2.1488   53.4024   24.3936 C.ar      1 UNK         0.0000 
     17 C17         2.2430   53.3404   22.9996 C.ar      1 UNK         0.0000 
     18 C18         1.2106   52.7449   22.2783 C.ar      1 UNK         0.0000 
     19 C19         0.0912   52.2027   22.9224 C.ar      1 UNK         0.0000 
     20 C20        -0.8919   51.4465   22.0620 C.2       1 UNK         0.0000 
     21 O21        -1.6945   52.0957   21.3859 O.2       1 UNK         0.0000 
     22 N22        -0.8358   50.0870   22.0579 N.am      1 UNK         0.0000 
     23 C23        -1.7922   49.2973   21.2593 C.3       1 UNK         0.0000 
     24 C24        -2.6194   48.4508   22.2539 C.3       1 UNK         0.0000 
     25 C25        -1.7310   47.5775   23.1615 C.3       1 UNK         0.0000 
     26 C26        -0.6172   48.4148   23.8205 C.3       1 UNK         0.0000 
     27 C27         0.1586   49.2866   22.8081 C.3       1 UNK         0.0000 
     28 N28         3.3185   53.8515   22.2533 N.am      1 UNK         0.0000 
     29 C29         4.5827   54.0967   22.6613 C.2       1 UNK         0.0000 
     30 O30         4.9844   53.9281   23.8143 O.2       1 UNK         0.0000 
     31 C31         5.5341   54.6267   21.6118 C.ar      1 UNK         0.0000 
     32 C32         6.7264   55.2394   22.0221 C.ar      1 UNK         0.0000 
     33 C33         7.6485   55.6963   21.0885 C.ar      1 UNK         0.0000 
     34 C34         7.3765   55.5717   19.7304 C.ar      1 UNK         0.0000 
     35 C35         6.1928   54.9764   19.3015 C.ar      1 UNK         0.0000 
     36 C36         5.2767   54.4983   20.2356 C.ar      1 UNK         0.0000 
     37 Cl37        8.5231   56.1441   18.5758 Cl        1 UNK         0.0000 
     38 H38        -6.9443   51.5401   30.8312 H         1 UNK         0.0000 
     39 H39        -6.9746   51.8378   29.1069 H         1 UNK         0.0000 
     40 H40        -5.6972   52.5325   30.0820 H         1 UNK         0.0000 
     41 H41        -4.0888   49.1677   30.9318 H         1 UNK         0.0000 
     42 H42        -4.0076   50.8799   31.3205 H         1 UNK         0.0000 
     43 H43        -5.3685   49.9165   31.8659 H         1 UNK         0.0000 
     44 H44        -5.7564   48.2722   29.2310 H         1 UNK         0.0000 
     45 H45        -7.0598   48.9769   30.1793 H         1 UNK         0.0000 
     46 H46        -6.9217   49.3474   28.4712 H         1 UNK         0.0000 
     47 H47        -3.4859   50.3963   28.9539 H         1 UNK         0.0000 
     48 H48        -2.0418   50.4969   28.0886 H         1 UNK         0.0000 
     49 H49        -2.1267   49.5694   26.5512 H         1 UNK         0.0000 
     50 H50        -0.0934   50.8598   26.6429 H         1 UNK         0.0000 
     51 H51        -1.0148   52.3291   27.0202 H         1 UNK         0.0000 
     52 H52        -2.5537   52.6799   23.7371 H         1 UNK         0.0000 
     53 H53        -2.4417   53.2968   25.3624 H         1 UNK         0.0000 
     54 H54        -3.6870   50.6635   24.6025 H         1 UNK         0.0000 
     55 H55        -4.5353   52.1679   25.0656 H         1 UNK         0.0000 
     56 H56         1.0132   52.9425   26.1197 H         1 UNK         0.0000 
     57 H57         2.9114   53.8739   24.9942 H         1 UNK         0.0000 
     58 H58         1.2888   52.6842   21.2000 H         1 UNK         0.0000 
     59 H59        -2.4117   49.9051   20.5975 H         1 UNK         0.0000 
     60 H60        -1.2124   48.6428   20.6058 H         1 UNK         0.0000 
     61 H61        -3.2441   49.1099   22.8596 H         1 UNK         0.0000 
     62 H62        -3.3127   47.8167   21.7020 H         1 UNK         0.0000 
     63 H63        -1.2888   46.7775   22.5675 H         1 UNK         0.0000 
     64 H64        -2.3366   47.0904   23.9275 H         1 UNK         0.0000 
     65 H65         0.0795   47.7608   24.3469 H         1 UNK         0.0000 
     66 H66        -1.0478   49.0536   24.5905 H         1 UNK         0.0000 
     67 H67         0.6592   48.6435   22.0833 H         1 UNK         0.0000 
     68 H68         0.9521   49.8724   23.2725 H         1 UNK         0.0000 
     69 H69         3.1197   54.0094   21.2766 H         1 UNK         0.0000 
     70 H70         6.9696   55.3360   23.0712 H         1 UNK         0.0000 
     71 H71         8.5808   56.1275   21.4240 H         1 UNK         0.0000 
     72 H72         5.9919   54.8710   18.2451 H         1 UNK         0.0000 
     73 H73         4.3810   54.0198   19.8661 H         1 UNK         0.0000 
@<TRIPOS>BOND
     1    1    2 1    
     2    1   38 1    
     3    1   39 1    
     4    1   40 1    
     5    2    3 1    
     6    2    4 1    
     7    2    5 1    
     8    3   41 1    
     9    3   42 1    
    10    3   43 1    
    11    4   44 1    
    12    4   45 1    
    13    4   46 1    
    14    5    6 am   BACKBONE|DICT|INTERRES
    15    5   47 1    
    16    6    7 2    
    17    6    8 am   BACKBONE|DICT|INTERRES
    18    8   13 1    
    19    8    9 1    
    20    9   10 1    
    21    9   48 1    
    22    9   49 1    
    23   10   11 1    
    24   10   50 1    
    25   10   51 1    
    26   11   12 1    
    27   11   14 1    
    28   12   13 1    
    29   12   52 1    
    30   12   53 1    
    31   13   54 1    
    32   13   55 1    
    33   14   19 ar   
    34   14   15 ar   
    35   15   16 ar   
    36   15   56 1    
    37   16   17 ar   
    38   16   57 1    
    39   17   18 ar   
    40   17   28 1    
    41   18   19 ar   
    42   18   58 1    
    43   19   20 1    
    44   20   21 2    
    45   20   22 am   BACKBONE|DICT|INTERRES
    46   22   27 1    
    47   22   23 1    
    48   23   24 1    
    49   23   59 1    
    50   23   60 1    
    51   24   25 1    
    52   24   61 1    
    53   24   62 1    
    54   25   26 1    
    55   25   63 1    
    56   25   64 1    
    57   26   27 1    
    58   26   65 1    
    59   26   66 1    
    60   27   67 1    
    61   27   68 1    
    62   28   29 am   BACKBONE|DICT|INTERRES
    63   28   69 1    
    64   29   30 2    
    65   29   31 1    
    66   31   36 ar   
    67   31   32 ar   
    68   32   33 ar   
    69   32   70 1    
    70   33   34 ar   
    71   33   71 1    
    72   34   35 ar   
    73   34   37 1    
    74   35   36 ar   
    75   35   72 1    
    76   36   73 1    
@<TRIPOS>SUBSTRUCTURE
     1 UNK         1 GROUP             0       ****    0 ROOT    
