@<TRIPOS>MOLECULE
ZINC13598343_1836
35   37    1
SMALL
USER_CHARGES


@<TRIPOS>ATOM
      1 C1          6.5694   54.3319   23.1170 C.3       1 UNK         0.0000 
      2 C2          5.2012   54.1730   23.7563 C.2       1 UNK         0.0000 
      3 C3          4.0086   54.0032   23.0288 C.2       1 UNK         0.0000 
      4 S4          2.6176   53.9264   24.0790 S.3       1 UNK         0.0000 
      5 C5          3.6049   54.1352   25.4705 C.ar      1 UNK         0.0000 
      6 C6          4.9533   54.2650   25.1447 C.ar      1 UNK         0.0000 
      7 C7          5.8999   54.4992   26.2427 C.ar      1 UNK         0.0000 
      8 N8          5.2670   54.4968   27.4525 N.pl3     1 UNK         0.0000 
      9 C9          3.9151   54.3773   27.7005 C.ar      1 UNK         0.0000 
     10 N10         3.0843   54.1998   26.7287 N.2       1 UNK         0.0000 
     11 C11         3.4461   54.5310   29.1503 C.3       1 UNK         0.0000 
     12 H12         4.2073   55.0993   29.6836 H         1 UNK         0.0000 
     13 C13         2.1505   55.3705   29.2769 C.3       1 UNK         0.0000 
     14 S14         3.4052   52.9002   29.9776 S.3       1 UNK         0.0000 
     15 C15         1.8785   52.2724   29.3625 C.ar      1 UNK         0.0000 
     16 N16         1.7814   51.6944   28.1704 N.2       1 UNK         0.0000 
     17 C17         0.5310   51.3204   28.1324 C.ar      1 UNK         0.0000 
     18 N18        -0.0939   51.6971   29.2813 N.pl3     1 UNK         0.0000 
     19 H19        -1.0519   51.4994   29.5316 H         1 UNK         0.0000 
     20 N20         0.7746   52.3155   30.0827 N.2       1 UNK         0.0000 
     21 N21        -0.0975   50.6386   27.1350 N.pl3     1 UNK         0.0000 
     22 O22         7.1043   54.7127   26.1991 O.2       1 UNK         0.0000 
     23 C23         3.8081   53.9132   21.5337 C.3       1 UNK         0.0000 
     24 H24         6.5313   54.5363   22.0481 H         1 UNK         0.0000 
     25 H25         7.1098   55.1709   23.5547 H         1 UNK         0.0000 
     26 H26         7.1972   53.4570   23.2848 H         1 UNK         0.0000 
     27 H27         2.2846   56.3752   28.8746 H         1 UNK         0.0000 
     28 H28         1.3087   54.9185   28.7517 H         1 UNK         0.0000 
     29 H29         1.8579   55.4832   30.3208 H         1 UNK         0.0000 
     30 H30         0.4047   50.4642   26.2781 H         1 UNK         0.0000 
     31 H31        -0.7122   49.8699   27.4073 H         1 UNK         0.0000 
     32 H32         3.5514   54.8876   21.1159 H         1 UNK         0.0000 
     33 H33         4.6965   53.5588   21.0109 H         1 UNK         0.0000 
     34 H34         2.9996   53.2302   21.2695 H         1 UNK         0.0000 
     35 H35         5.8951   54.6472   28.2266 H         1 UNK         0.0000 
@<TRIPOS>BOND
     1    1    2 1    
     2    1   24 1    
     3    1   25 1    
     4    1   26 1    
     5    2    6 1    
     6    2    3 2    
     7    3    4 1    
     8    3   23 1    
     9    4    5 1    
    10    5   10 ar   
    11    5    6 ar   
    12    6    7 ar   
    13    7    8 ar   
    14    7   22 2    
    15    8    9 ar   
    16    8   35 1    
    17    9   10 ar   
    18    9   11 1    
    19   11   12 1    
    20   11   13 1    
    21   11   14 1    
    22   13   27 1    
    23   13   28 1    
    24   13   29 1    
    25   14   15 1    
    26   15   20 ar   
    27   15   16 ar   
    28   16   17 ar   
    29   17   18 ar   
    30   17   21 1    
    31   18   19 1    
    32   18   20 ar   
    33   21   30 1    
    34   21   31 1    
    35   23   32 1    
    36   23   33 1    
    37   23   34 1    
@<TRIPOS>SUBSTRUCTURE
     1 UNK         1 GROUP             0       ****    0 ROOT    
