@<TRIPOS>MOLECULE
ZINC66859927_4714
40   43    1
SMALL
USER_CHARGES


@<TRIPOS>ATOM
      1 C1          1.0482   49.5050   22.4702 C.ar      1 UNK         0.0000 
      2 C2          0.3328   50.3492   23.3073 C.ar      1 UNK         0.0000 
      3 C3          0.7980   51.6382   23.5458 C.ar      1 UNK         0.0000 
      4 C4          1.9887   52.1176   22.9728 C.ar      1 UNK         0.0000 
      5 C5          2.6899   51.2616   22.0816 C.ar      1 UNK         0.0000 
      6 C6          2.2116   49.9638   21.8613 C.ar      1 UNK         0.0000 
      7 C7          3.9321   51.7302   21.3233 C.3       1 UNK         0.0000 
      8 C8          4.6281   52.9251   21.9908 C.3       1 UNK         0.0000 
      9 C9          3.5967   54.0068   22.3351 C.3       1 UNK         0.0000 
     10 C10         2.5209   53.5252   23.3436 C.3       1 UNK         0.0000 
     11 C11         3.0751   53.5906   24.8059 C.3       1 UNK         0.0000 
     12 N12         2.1149   53.3000   25.8777 N.pl3     1 UNK         0.0000 
     13 C13         2.4488   53.4235   27.2365 C.ar      1 UNK         0.0000 
     14 C14         1.5519   52.9451   28.2129 C.ar      1 UNK         0.0000 
     15 C15         0.2739   52.2862   28.2472 C.ar      1 UNK         0.0000 
     16 C16        -0.0416   52.0972   29.5811 C.ar      1 UNK         0.0000 
     17 N17         0.9675   52.6032   30.3679 N.pl3     1 UNK         0.0000 
     18 H18         0.9411   52.5679   31.3772 H         1 UNK         0.0000 
     19 C19         1.9610   53.1239   29.5650 C.ar      1 UNK         0.0000 
     20 N20         3.1034   53.6935   29.9677 N.ar      1 UNK         0.0000 
     21 C21         3.8813   54.1104   28.9329 C.ar      1 UNK         0.0000 
     22 N22         3.6216   54.0117   27.6041 N.ar      1 UNK         0.0000 
     23 O23         1.5005   54.4965   23.2812 O.3       1 UNK         0.0000 
     24 H24         0.6956   48.5002   22.2855 H         1 UNK         0.0000 
     25 H25        -0.5766   50.0046   23.7777 H         1 UNK         0.0000 
     26 H26         0.2241   52.2757   24.2016 H         1 UNK         0.0000 
     27 H27         2.7432   49.3034   21.1911 H         1 UNK         0.0000 
     28 H28         4.6380   50.9078   21.1932 H         1 UNK         0.0000 
     29 H29         3.6212   52.0187   20.3177 H         1 UNK         0.0000 
     30 H30         5.1732   52.6148   22.8811 H         1 UNK         0.0000 
     31 H31         5.3793   53.3326   21.3128 H         1 UNK         0.0000 
     32 H32         4.1025   54.8967   22.7102 H         1 UNK         0.0000 
     33 H33         3.1160   54.3147   21.4030 H         1 UNK         0.0000 
     34 H34         3.9052   52.8973   24.9190 H         1 UNK         0.0000 
     35 H35         3.5083   54.5742   24.9960 H         1 UNK         0.0000 
     36 H36         1.3469   52.6878   25.6518 H         1 UNK         0.0000 
     37 H37        -0.3403   51.9741   27.4139 H         1 UNK         0.0000 
     38 H38        -0.9011   51.6275   30.0447 H         1 UNK         0.0000 
     39 H39         4.8195   54.5778   29.1982 H         1 UNK         0.0000 
     40 H40         1.2802   54.6168   22.3525 H         1 UNK         0.0000 
@<TRIPOS>BOND
     1    1    6 ar   
     2    1    2 ar   
     3    1   24 1    
     4    2    3 ar   
     5    2   25 1    
     6    3    4 ar   
     7    3   26 1    
     8    4   10 1    
     9    4    5 ar   
    10    5    6 ar   
    11    5    7 1    
    12    6   27 1    
    13    7    8 1    
    14    7   28 1    
    15    7   29 1    
    16    8    9 1    
    17    8   30 1    
    18    8   31 1    
    19    9   10 1    
    20    9   32 1    
    21    9   33 1    
    22   10   11 1    
    23   10   23 1    
    24   11   12 1    
    25   11   34 1    
    26   11   35 1    
    27   12   13 1    
    28   12   36 1    
    29   13   22 ar   
    30   13   14 ar   
    31   14   19 ar   
    32   14   15 ar   
    33   15   16 ar   
    34   15   37 1    
    35   16   17 ar   
    36   16   38 1    
    37   17   18 1    
    38   17   19 ar   
    39   19   20 ar   
    40   20   21 ar   
    41   21   22 ar   
    42   21   39 1    
    43   23   40 1    
@<TRIPOS>SUBSTRUCTURE
     1 UNK         1 GROUP             0       ****    0 ROOT    
