@<TRIPOS>MOLECULE
ZINC34762337_5442
74   77    1
SMALL
USER_CHARGES


@<TRIPOS>ATOM
      1 C1          6.5562   54.4278   23.7522 C.3       1 UNK         0.0000 
      2 C2          5.3695   55.0944   24.4823 C.3       1 UNK         0.0000 
      3 C3          4.8917   54.3698   25.7263 C.2       1 UNK         0.0000 
      4 C4          5.6564   54.3761   26.8865 C.2       1 UNK         0.0000 
      5 S5          4.8425   53.6983   28.2673 S.3       1 UNK         0.0000 
      6 C6          3.4393   53.3809   27.2934 C.ar      1 UNK         0.0000 
      7 C7          3.6152   53.6971   25.9061 C.ar      1 UNK         0.0000 
      8 C8          2.4903   53.3490   25.0759 C.ar      1 UNK         0.0000 
      9 N9          1.3558   52.8492   25.6498 N.ar      1 UNK         0.0000 
     10 C10         1.3445   52.6124   26.9810 C.ar      1 UNK         0.0000 
     11 N11         2.3446   52.8653   27.8465 N.ar      1 UNK         0.0000 
     12 S12        -0.0680   51.8255   27.6931 S.3       1 UNK         0.0000 
     13 C13        -1.0288   51.0335   26.3682 C.3       1 UNK         0.0000 
     14 C14        -2.3064   51.8045   26.0132 C.2       1 UNK         0.0000 
     15 O15        -2.2859   52.5004   24.9962 O.2       1 UNK         0.0000 
     16 N16        -3.4105   51.6845   26.7974 N.am      1 UNK         0.0000 
     17 C17        -3.4888   50.8664   28.0134 C.3       1 UNK         0.0000 
     18 C18        -4.6860   52.3098   26.4408 C.3       1 UNK         0.0000 
     19 N19         2.4425   53.4036   23.6719 N.pl3     1 UNK         0.0000 
     20 C20         1.1852   53.5478   22.9059 C.3       1 UNK         0.0000 
     21 C21         0.9369   52.4917   21.8044 C.3       1 UNK         0.0000 
     22 N22         2.1663   52.4357   20.8722 N.4       1 UNK         0.0000 
     23 C23         3.4279   52.1169   21.6900 C.3       1 UNK         0.0000 
     24 C24         3.5938   53.1959   22.7784 C.3       1 UNK         0.0000 
     25 C25         2.0329   51.5095   19.6220 C.3       1 UNK         0.0000 
     26 C26         1.8168   50.0056   19.9063 C.2       1 UNK         0.0000 
     27 O27         1.5374   49.5828   21.0268 O.2       1 UNK         0.0000 
     28 N28         1.9310   49.1963   18.8398 N.am      1 UNK         0.0000 
     29 C29         1.6521   47.7569   18.8242 C.3       1 UNK         0.0000 
     30 C30         0.1501   47.4250   19.0545 C.3       1 UNK         0.0000 
     31 C31        -0.7524   47.9932   17.9328 C.3       1 UNK         0.0000 
     32 C32        -0.3028   47.5027   16.5372 C.3       1 UNK         0.0000 
     33 C33         1.2100   47.7020   16.2934 C.3       1 UNK         0.0000 
     34 C34         2.0417   47.1318   17.4641 C.3       1 UNK         0.0000 
     35 C35         7.0354   54.9462   27.0617 C.3       1 UNK         0.0000 
     36 H36         6.6377   54.7985   22.7299 H         1 UNK         0.0000 
     37 H37         7.5036   54.6516   24.2429 H         1 UNK         0.0000 
     38 H38         6.4764   53.3424   23.7054 H         1 UNK         0.0000 
     39 H39         4.5368   55.2958   23.8227 H         1 UNK         0.0000 
     40 H40         5.6982   56.0962   24.7630 H         1 UNK         0.0000 
     41 H41        -0.4209   50.9048   25.4745 H         1 UNK         0.0000 
     42 H42        -1.2833   50.0177   26.6675 H         1 UNK         0.0000 
     43 H43        -4.1297   49.9997   27.8463 H         1 UNK         0.0000 
     44 H44        -2.5268   50.4990   28.3695 H         1 UNK         0.0000 
     45 H45        -3.9256   51.4419   28.8310 H         1 UNK         0.0000 
     46 H46        -5.0676   52.8966   27.2786 H         1 UNK         0.0000 
     47 H47        -4.6090   52.9745   25.5799 H         1 UNK         0.0000 
     48 H48        -5.4277   51.5454   26.2034 H         1 UNK         0.0000 
     49 H49         1.2780   54.5352   22.4544 H         1 UNK         0.0000 
     50 H50         0.3113   53.6084   23.5559 H         1 UNK         0.0000 
     51 H51         0.1059   52.8001   21.1694 H         1 UNK         0.0000 
     52 H52         0.7434   51.5070   22.2288 H         1 UNK         0.0000 
     53 H53         3.3299   51.1060   22.0897 H         1 UNK         0.0000 
     54 H54         4.2655   52.1654   20.9923 H         1 UNK         0.0000 
     55 H55         4.4647   52.9182   23.3589 H         1 UNK         0.0000 
     56 H56         3.7786   54.1498   22.2854 H         1 UNK         0.0000 
     57 H57         2.9451   51.6594   19.0380 H         1 UNK         0.0000 
     58 H58         1.1830   51.9028   19.0636 H         1 UNK         0.0000 
     59 H59         2.4115   49.5481   18.0176 H         1 UNK         0.0000 
     60 H60         2.2400   47.3030   19.6261 H         1 UNK         0.0000 
     61 H61        -0.1792   47.8106   20.0208 H         1 UNK         0.0000 
     62 H62         0.0186   46.3432   19.1150 H         1 UNK         0.0000 
     63 H63        -0.7294   49.0834   17.9605 H         1 UNK         0.0000 
     64 H64        -1.7935   47.7112   18.1080 H         1 UNK         0.0000 
     65 H65        -0.8755   48.0096   15.7572 H         1 UNK         0.0000 
     66 H66        -0.5393   46.4413   16.4406 H         1 UNK         0.0000 
     67 H67         1.4304   48.7630   16.1610 H         1 UNK         0.0000 
     68 H68         1.5020   47.2217   15.3589 H         1 UNK         0.0000 
     69 H69         1.9057   46.0510   17.5023 H         1 UNK         0.0000 
     70 H70         3.1035   47.2903   17.2783 H         1 UNK         0.0000 
     71 H71         7.0526   55.9869   26.7508 H         1 UNK         0.0000 
     72 H72         7.3896   54.8887   28.0817 H         1 UNK         0.0000 
     73 H73         7.7652   54.4257   26.4585 H         1 UNK         0.0000 
     74 H74         2.2748   53.3772   20.5066 H         1 UNK         0.0000 
@<TRIPOS>BOND
     1    1    2 1    
     2    1   36 1    
     3    1   37 1    
     4    1   38 1    
     5    2    3 1    
     6    2   39 1    
     7    2   40 1    
     8    3    7 1    
     9    3    4 2    
    10    4    5 1    
    11    4   35 1    
    12    5    6 1    
    13    6   11 ar   
    14    6    7 ar   
    15    7    8 ar   
    16    8    9 ar   
    17    8   19 1    
    18    9   10 ar   
    19   10   11 ar   
    20   10   12 1    
    21   12   13 1    
    22   13   14 1    
    23   13   41 1    
    24   13   42 1    
    25   14   15 2    
    26   14   16 am   BACKBONE|DICT|INTERRES
    27   16   17 1    
    28   16   18 1    
    29   17   43 1    
    30   17   44 1    
    31   17   45 1    
    32   18   46 1    
    33   18   47 1    
    34   18   48 1    
    35   19   24 1    
    36   19   20 1    
    37   20   21 1    
    38   20   49 1    
    39   20   50 1    
    40   21   22 1    
    41   21   51 1    
    42   21   52 1    
    43   22   23 1    
    44   22   25 1    
    45   22   74 1    
    46   23   24 1    
    47   23   53 1    
    48   23   54 1    
    49   24   55 1    
    50   24   56 1    
    51   25   26 1    
    52   25   57 1    
    53   25   58 1    
    54   26   27 2    
    55   26   28 am   BACKBONE|DICT|INTERRES
    56   28   29 1    
    57   28   59 1    
    58   29   34 1    
    59   29   30 1    
    60   29   60 1    
    61   30   31 1    
    62   30   61 1    
    63   30   62 1    
    64   31   32 1    
    65   31   63 1    
    66   31   64 1    
    67   32   33 1    
    68   32   65 1    
    69   32   66 1    
    70   33   34 1    
    71   33   67 1    
    72   33   68 1    
    73   34   69 1    
    74   34   70 1    
    75   35   71 1    
    76   35   72 1    
    77   35   73 1    
@<TRIPOS>SUBSTRUCTURE
     1 UNK         1 GROUP             0       ****    0 ROOT    
