@<TRIPOS>MOLECULE
ZINC38547662_5102
58   61    1
SMALL
USER_CHARGES


@<TRIPOS>ATOM
      1 C1         -1.3485   47.9316   21.4569 C.3       1 UNK         0.0000 
      2 C2         -1.6817   47.6982   22.9174 C.ar      1 UNK         0.0000 
      3 C3         -2.6662   46.7999   23.3399 C.ar      1 UNK         0.0000 
      4 C4         -2.9527   46.6919   24.7045 C.ar      1 UNK         0.0000 
      5 C5         -2.2542   47.4811   25.6207 C.ar      1 UNK         0.0000 
      6 C6         -1.2940   48.3902   25.1650 C.ar      1 UNK         0.0000 
      7 N7         -1.0368   48.4386   23.8400 N.pl3     1 UNK         0.0000 
      8 N8         -0.6753   49.2924   26.0816 N.pl3     1 UNK         0.0000 
      9 C9          0.1354   50.4758   25.7141 C.3       1 UNK         0.0000 
     10 H10         1.0882   50.0104   25.4557 H         1 UNK         0.0000 
     11 C11         0.3962   51.4504   26.8768 C.ar      1 UNK         0.0000 
     12 C12        -0.2816   51.3590   28.0998 C.ar      1 UNK         0.0000 
     13 C13        -0.0629   52.2999   29.1020 C.ar      1 UNK         0.0000 
     14 C14         0.8303   53.3527   28.9052 C.ar      1 UNK         0.0000 
     15 C15         1.5216   53.4390   27.6878 C.ar      1 UNK         0.0000 
     16 C16         1.3049   52.4964   26.6873 C.ar      1 UNK         0.0000 
     17 O17         0.9637   54.2516   29.9485 O.3       1 UNK         0.0000 
     18 C18         1.8608   55.3542   29.8332 C.3       1 UNK         0.0000 
     19 F19         3.1242   54.9520   29.6815 F         1 UNK         0.0000 
     20 F20         1.5045   56.2164   28.8808 F         1 UNK         0.0000 
     21 C21        -0.4129   51.2337   24.4980 C.2       1 UNK         0.0000 
     22 C22         0.2744   51.3796   23.2713 C.2       1 UNK         0.0000 
     23 C23        -0.4740   52.0430   22.2930 C.2       1 UNK         0.0000 
     24 S24        -2.0370   52.4945   22.9009 S.3       1 UNK         0.0000 
     25 C25        -1.6909   51.7858   24.4442 C.2       1 UNK         0.0000 
     26 N26        -2.5966   51.7214   25.4922 N.am      1 UNK         0.0000 
     27 C27        -3.8258   52.2600   25.6080 C.2       1 UNK         0.0000 
     28 O28        -4.3701   53.0071   24.7940 O.2       1 UNK         0.0000 
     29 C29        -4.4875   51.8620   26.8263 C.2       1 UNK         0.0000 
     30 C30        -5.7820   52.0915   27.2808 C.2       1 UNK         0.0000 
     31 C31        -5.8999   51.4503   28.5180 C.2       1 UNK         0.0000 
     32 C32        -4.6687   50.8684   28.7774 C.2       1 UNK         0.0000 
     33 O33        -3.8138   51.1209   27.7557 O.3       1 UNK         0.0000 
     34 C34        -0.0789   52.3742   20.8719 C.3       1 UNK         0.0000 
     35 C35         1.6944   50.9039   23.0474 C.3       1 UNK         0.0000 
     36 H36        -1.8479   47.2070   20.8122 H         1 UNK         0.0000 
     37 H37        -1.6723   48.9285   21.1529 H         1 UNK         0.0000 
     38 H38        -0.2752   47.8579   21.2791 H         1 UNK         0.0000 
     39 H39        -3.2189   46.2141   22.6192 H         1 UNK         0.0000 
     40 H40        -3.7324   46.0323   25.0541 H         1 UNK         0.0000 
     41 H41        -2.4957   47.4161   26.6724 H         1 UNK         0.0000 
     42 H42        -0.9042   49.1463   27.0681 H         1 UNK         0.0000 
     43 H43        -0.9978   50.5720   28.2849 H         1 UNK         0.0000 
     44 H44        -0.5969   52.2155   30.0385 H         1 UNK         0.0000 
     45 H45         2.2230   54.2354   27.4909 H         1 UNK         0.0000 
     46 H46         1.8400   52.5920   25.7547 H         1 UNK         0.0000 
     47 H47         1.8361   55.9223   30.7636 H         1 UNK         0.0000 
     48 H48        -2.2752   51.1992   26.2948 H         1 UNK         0.0000 
     49 H49        -6.5549   52.6439   26.7659 H         1 UNK         0.0000 
     50 H50        -6.7799   51.4098   29.1449 H         1 UNK         0.0000 
     51 H51        -4.2714   50.2722   29.5885 H         1 UNK         0.0000 
     52 H52         0.5432   51.5975   20.4283 H         1 UNK         0.0000 
     53 H53        -0.9406   52.4943   20.2159 H         1 UNK         0.0000 
     54 H54         0.5022   53.2961   20.8326 H         1 UNK         0.0000 
     55 H55         2.3079   51.1457   23.9131 H         1 UNK         0.0000 
     56 H56         1.7560   49.8234   22.9218 H         1 UNK         0.0000 
     57 H57         2.1838   51.3817   22.1974 H         1 UNK         0.0000 
     58 H58        -0.3579   49.1148   23.5244 H         1 UNK         0.0000 
@<TRIPOS>BOND
     1    1    2 1    
     2    1   36 1    
     3    1   37 1    
     4    1   38 1    
     5    2    7 ar   
     6    2    3 ar   
     7    3    4 ar   
     8    3   39 1    
     9    4    5 ar   
    10    4   40 1    
    11    5    6 ar   
    12    5   41 1    
    13    6    7 ar   
    14    6    8 1    
    15    7   58 1    
    16    8    9 1    
    17    8   42 1    
    18    9   10 1    
    19    9   11 1    
    20    9   21 1    
    21   11   16 ar   
    22   11   12 ar   
    23   12   13 ar   
    24   12   43 1    
    25   13   14 ar   
    26   13   44 1    
    27   14   15 ar   
    28   14   17 1    
    29   15   16 ar   
    30   15   45 1    
    31   16   46 1    
    32   17   18 1    
    33   18   19 1    
    34   18   20 1    
    35   18   47 1    
    36   21   25 2    
    37   21   22 1    
    38   22   23 2    
    39   22   35 1    
    40   23   24 1    
    41   23   34 1    
    42   24   25 1    
    43   25   26 am   BACKBONE|DICT|INTERRES
    44   26   27 am   BACKBONE|DICT|INTERRES
    45   26   48 1    
    46   27   28 2    
    47   27   29 1    
    48   29   33 1    
    49   29   30 2    
    50   30   31 1    
    51   30   49 1    
    52   31   32 2    
    53   31   50 1    
    54   32   33 1    
    55   32   51 1    
    56   34   52 1    
    57   34   53 1    
    58   34   54 1    
    59   35   55 1    
    60   35   56 1    
    61   35   57 1    
@<TRIPOS>SUBSTRUCTURE
     1 UNK         1 GROUP             0       ****    0 ROOT    
