@<TRIPOS>MOLECULE
ZINC16604742_4675
34   36    1
SMALL
USER_CHARGES


@<TRIPOS>ATOM
      1 C1          1.1033   52.6800   26.2868 C.ar      1 UNK         0.0000 
      2 C2          0.7098   52.3300   27.5696 C.ar      1 UNK         0.0000 
      3 C3          1.5200   52.6010   28.6645 C.ar      1 UNK         0.0000 
      4 C4          2.7617   53.2114   28.4377 C.ar      1 UNK         0.0000 
      5 C5          3.2234   53.5521   27.1214 C.ar      1 UNK         0.0000 
      6 C6          2.3284   53.3001   26.0516 C.ar      1 UNK         0.0000 
      7 C7          4.5681   54.1014   27.1469 C.2       1 UNK         0.0000 
      8 C8          5.0051   54.2305   28.4604 C.2       1 UNK         0.0000 
      9 S9          3.9044   53.6561   29.6800 S.3       1 UNK         0.0000 
     10 C10         5.4035   54.5193   26.0282 C.2       1 UNK         0.0000 
     11 O11         6.4113   55.2062   26.2152 O.2       1 UNK         0.0000 
     12 N12         4.9791   54.0971   24.8206 N.am      1 UNK         0.0000 
     13 C13         5.4580   54.3965   23.5335 C.ar      1 UNK         0.0000 
     14 C14         6.7045   54.9779   23.2662 C.ar      1 UNK         0.0000 
     15 C15         7.0608   55.2999   21.9587 C.ar      1 UNK         0.0000 
     16 C16         6.1682   55.0566   20.9142 C.ar      1 UNK         0.0000 
     17 C17         4.9438   54.4353   21.1688 C.ar      1 UNK         0.0000 
     18 C18         4.5971   54.0962   22.4744 C.ar      1 UNK         0.0000 
     19 S19         6.6067   55.5242   19.2411 S.o2      1 UNK         0.0000 
     20 O20         7.8032   54.7580   18.8855 O.2       1 UNK         0.0000 
     21 O21         5.3906   55.4723   18.4257 O.2       1 UNK         0.0000 
     22 N22         7.0905   57.1979   19.3263 N.pl3     1 UNK         0.0000 
     23 H23         0.4395   52.4740   25.4587 H         1 UNK         0.0000 
     24 H24        -0.2461   51.8466   27.7200 H         1 UNK         0.0000 
     25 H25         1.1948   52.3420   29.6624 H         1 UNK         0.0000 
     26 H26         2.5516   53.5714   25.0350 H         1 UNK         0.0000 
     27 H27         5.9570   54.6354   28.7827 H         1 UNK         0.0000 
     28 H28         4.1561   53.5196   24.8353 H         1 UNK         0.0000 
     29 H29         7.4128   55.1923   24.0505 H         1 UNK         0.0000 
     30 H30         8.0232   55.7529   21.7651 H         1 UNK         0.0000 
     31 H31         4.2528   54.2256   20.3631 H         1 UNK         0.0000 
     32 H32         3.6361   53.6364   22.6536 H         1 UNK         0.0000 
     33 H33         8.0099   57.3425   18.8993 H         1 UNK         0.0000 
     34 H34         6.3894   57.8275   18.9238 H         1 UNK         0.0000 
@<TRIPOS>BOND
     1    1    6 ar   
     2    1    2 ar   
     3    1   23 1    
     4    2    3 ar   
     5    2   24 1    
     6    3    4 ar   
     7    3   25 1    
     8    4    9 1    
     9    4    5 ar   
    10    5    6 ar   
    11    5    7 1    
    12    6   26 1    
    13    7    8 2    
    14    7   10 1    
    15    8    9 1    
    16    8   27 1    
    17   10   11 2    
    18   10   12 am   BACKBONE|DICT|INTERRES
    19   12   13 1    
    20   12   28 1    
    21   13   18 ar   
    22   13   14 ar   
    23   14   15 ar   
    24   14   29 1    
    25   15   16 ar   
    26   15   30 1    
    27   16   17 ar   
    28   16   19 1    
    29   17   18 ar   
    30   17   31 1    
    31   18   32 1    
    32   19   20 2    
    33   19   21 2    
    34   19   22 1    
    35   22   33 1    
    36   22   34 1    
@<TRIPOS>SUBSTRUCTURE
     1 UNK         1 GROUP             0       ****    0 ROOT    
