@<TRIPOS>MOLECULE
ZINC59054340_4304
53   56    1
SMALL
USER_CHARGES


@<TRIPOS>ATOM
      1 C1          0.7070   51.6423   15.6058 C.ar      1 UNK         0.0000 
      2 C2          1.8904   51.2751   16.2380 C.ar      1 UNK         0.0000 
      3 C3          2.0170   51.4125   17.6188 C.ar      1 UNK         0.0000 
      4 C4          0.9520   51.9239   18.3746 C.ar      1 UNK         0.0000 
      5 C5         -0.2404   52.2782   17.7246 C.ar      1 UNK         0.0000 
      6 C6         -0.3615   52.1420   16.3435 C.ar      1 UNK         0.0000 
      7 C7          1.0547   52.0971   19.8705 C.2       1 UNK         0.0000 
      8 O8          0.0360   52.0014   20.5578 O.2       1 UNK         0.0000 
      9 N9          2.2828   52.4277   20.3385 N.am      1 UNK         0.0000 
     10 C10         2.6536   52.8975   21.6173 C.ar      1 UNK         0.0000 
     11 C11         1.7769   52.9944   22.7032 C.ar      1 UNK         0.0000 
     12 C12         2.2123   53.5058   23.9156 C.ar      1 UNK         0.0000 
     13 C13         3.5464   53.9033   24.1067 C.ar      1 UNK         0.0000 
     14 C14         4.4352   53.8555   23.0052 C.ar      1 UNK         0.0000 
     15 C15         3.9678   53.3479   21.7785 C.ar      1 UNK         0.0000 
     16 C16         5.8953   54.3464   23.0696 C.3       1 UNK         0.0000 
     17 F17         6.1294   55.2485   24.0276 F         1 UNK         0.0000 
     18 F18         6.6931   53.3051   23.2821 F         1 UNK         0.0000 
     19 F19         6.2575   54.9026   21.9119 F         1 UNK         0.0000 
     20 N20         4.0205   54.3221   25.3734 N.am      1 UNK         0.0000 
     21 C21         3.5027   54.0473   26.5901 C.2       1 UNK         0.0000 
     22 O22         2.4450   53.4499   26.7889 O.2       1 UNK         0.0000 
     23 N23         4.3037   54.4491   27.5931 N.am      1 UNK         0.0000 
     24 C24         4.1436   54.0496   29.0014 C.3       1 UNK         0.0000 
     25 H25         4.8753   54.6295   29.5679 H         1 UNK         0.0000 
     26 C26         4.4452   52.5536   29.2411 C.3       1 UNK         0.0000 
     27 C27         3.9319   52.0967   30.6156 C.3       1 UNK         0.0000 
     28 O28         2.5130   52.1257   30.5420 O.3       1 UNK         0.0000 
     29 C29         2.0352   53.3959   30.3127 C.ar      1 UNK         0.0000 
     30 C30         2.7886   54.3884   29.6392 C.ar      1 UNK         0.0000 
     31 C31         2.2959   55.6941   29.6372 C.ar      1 UNK         0.0000 
     32 C32         1.1043   56.0001   30.2763 C.ar      1 UNK         0.0000 
     33 C33         0.3478   54.9895   30.8703 C.ar      1 UNK         0.0000 
     34 C34         0.8000   53.6788   30.8818 C.ar      1 UNK         0.0000 
     35 H35         0.6157   51.5311   14.5348 H         1 UNK         0.0000 
     36 H36         2.7070   50.8654   15.6631 H         1 UNK         0.0000 
     37 H37         2.9460   51.0999   18.0803 H         1 UNK         0.0000 
     38 H38        -1.0773   52.6698   18.2833 H         1 UNK         0.0000 
     39 H39        -1.2792   52.4209   15.8488 H         1 UNK         0.0000 
     40 H40         3.0154   52.4504   19.6461 H         1 UNK         0.0000 
     41 H41         0.7459   52.6901   22.6481 H         1 UNK         0.0000 
     42 H42         1.4751   53.5669   24.6989 H         1 UNK         0.0000 
     43 H43         4.6424   53.3029   20.9350 H         1 UNK         0.0000 
     44 H44         4.9289   54.7595   25.3521 H         1 UNK         0.0000 
     45 H45         5.1338   54.9745   27.3684 H         1 UNK         0.0000 
     46 H46         3.9460   51.9500   28.4835 H         1 UNK         0.0000 
     47 H47         5.5043   52.3671   29.1218 H         1 UNK         0.0000 
     48 H48         4.2623   51.1046   30.8810 H         1 UNK         0.0000 
     49 H49         4.3018   52.7499   31.4097 H         1 UNK         0.0000 
     50 H50         2.8560   56.4862   29.1641 H         1 UNK         0.0000 
     51 H51         0.7434   57.0157   30.2832 H         1 UNK         0.0000 
     52 H52        -0.6028   55.2343   31.2944 H         1 UNK         0.0000 
     53 H53         0.2294   52.9046   31.3760 H         1 UNK         0.0000 
@<TRIPOS>BOND
     1    1    6 ar   
     2    1    2 ar   
     3    1   35 1    
     4    2    3 ar   
     5    2   36 1    
     6    3    4 ar   
     7    3   37 1    
     8    4    5 ar   
     9    4    7 1    
    10    5    6 ar   
    11    5   38 1    
    12    6   39 1    
    13    7    8 2    
    14    7    9 am   BACKBONE|DICT|INTERRES
    15    9   10 1    
    16    9   40 1    
    17   10   15 ar   
    18   10   11 ar   
    19   11   12 ar   
    20   11   41 1    
    21   12   13 ar   
    22   12   42 1    
    23   13   14 ar   
    24   13   20 1    
    25   14   15 ar   
    26   14   16 1    
    27   15   43 1    
    28   16   17 1    
    29   16   18 1    
    30   16   19 1    
    31   20   21 am   BACKBONE|DICT|INTERRES
    32   20   44 1    
    33   21   22 2    
    34   21   23 am   BACKBONE|DICT|INTERRES
    35   23   24 1    
    36   23   45 1    
    37   24   25 1    
    38   24   30 1    
    39   24   26 1    
    40   26   27 1    
    41   26   46 1    
    42   26   47 1    
    43   27   28 1    
    44   27   48 1    
    45   27   49 1    
    46   28   29 1    
    47   29   34 ar   
    48   29   30 ar   
    49   30   31 ar   
    50   31   32 ar   
    51   31   50 1    
    52   32   33 ar   
    53   32   51 1    
    54   33   34 ar   
    55   33   52 1    
    56   34   53 1    
@<TRIPOS>SUBSTRUCTURE
     1 UNK         1 GROUP             0       ****    0 ROOT    
