ZINC59310652_3450
                    3D
 Schrodinger Suite 2024-2.
 64 68  0  0  1  0            999 V2000
   -0.8516   52.2971   30.3764 C   0  0  0  0  0  0
    0.4273   52.6511   29.6769 C   0  0  0  0  0  0
    1.0365   51.6970   28.8814 C   0  0  0  0  0  0
    2.2537   51.9805   28.2880 C   0  0  0  0  0  0
    2.8612   53.2233   28.4467 C   0  0  0  0  0  0
    2.2167   54.2195   29.2080 C   0  0  0  0  0  0
    1.0055   53.9130   29.8352 C   0  0  0  0  0  0
    2.8035   55.6039   29.4016 C   0  0  0  0  0  0
    4.1190   53.3743   27.8550 N   0  0  0  0  0  0
    4.3961   54.1803   26.8135 C   0  0  0  0  0  0
    3.5618   54.8967   26.2676 O   0  0  0  0  0  0
    5.8359   54.0938   26.2940 C   0  0  0  0  0  0
    6.3147   55.2704   24.9790 S   0  0  0  0  0  0
    5.6598   54.4966   23.5266 C   0  0  0  0  0  0
    6.1864   54.7477   22.3327 N   0  0  0  0  0  0
    5.3933   54.0966   21.5241 C   0  0  0  0  0  0
    4.4147   53.4758   22.2354 N   0  0  0  0  0  0
    4.5980   53.7075   23.5339 N   0  0  0  0  0  0
    5.5043   53.9508   20.1639 N   0  0  0  0  0  0
    5.0485   54.8878   19.2296 N   0  0  0  0  0  0
    5.1478   54.6486   17.9746 C   0  0  0  0  0  0
    5.7072   53.3410   17.3734 C   0  0  0  0  0  0
    4.6698   55.7348   16.9593 C   0  0  0  0  0  0
    5.0292   55.4077   15.4644 C   0  0  0  0  0  0
    4.5171   56.5196   14.5136 C   0  0  1  0  0  0
    2.9767   56.6452   14.6451 C   0  0  0  0  0  0
    2.6082   57.0031   16.1086 C   0  0  1  0  0  0
    3.1150   55.8807   17.0548 C   0  0  0  0  0  0
    3.2759   58.3512   16.4874 C   0  0  0  0  0  0
    4.8149   58.2302   16.3569 C   0  0  2  0  0  0
    5.1786   57.8676   14.8945 C   0  0  0  0  0  0
    5.3209   57.1177   17.3107 C   0  0  0  0  0  0
   -0.8806   51.2545   30.6942 H   0  0  0  0  0  0
   -0.9107   52.8961   31.2816 H   0  0  0  0  0  0
   -1.6778   52.4544   29.6820 H   0  0  0  0  0  0
    0.5649   50.7373   28.7299 H   0  0  0  0  0  0
    2.7044   51.2204   27.6854 H   0  0  0  0  0  0
    0.5128   54.6521   30.4488 H   0  0  0  0  0  0
    2.3047   56.1519   30.2022 H   0  0  0  0  0  0
    3.8631   55.5349   29.6396 H   0  0  0  0  0  0
    2.7035   56.1722   28.4817 H   0  0  0  0  0  0
    4.8098   52.6802   28.0955 H   0  0  0  0  0  0
    6.0373   53.0784   25.9624 H   0  0  0  0  0  0
    6.5015   54.2856   27.1354 H   0  0  0  0  0  0
    5.9012   53.1233   19.7437 H   0  0  0  0  0  0
    6.5704   53.5368   16.7385 H   0  0  0  0  0  0
    6.0392   52.6155   18.1127 H   0  0  0  0  0  0
    4.9509   52.8330   16.7735 H   0  0  0  0  0  0
    4.5937   54.4571   15.1515 H   0  0  0  0  0  0
    6.1084   55.3094   15.3389 H   0  0  0  0  0  0
    4.7759   56.2654   13.4851 H   0  0  0  0  0  0
    2.6019   57.4108   13.9643 H   0  0  0  0  0  0
    2.4936   55.7134   14.3487 H   0  0  0  0  0  0
    1.5240   57.0954   16.2025 H   0  0  0  0  0  0
    2.8080   56.0966   18.0780 H   0  0  0  0  0  0
    2.6271   54.9375   16.8007 H   0  0  0  0  0  0
    3.0160   58.6376   17.5050 H   0  0  0  0  0  0
    2.9045   59.1550   15.8498 H   0  0  0  0  0  0
    5.2774   59.1834   16.6214 H   0  0  0  0  0  0
    4.8473   58.6569   14.2169 H   0  0  0  0  0  0
    6.2615   57.8077   14.7775 H   0  0  0  0  0  0
    6.4087   57.0521   17.2526 H   0  0  0  0  0  0
    5.0950   57.4092   18.3382 H   0  0  0  0  0  0
    3.6684   52.9111   21.8587 H   0  0  0  0  0  0
  1  2  1  0  0  0
  1 33  1  0  0  0
  1 34  1  0  0  0
  1 35  1  0  0  0
  2  7  2  0  0  0
  2  3  1  0  0  0
  3  4  2  0  0  0
  3 36  1  0  0  0
  4  5  1  0  0  0
  4 37  1  0  0  0
  5  6  2  0  0  0
  5  9  1  0  0  0
  6  7  1  0  0  0
  6  8  1  0  0  0
  7 38  1  0  0  0
  8 39  1  0  0  0
  8 40  1  0  0  0
  8 41  1  0  0  0
  9 10  1  0  0  0
  9 42  1  0  0  0
 10 11  2  0  0  0
 10 12  1  0  0  0
 12 13  1  0  0  0
 12 43  1  0  0  0
 12 44  1  0  0  0
 13 14  1  0  0  0
 14 18  2  0  0  0
 14 15  1  0  0  0
 15 16  2  0  0  0
 16 17  1  0  0  0
 16 19  1  0  0  0
 17 18  1  0  0  0
 17 64  1  0  0  0
 19 20  1  0  0  0
 19 45  1  0  0  0
 20 21  2  0  0  0
 21 22  1  0  0  0
 21 23  1  0  0  0
 22 46  1  0  0  0
 22 47  1  0  0  0
 22 48  1  0  0  0
 23 28  1  0  0  0
 23 32  1  0  0  0
 23 24  1  0  0  0
 24 25  1  0  0  0
 24 49  1  0  0  0
 24 50  1  0  0  0
 25 31  1  0  0  0
 25 26  1  0  0  0
 25 51  1  0  0  0
 26 27  1  0  0  0
 26 52  1  0  0  0
 26 53  1  0  0  0
 27 28  1  0  0  0
 27 29  1  0  0  0
 27 54  1  0  0  0
 28 55  1  0  0  0
 28 56  1  0  0  0
 29 30  1  0  0  0
 29 57  1  0  0  0
 29 58  1  0  0  0
 30 31  1  0  0  0
 30 32  1  0  0  0
 30 59  1  0  0  0
 31 60  1  0  0  0
 31 61  1  0  0  0
 32 62  1  0  0  0
 32 63  1  0  0  0
M  END
> <i_i_glide_confnum>
123

> <i_i_glide_lignum>
3451

> <i_i_glide_posenum>
279

> <i_i_glide_rotatable_bonds>
8

> <i_m_Source_File_Index>
2656

> <b_m_subgroup_collapsed>
0

> <r_i_docking_score>
-4.97595

> <r_i_glide_ecoul>
-3.32632

> <r_i_glide_eff_state_penalty>
0

> <r_i_glide_einternal>
6.92312

> <r_i_glide_emodel>
-53.1804

> <r_i_glide_energy>
-42.4618

> <r_i_glide_erotb>
0.685662

> <r_i_glide_esite>
-0.0146492

> <r_i_glide_evdw>
-39.1355

> <r_i_glide_gscore>
-4.97595

> <r_i_glide_hbond>
0

> <r_i_glide_ligand_efficiency>
-0.155498

> <r_i_glide_ligand_efficiency_ln>
-1.11425

> <r_i_glide_ligand_efficiency_sa>
-0.493677

> <r_i_glide_lipo>
-1.95896

> <r_i_glide_metal>
0

> <r_i_glide_rewards>
-1.23228

> <s_i_glide_gridfile>
wee1_glide-grid

> <s_m_Source_File>
wee1_decoys_glide_SP.sdf

> <s_m_Source_Path>
/Users/zhangxujun/Desktop

> <s_m_entry_id>
2931

> <s_m_entry_name>
wee1_decoys_glide_SP.2656

> <s_m_subgroup_title>
wee1_decoys_glide_SP

> <s_m_subgroupid>
wee1_decoys_glide_SP


$$$$
