ZINC39466948_1195
                    3D
 Schrodinger Suite 2024-2.
 62 66  0  0  1  0            999 V2000
   -0.7000   48.8159   25.6745 C   0  0  0  0  0  0
    0.3040   50.0974   26.4800 S   0  0  0  0  0  0
    0.2678   51.5247   25.4126 C   0  0  0  0  0  0
   -0.3458   51.4822   24.2068 C   0  0  0  0  0  0
   -0.2129   52.5934   23.1641 C   0  0  2  0  0  0
   -1.0050   53.3052   23.4008 H   0  0  0  0  0  0
   -0.4590   52.0943   21.7292 C   0  0  0  0  0  0
    0.6547   51.1203   21.3232 N   0  3  2  0  0  0
    2.0446   51.8038   21.3440 C   0  0  1  0  0  0
    1.9758   52.5969   20.5954 H   0  0  0  0  0  0
    2.3155   52.3882   22.7507 C   0  0  0  0  0  0
    1.1880   53.2925   23.3168 C   0  0  2  0  0  0
    1.1455   54.2232   22.7470 H   0  0  0  0  0  0
    1.4311   53.5805   24.8067 C   0  0  0  0  0  0
    1.0216   52.7307   25.7773 C   0  0  0  0  0  0
    1.2580   53.1873   27.5374 S   0  0  0  0  0  0
    1.4134   54.6386   27.6854 O   0  0  0  0  0  0
    0.2965   52.4690   28.3801 O   0  0  0  0  0  0
    2.7507   52.4821   27.7300 O   0  0  0  0  0  0
    3.8460   53.2979   27.6828 C   0  0  0  0  0  0
    4.4131   53.6887   26.4671 C   0  0  0  0  0  0
    5.5519   54.4830   26.4550 C   0  0  0  0  0  0
    6.0964   54.8927   27.6663 C   0  0  0  0  0  0
    5.5049   54.5369   28.8767 C   0  0  0  0  0  0
    4.3846   53.7240   28.8871 C   0  0  0  0  0  0
    3.1059   50.7630   20.9212 C   0  0  0  0  0  0
    2.8230   50.2805   19.6211 O   0  0  0  0  0  0
    1.4672   49.4251   19.3355 P   0  0  1  0  0  0
    1.5193   48.0447   19.8862 O   0  0  0  0  0  0
    0.3421   50.4367   20.0820 N   0  0  0  0  0  0
    1.1215   49.5999   17.5394 C   0  0  0  0  0  0
    1.0860   51.0535   17.0879 C   0  0  0  0  0  0
   -0.1338   51.6706   16.7980 C   0  0  0  0  0  0
   -0.1623   53.0126   16.4269 C   0  0  0  0  0  0
    1.0291   53.7330   16.3476 C   0  0  0  0  0  0
    2.2492   53.1212   16.6271 C   0  0  0  0  0  0
    2.2777   51.7781   16.9928 C   0  0  0  0  0  0
   -0.2673   48.5257   24.7179 H   0  0  0  0  0  0
   -0.7428   47.9309   26.3049 H   0  0  0  0  0  0
   -1.7226   49.1628   25.5318 H   0  0  0  0  0  0
   -0.8961   50.6004   23.9230 H   0  0  0  0  0  0
   -1.3940   51.5397   21.6436 H   0  0  0  0  0  0
   -0.4462   52.8852   20.9852 H   0  0  0  0  0  0
    2.4505   51.5439   23.4304 H   0  0  0  0  0  0
    3.2542   52.9463   22.7362 H   0  0  0  0  0  0
    1.9466   54.4890   25.0837 H   0  0  0  0  0  0
    4.0008   53.3338   25.5368 H   0  0  0  0  0  0
    6.0108   54.7667   25.5190 H   0  0  0  0  0  0
    6.9781   55.5145   27.6774 H   0  0  0  0  0  0
    5.9190   54.8975   29.8031 H   0  0  0  0  0  0
    3.9314   53.4258   29.8201 H   0  0  0  0  0  0
    4.1000   51.2126   20.9057 H   0  0  0  0  0  0
    3.1432   49.9223   21.6186 H   0  0  0  0  0  0
   -0.3599   50.8575   19.4754 H   0  0  0  0  0  0
    1.9043   49.0787   16.9877 H   0  0  0  0  0  0
    0.1900   49.0914   17.2942 H   0  0  0  0  0  0
   -1.0576   51.1140   16.8620 H   0  0  0  0  0  0
   -1.1018   53.4939   16.1982 H   0  0  0  0  0  0
    1.0085   54.7742   16.0604 H   0  0  0  0  0  0
    3.1701   53.6814   16.5610 H   0  0  0  0  0  0
    3.2226   51.3000   17.2153 H   0  0  0  0  0  0
    0.6707   50.3867   22.0175 H   0  0  0  0  0  0
  1  2  1  0  0  0
  1 38  1  0  0  0
  1 39  1  0  0  0
  1 40  1  0  0  0
  2  3  1  0  0  0
  3 15  1  0  0  0
  3  4  2  0  0  0
  4  5  1  0  0  0
  4 41  1  0  0  0
  5  6  1  0  0  0
  5 12  1  0  0  0
  5  7  1  0  0  0
  7  8  1  0  0  0
  7 42  1  0  0  0
  7 43  1  0  0  0
  8 30  1  0  0  0
  8  9  1  0  0  0
  8 62  1  0  0  0
  9 10  1  0  0  0
  9 11  1  0  0  0
  9 26  1  0  0  0
 11 12  1  0  0  0
 11 44  1  0  0  0
 11 45  1  0  0  0
 12 13  1  0  0  0
 12 14  1  0  0  0
 14 15  2  0  0  0
 14 46  1  0  0  0
 15 16  1  0  0  0
 16 17  2  0  0  0
 16 18  2  0  0  0
 16 19  1  0  0  0
 19 20  1  0  0  0
 20 25  2  0  0  0
 20 21  1  0  0  0
 21 22  2  0  0  0
 21 47  1  0  0  0
 22 23  1  0  0  0
 22 48  1  0  0  0
 23 24  2  0  0  0
 23 49  1  0  0  0
 24 25  1  0  0  0
 24 50  1  0  0  0
 25 51  1  0  0  0
 26 27  1  0  0  0
 26 52  1  0  0  0
 26 53  1  0  0  0
 27 28  1  0  0  0
 28 29  2  0  0  0
 28 30  1  0  0  0
 28 31  1  0  0  0
 30 54  1  0  0  0
 31 32  1  0  0  0
 31 55  1  0  0  0
 31 56  1  0  0  0
 32 37  2  0  0  0
 32 33  1  0  0  0
 33 34  2  0  0  0
 33 57  1  0  0  0
 34 35  1  0  0  0
 34 58  1  0  0  0
 35 36  2  0  0  0
 35 59  1  0  0  0
 36 37  1  0  0  0
 36 60  1  0  0  0
 37 61  1  0  0  0
M  CHG  1   8   1
M  END
> <i_i_glide_confnum>
58

> <i_i_glide_lignum>
1196

> <i_i_glide_posenum>
366

> <i_i_glide_rotatable_bonds>
6

> <i_m_Source_File_Index>
2052

> <b_m_subgroup_collapsed>
0

> <r_i_docking_score>
-3.76672

> <r_i_glide_ecoul>
-2.03855

> <r_i_glide_eff_state_penalty>
0

> <r_i_glide_einternal>
5.5805

> <r_i_glide_emodel>
-44.0361

> <r_i_glide_energy>
-36.1475

> <r_i_glide_erotb>
0.380507

> <r_i_glide_esite>
-0.0376031

> <r_i_glide_evdw>
-34.1089

> <r_i_glide_gscore>
-3.76672

> <r_i_glide_hbond>
0

> <r_i_glide_ligand_efficiency>
-0.110786

> <r_i_glide_ligand_efficiency_ln>
-0.832175

> <r_i_glide_ligand_efficiency_sa>
-0.358904

> <r_i_glide_lipo>
-1.83076

> <r_i_glide_metal>
0

> <r_i_glide_rewards>
-0.267633

> <s_i_glide_gridfile>
wee1_glide-grid

> <s_m_Source_File>
wee1_decoys_glide_SP.sdf

> <s_m_Source_Path>
/Users/zhangxujun/Desktop

> <s_m_entry_id>
2327

> <s_m_entry_name>
wee1_decoys_glide_SP.2052

> <s_m_subgroup_title>
wee1_decoys_glide_SP

> <s_m_subgroupid>
wee1_decoys_glide_SP


$$$$
