ZINC08898029_309
                    3D
 Schrodinger Suite 2024-2.
 66 69  0  0  1  0            999 V2000
    9.4570   50.7865   10.3014 C   0  0  0  0  0  0
    8.3907   51.4088   11.0101 O   0  0  0  0  0  0
    8.4029   51.3934   12.3905 C   0  0  0  0  0  0
    7.4185   52.1425   13.0334 C   0  0  0  0  0  0
    7.3491   52.2313   14.4313 C   0  0  0  0  0  0
    8.3043   51.5281   15.1834 C   0  0  0  0  0  0
    9.2884   50.7500   14.5686 C   0  0  0  0  0  0
    9.3349   50.6944   13.1681 C   0  0  0  0  0  0
   10.1639   50.0827   15.4022 O   0  0  0  0  0  0
   11.2051   49.2986   14.8282 C   0  0  0  0  0  0
    6.2933   53.1078   15.0790 C   0  0  0  0  0  0
    5.6787   53.9282   14.3919 O   0  0  0  0  0  0
    6.0617   52.8980   16.4020 N   0  0  0  0  0  0
    5.5402   53.7091   17.3812 C   0  0  0  0  0  0
    5.1365   55.3427   17.2262 S   0  0  0  0  0  0
    5.4122   53.0100   18.5498 N   0  0  0  0  0  0
    5.0907   53.4220   19.8512 C   0  0  0  0  0  0
    5.7354   54.4969   20.4783 C   0  0  0  0  0  0
    5.5118   54.7274   21.8315 C   0  0  0  0  0  0
    4.6202   53.9266   22.5615 C   0  0  0  0  0  0
    3.9386   52.9002   21.8980 C   0  0  0  0  0  0
    4.1863   52.6343   20.5562 C   0  0  0  0  0  0
    4.4319   54.0973   23.9319 N   0  0  0  0  0  0
    3.0845   54.1939   24.5209 C   0  0  0  0  0  0
    2.9856   53.7077   25.9885 C   0  0  0  0  0  0
    5.4528   54.1484   26.2483 C   0  0  0  0  0  0
    5.4909   54.6493   24.7951 C   0  0  0  0  0  0
    4.0464   53.9018   28.3222 C   0  0  0  0  0  0
    2.7322   54.0818   29.0736 C   0  0  0  0  0  0
    2.2955   55.3658   29.4193 C   0  0  0  0  0  0
    1.1290   55.5356   30.1653 C   0  0  0  0  0  0
    0.3935   54.4218   30.5721 C   0  0  0  0  0  0
    0.8146   53.1399   30.2216 C   0  0  0  0  0  0
    1.9801   52.9677   29.4750 C   0  0  0  0  0  0
    2.3893   51.7160   29.1681 F   0  0  0  0  0  0
    9.3172   50.9337    9.2315 H   0  0  0  0  0  0
   10.4232   51.2202   10.5679 H   0  0  0  0  0  0
    9.4872   49.7119   10.4826 H   0  0  0  0  0  0
    6.7108   52.6802   12.4180 H   0  0  0  0  0  0
    8.3054   51.5689   16.2626 H   0  0  0  0  0  0
   10.0999   50.1102   12.6813 H   0  0  0  0  0  0
   11.7843   48.8330   15.6246 H   0  0  0  0  0  0
   11.8881   49.9104   14.2370 H   0  0  0  0  0  0
   10.8090   48.5006   14.1981 H   0  0  0  0  0  0
    6.4972   52.0610   16.7611 H   0  0  0  0  0  0
    5.4625   51.9940   18.4574 H   0  0  0  0  0  0
    6.4597   55.0957   19.9447 H   0  0  0  0  0  0
    6.0579   55.5234   22.3122 H   0  0  0  0  0  0
    3.2530   52.2603   22.4336 H   0  0  0  0  0  0
    3.6978   51.7991   20.0720 H   0  0  0  0  0  0
    2.8364   55.2561   24.4887 H   0  0  0  0  0  0
    2.3360   53.6959   23.9059 H   0  0  0  0  0  0
    3.1237   52.6286   26.0802 H   0  0  0  0  0  0
    2.0215   53.9962   26.4144 H   0  0  0  0  0  0
    5.6694   53.0816   26.3279 H   0  0  0  0  0  0
    6.1589   54.7193   26.8553 H   0  0  0  0  0  0
    6.4790   54.4748   24.3682 H   0  0  0  0  0  0
    5.3255   55.7274   24.7991 H   0  0  0  0  0  0
    4.3481   52.8516   28.2812 H   0  0  0  0  0  0
    4.8426   54.4600   28.8240 H   0  0  0  0  0  0
    2.8660   56.2367   29.1293 H   0  0  0  0  0  0
    0.8044   56.5296   30.4428 H   0  0  0  0  0  0
   -0.4950   54.5555   31.1692 H   0  0  0  0  0  0
    0.2483   52.2756   30.5430 H   0  0  0  0  0  0
    4.0583   54.4024   26.8543 N   0  3  0  0  0  0
    3.8814   55.3981   26.8409 H   0  0  0  0  0  0
  1  2  1  0  0  0
  1 36  1  0  0  0
  1 37  1  0  0  0
  1 38  1  0  0  0
  2  3  1  0  0  0
  3  8  2  0  0  0
  3  4  1  0  0  0
  4  5  2  0  0  0
  4 39  1  0  0  0
  5  6  1  0  0  0
  5 11  1  0  0  0
  6  7  2  0  0  0
  6 40  1  0  0  0
  7  8  1  0  0  0
  7  9  1  0  0  0
  8 41  1  0  0  0
  9 10  1  0  0  0
 10 42  1  0  0  0
 10 43  1  0  0  0
 10 44  1  0  0  0
 11 12  2  0  0  0
 11 13  1  0  0  0
 13 14  1  0  0  0
 13 45  1  0  0  0
 14 15  2  0  0  0
 14 16  1  0  0  0
 16 17  1  0  0  0
 16 46  1  0  0  0
 17 22  2  0  0  0
 17 18  1  0  0  0
 18 19  2  0  0  0
 18 47  1  0  0  0
 19 20  1  0  0  0
 19 48  1  0  0  0
 20 21  2  0  0  0
 20 23  1  0  0  0
 21 22  1  0  0  0
 21 49  1  0  0  0
 22 50  1  0  0  0
 23 27  1  0  0  0
 23 24  1  0  0  0
 24 25  1  0  0  0
 24 51  1  0  0  0
 24 52  1  0  0  0
 25 53  1  0  0  0
 25 54  1  0  0  0
 25 65  1  0  0  0
 26 27  1  0  0  0
 26 55  1  0  0  0
 26 56  1  0  0  0
 26 65  1  0  0  0
 27 57  1  0  0  0
 27 58  1  0  0  0
 28 29  1  0  0  0
 28 59  1  0  0  0
 28 60  1  0  0  0
 28 65  1  0  0  0
 29 34  2  0  0  0
 29 30  1  0  0  0
 30 31  2  0  0  0
 30 61  1  0  0  0
 31 32  1  0  0  0
 31 62  1  0  0  0
 32 33  2  0  0  0
 32 63  1  0  0  0
 33 34  1  0  0  0
 33 64  1  0  0  0
 34 35  1  0  0  0
 65 66  1  0  0  0
M  CHG  1  65   1
M  END
> <i_i_glide_confnum>
70

> <i_i_glide_lignum>
310

> <i_i_glide_posenum>
151

> <i_i_glide_rotatable_bonds>
10

> <i_m_Source_File_Index>
819

> <b_m_subgroup_collapsed>
0

> <r_i_docking_score>
-5.80736

> <r_i_glide_ecoul>
-4.30195

> <r_i_glide_eff_state_penalty>
0

> <r_i_glide_einternal>
5.51765

> <r_i_glide_emodel>
-61.5098

> <r_i_glide_energy>
-45.6776

> <r_i_glide_erotb>
0.630893

> <r_i_glide_esite>
-0.190896

> <r_i_glide_evdw>
-41.3756

> <r_i_glide_gscore>
-5.80736

> <r_i_glide_hbond>
-0.167934

> <r_i_glide_ligand_efficiency>
-0.161315

> <r_i_glide_ligand_efficiency_ln>
-1.26701

> <r_i_glide_ligand_efficiency_sa>
-0.532652

> <r_i_glide_lipo>
-3.27052

> <r_i_glide_metal>
0

> <r_i_glide_rewards>
-0.0948218

> <s_i_glide_gridfile>
wee1_glide-grid

> <s_m_Source_File>
wee1_decoys_glide_SP.sdf

> <s_m_Source_Path>
/Users/zhangxujun/Desktop

> <s_m_entry_id>
1094

> <s_m_entry_name>
wee1_decoys_glide_SP.819

> <s_m_subgroup_title>
wee1_decoys_glide_SP

> <s_m_subgroupid>
wee1_decoys_glide_SP


$$$$
