@<TRIPOS>MOLECULE
ZINC38651047_4342
51   54    1
SMALL
USER_CHARGES


@<TRIPOS>ATOM
      1 C1          8.8146   56.2643   18.1382 C.3       1 UNK         0.0000 
      2 C2          7.2846   56.0994   18.1643 C.3       1 UNK         0.0000 
      3 H3          7.0460   55.1507   17.6819 H         1 UNK         0.0000 
      4 C4          6.7512   56.1079   19.6092 C.2       1 UNK         0.0000 
      5 O5          6.7043   57.1498   20.2730 O.2       1 UNK         0.0000 
      6 O6          6.3509   54.8706   20.0117 O.3       1 UNK         0.0000 
      7 C7          5.7999   54.7006   21.2614 C.ar      1 UNK         0.0000 
      8 C8          6.5170   54.9975   22.4218 C.ar      1 UNK         0.0000 
      9 C9          5.9041   54.8967   23.6646 C.ar      1 UNK         0.0000 
     10 C10         4.5819   54.4276   23.8163 C.ar      1 UNK         0.0000 
     11 C11         3.9014   54.0922   22.6264 C.ar      1 UNK         0.0000 
     12 C12         4.4978   54.2162   21.3718 C.ar      1 UNK         0.0000 
     13 O13         2.5969   53.6495   22.6221 O.3       1 UNK         0.0000 
     14 C14         2.0539   53.2333   23.7862 C.2       1 UNK         0.0000 
     15 C15         2.5715   53.4647   25.0099 C.2       1 UNK         0.0000 
     16 C16         3.8200   54.3554   25.1791 C.3       1 UNK         0.0000 
     17 H17         3.4780   55.3819   25.2827 H         1 UNK         0.0000 
     18 C18         4.6666   54.1523   26.4616 C.ar      1 UNK         0.0000 
     19 C19         5.9879   53.6967   26.3550 C.ar      1 UNK         0.0000 
     20 C20         6.8559   53.6854   27.4281 C.ar      1 UNK         0.0000 
     21 C21         6.4005   54.0914   28.6629 C.ar      1 UNK         0.0000 
     22 C22         5.0761   54.4708   28.8405 C.ar      1 UNK         0.0000 
     23 C23         4.2032   54.4999   27.7536 C.ar      1 UNK         0.0000 
     24 Cl24        2.6114   55.0923   28.0827 Cl        1 UNK         0.0000 
     25 C25         1.9034   52.8960   26.1364 C.1       1 UNK         0.0000 
     26 N26         1.3145   52.3953   26.9981 N.1       1 UNK         0.0000 
     27 N27         0.9410   52.4974   23.4834 N.pl3     1 UNK         0.0000 
     28 O28         6.7293   57.1787   17.4024 O.3       1 UNK         0.0000 
     29 C29         5.3814   57.1854   17.0830 C.ar      1 UNK         0.0000 
     30 C30         4.5403   56.0644   17.1871 C.ar      1 UNK         0.0000 
     31 C31         3.1926   56.1646   16.8525 C.ar      1 UNK         0.0000 
     32 C32         2.6797   57.3794   16.4076 C.ar      1 UNK         0.0000 
     33 C33         3.5044   58.4953   16.2991 C.ar      1 UNK         0.0000 
     34 C34         4.8530   58.3943   16.6304 C.ar      1 UNK         0.0000 
     35 F35         1.3706   57.4735   16.0818 F         1 UNK         0.0000 
     36 H36         9.3176   55.4796   18.7065 H         1 UNK         0.0000 
     37 H37         9.1897   56.2165   17.1153 H         1 UNK         0.0000 
     38 H38         9.1231   57.2252   18.5538 H         1 UNK         0.0000 
     39 H39         7.5281   55.3739   22.3579 H         1 UNK         0.0000 
     40 H40         6.4702   55.2630   24.5057 H         1 UNK         0.0000 
     41 H41         3.9325   53.9719   20.4835 H         1 UNK         0.0000 
     42 H42         6.3754   53.2983   25.4329 H         1 UNK         0.0000 
     43 H43         7.8748   53.3472   27.3023 H         1 UNK         0.0000 
     44 H44         7.1042   54.0966   29.4814 H         1 UNK         0.0000 
     45 H45         4.7378   54.7786   29.8184 H         1 UNK         0.0000 
     46 H46         0.3722   52.1065   24.2208 H         1 UNK         0.0000 
     47 H47         0.8375   52.1083   22.5581 H         1 UNK         0.0000 
     48 H48         4.9105   55.1088   17.5230 H         1 UNK         0.0000 
     49 H49         2.5453   55.3046   16.9379 H         1 UNK         0.0000 
     50 H50         3.1019   59.4440   15.9713 H         1 UNK         0.0000 
     51 H51         5.4848   59.2691   16.5558 H         1 UNK         0.0000 
@<TRIPOS>BOND
     1    1    2 1    
     2    1   36 1    
     3    1   37 1    
     4    1   38 1    
     5    2    3 1    
     6    2    4 1    
     7    2   28 1    
     8    4    5 2    
     9    4    6 1    
    10    6    7 1    
    11    7   12 ar   
    12    7    8 ar   
    13    8    9 ar   
    14    8   39 1    
    15    9   10 ar   
    16    9   40 1    
    17   10   16 1    
    18   10   11 ar   
    19   11   12 ar   
    20   11   13 1    
    21   12   41 1    
    22   13   14 1    
    23   14   15 2    
    24   14   27 1    
    25   15   16 1    
    26   15   25 1    
    27   16   17 1    
    28   16   18 1    
    29   18   23 ar   
    30   18   19 ar   
    31   19   20 ar   
    32   19   42 1    
    33   20   21 ar   
    34   20   43 1    
    35   21   22 ar   
    36   21   44 1    
    37   22   23 ar   
    38   22   45 1    
    39   23   24 1    
    40   25   26 3    
    41   27   46 1    
    42   27   47 1    
    43   28   29 1    
    44   29   34 ar   
    45   29   30 ar   
    46   30   31 ar   
    47   30   48 1    
    48   31   32 ar   
    49   31   49 1    
    50   32   33 ar   
    51   32   35 1    
    52   33   34 ar   
    53   33   50 1    
    54   34   51 1    
@<TRIPOS>SUBSTRUCTURE
     1 UNK         1 GROUP             0       ****    0 ROOT    
