@<TRIPOS>MOLECULE
ZINC21113002_3313
49   53    1
SMALL
USER_CHARGES


@<TRIPOS>ATOM
      1 C1          0.0383   51.0553   22.0147 C.3       1 UNK         0.0000 
      2 C2          1.2883   51.7630   21.5478 C.ar      1 UNK         0.0000 
      3 C3          1.7876   51.9122   20.2566 C.ar      1 UNK         0.0000 
      4 C4          2.9607   52.6413   20.3810 C.ar      1 UNK         0.0000 
      5 N5          3.1102   52.9013   21.7464 N.pl3     1 UNK         0.0000 
      6 N6          2.0702   52.3490   22.4225 N.2       1 UNK         0.0000 
      7 C7          4.1370   53.6105   22.4504 C.ar      1 UNK         0.0000 
      8 N8          5.1168   54.1126   21.7420 N.2       1 UNK         0.0000 
      9 C9          6.1606   54.7892   22.2510 C.ar      1 UNK         0.0000 
     10 O10         7.0580   55.3000   21.5839 O.2       1 UNK         0.0000 
     11 C11         6.1304   54.8971   23.7076 C.ar      1 UNK         0.0000 
     12 C12         6.9132   55.4956   24.6803 C.ar      1 UNK         0.0000 
     13 N13         6.4278   55.2964   25.8848 N.2       1 UNK         0.0000 
     14 N14         5.2771   54.5876   25.7355 N.pl3     1 UNK         0.0000 
     15 C15         5.0600   54.3427   24.3853 C.ar      1 UNK         0.0000 
     16 N16         4.0314   53.6991   23.7520 N.ar      1 UNK         0.0000 
     17 C17         4.5061   54.2437   26.8913 C.ar      1 UNK         0.0000 
     18 C18         5.0361   54.4552   28.1764 C.ar      1 UNK         0.0000 
     19 C19         4.2909   54.1496   29.3075 C.ar      1 UNK         0.0000 
     20 C20         3.0171   53.6117   29.1750 C.ar      1 UNK         0.0000 
     21 C21         2.4733   53.3922   27.9141 C.ar      1 UNK         0.0000 
     22 C22         3.2122   53.7091   26.7740 C.ar      1 UNK         0.0000 
     23 F23         2.3048   53.3026   30.2833 F         1 UNK         0.0000 
     24 N24         3.8608   53.0949   19.4291 N.am      1 UNK         0.0000 
     25 C25         3.6747   53.1874   18.0970 C.2       1 UNK         0.0000 
     26 O26         2.6191   52.9077   17.5197 O.2       1 UNK         0.0000 
     27 C27         4.8575   53.7403   17.3264 C.ar      1 UNK         0.0000 
     28 C28         4.6548   54.3641   16.0892 C.ar      1 UNK         0.0000 
     29 C29         5.7298   54.8989   15.3825 C.ar      1 UNK         0.0000 
     30 C30         7.0320   54.8136   15.8915 C.ar      1 UNK         0.0000 
     31 C31         7.2369   54.1774   17.1233 C.ar      1 UNK         0.0000 
     32 C32         6.1641   53.6435   17.8293 C.ar      1 UNK         0.0000 
     33 N33         8.1781   55.3834   15.1386 N.pl3     1 UNK         0.0000 
     34 O34         9.2996   55.3187   15.6354 O.co2     1 UNK         0.0000 
     35 O35         7.9627   55.8965   14.0421 O.co2     1 UNK         0.0000 
     36 H36        -0.5410   50.6585   21.1804 H         1 UNK         0.0000 
     37 H37         0.2758   50.2159   22.6695 H         1 UNK         0.0000 
     38 H38        -0.6157   51.7263   22.5726 H         1 UNK         0.0000 
     39 H39         1.3482   51.5368   19.3428 H         1 UNK         0.0000 
     40 H40         7.8086   56.0703   24.4885 H         1 UNK         0.0000 
     41 H41         6.0268   54.8650   28.3181 H         1 UNK         0.0000 
     42 H42         4.7039   54.3310   30.2848 H         1 UNK         0.0000 
     43 H43         1.4818   52.9759   27.8164 H         1 UNK         0.0000 
     44 H44         2.7537   53.5322   25.8135 H         1 UNK         0.0000 
     45 H45         4.6777   53.5481   19.8182 H         1 UNK         0.0000 
     46 H46         3.6623   54.4459   15.6672 H         1 UNK         0.0000 
     47 H47         5.5422   55.3841   14.4352 H         1 UNK         0.0000 
     48 H48         8.2277   54.0906   17.5452 H         1 UNK         0.0000 
     49 H49         6.3684   53.1421   18.7644 H         1 UNK         0.0000 
@<TRIPOS>BOND
     1    1    2 1    
     2    1   36 1    
     3    1   37 1    
     4    1   38 1    
     5    2    6 ar   
     6    2    3 ar   
     7    3    4 ar   
     8    3   39 1    
     9    4    5 ar   
    10    4   24 1    
    11    5    6 ar   
    12    5    7 1    
    13    7   16 ar   
    14    7    8 ar   
    15    8    9 ar   
    16    9   10 2    
    17    9   11 ar   
    18   11   15 ar   
    19   11   12 ar   
    20   12   13 ar   
    21   12   40 1    
    22   13   14 ar   
    23   14   15 ar   
    24   14   17 1    
    25   15   16 ar   
    26   17   22 ar   
    27   17   18 ar   
    28   18   19 ar   
    29   18   41 1    
    30   19   20 ar   
    31   19   42 1    
    32   20   21 ar   
    33   20   23 1    
    34   21   22 ar   
    35   21   43 1    
    36   22   44 1    
    37   24   25 am   BACKBONE|DICT|INTERRES
    38   24   45 1    
    39   25   26 2    
    40   25   27 1    
    41   27   32 ar   
    42   27   28 ar   
    43   28   29 ar   
    44   28   46 1    
    45   29   30 ar   
    46   29   47 1    
    47   30   31 ar   
    48   30   33 1    
    49   31   32 ar   
    50   31   48 1    
    51   32   49 1    
    52   33   34 2    
    53   33   35 1    
@<TRIPOS>SUBSTRUCTURE
     1 UNK         1 GROUP             0       ****    0 ROOT    
