ZINC33513710_3396
                    3D
 Schrodinger Suite 2024-2.
 57 61  0  0  1  0            999 V2000
    7.2607   54.3633   23.0872 C   0  0  0  0  0  0
    5.7710   54.1162   23.2354 C   0  0  0  0  0  0
    5.1720   53.6402   22.1172 N   0  0  0  0  0  0
    3.8378   53.4018   22.1248 C   0  0  0  0  0  0
    3.0374   53.6314   23.2691 C   0  0  0  0  0  0
    3.6907   54.1149   24.4172 C   0  0  0  0  0  0
    5.0746   54.3648   24.4310 C   0  0  0  0  0  0
    5.7678   54.8882   25.6745 C   0  0  0  0  0  0
    6.7044   55.6926   25.5982 O   0  0  0  0  0  0
    5.3011   54.4146   26.8423 N   0  0  0  0  0  0
    5.8275   54.7927   28.0281 N   0  0  0  0  0  0
    5.0940   54.6484   29.0622 C   0  0  0  0  0  0
    3.6769   54.2609   29.1232 C   0  0  0  0  0  0
    3.2462   53.2722   30.0263 C   0  0  0  0  0  0
    1.8870   52.9722   30.0647 C   0  0  0  0  0  0
    0.9837   53.6116   29.2634 C   0  0  0  0  0  0
    1.3728   54.5845   28.3549 C   0  0  0  0  0  0
    2.7281   54.9059   28.3016 C   0  0  0  0  0  0
   -0.2689   53.1787   29.5483 O   0  0  0  0  0  0
   -0.1043   52.0984   30.4231 C   0  0  0  0  0  0
    1.2304   52.0968   30.8670 O   0  0  0  0  0  0
    1.5396   53.4036   23.3318 C   0  0  0  0  0  0
    0.8558   54.0968   24.0818 O   0  0  0  0  0  0
    1.0279   52.4041   22.5904 N   0  0  0  0  0  0
   -0.2928   52.0966   22.5857 N   0  0  0  0  0  0
   -0.6639   51.1419   21.8218 C   0  0  0  0  0  0
    0.1603   50.2102   21.0338 C   0  0  0  0  0  0
   -0.2599   49.8516   19.7389 C   0  0  0  0  0  0
    0.5498   49.0025   18.9947 C   0  0  0  0  0  0
    1.7139   48.4982   19.4957 C   0  0  0  0  0  0
    2.1410   48.7912   20.7834 C   0  0  0  0  0  0
    1.3503   49.6490   21.5513 C   0  0  0  0  0  0
    2.2901   47.6892   18.5714 O   0  0  0  0  0  0
    1.5464   47.8689   17.3972 C   0  0  0  0  0  0
    0.3484   48.5120   17.7431 O   0  0  0  0  0  0
    3.3248   52.8931   20.7801 C   0  0  0  0  0  0
    7.5039   55.3976   23.3272 H   0  0  0  0  0  0
    7.8236   53.6984   23.7435 H   0  0  0  0  0  0
    7.6289   54.2291   22.0819 H   0  0  0  0  0  0
    3.1056   54.3051   25.3071 H   0  0  0  0  0  0
    4.4733   53.8375   26.8938 H   0  0  0  0  0  0
    5.5152   54.8951   30.0331 H   0  0  0  0  0  0
    3.9430   52.7622   30.6774 H   0  0  0  0  0  0
    0.6813   55.0955   27.7057 H   0  0  0  0  0  0
    3.0265   55.6935   27.6239 H   0  0  0  0  0  0
   -0.3285   51.1820   29.8721 H   0  0  0  0  0  0
   -0.7786   52.1952   31.2729 H   0  0  0  0  0  0
    1.6092   51.8516   21.9768 H   0  0  0  0  0  0
   -1.7289   50.9604   21.7077 H   0  0  0  0  0  0
   -1.1768   50.2386   19.3176 H   0  0  0  0  0  0
    3.0432   48.3649   21.1951 H   0  0  0  0  0  0
    1.6690   49.8614   22.5631 H   0  0  0  0  0  0
    2.1136   48.5032   16.7139 H   0  0  0  0  0  0
    1.3528   46.9128   16.9131 H   0  0  0  0  0  0
    2.3432   53.2967   20.5315 H   0  0  0  0  0  0
    3.9862   53.1791   19.9594 H   0  0  0  0  0  0
    3.2693   51.8037   20.7830 H   0  0  0  0  0  0
  1  2  1  0  0  0
  1 37  1  0  0  0
  1 38  1  0  0  0
  1 39  1  0  0  0
  2  7  2  0  0  0
  2  3  1  0  0  0
  3  4  2  0  0  0
  4  5  1  0  0  0
  4 36  1  0  0  0
  5  6  2  0  0  0
  5 22  1  0  0  0
  6  7  1  0  0  0
  6 40  1  0  0  0
  7  8  1  0  0  0
  8  9  2  0  0  0
  8 10  1  0  0  0
 10 11  1  0  0  0
 10 41  1  0  0  0
 11 12  2  0  0  0
 12 13  1  0  0  0
 12 42  1  0  0  0
 13 18  2  0  0  0
 13 14  1  0  0  0
 14 15  2  0  0  0
 14 43  1  0  0  0
 15 21  1  0  0  0
 15 16  1  0  0  0
 16 17  2  0  0  0
 16 19  1  0  0  0
 17 18  1  0  0  0
 17 44  1  0  0  0
 18 45  1  0  0  0
 19 20  1  0  0  0
 20 21  1  0  0  0
 20 46  1  0  0  0
 20 47  1  0  0  0
 22 23  2  0  0  0
 22 24  1  0  0  0
 24 25  1  0  0  0
 24 48  1  0  0  0
 25 26  2  0  0  0
 26 27  1  0  0  0
 26 49  1  0  0  0
 27 32  2  0  0  0
 27 28  1  0  0  0
 28 29  2  0  0  0
 28 50  1  0  0  0
 29 35  1  0  0  0
 29 30  1  0  0  0
 30 31  2  0  0  0
 30 33  1  0  0  0
 31 32  1  0  0  0
 31 51  1  0  0  0
 32 52  1  0  0  0
 33 34  1  0  0  0
 34 35  1  0  0  0
 34 53  1  0  0  0
 34 54  1  0  0  0
 36 55  1  0  0  0
 36 56  1  0  0  0
 36 57  1  0  0  0
M  END
> <i_i_glide_confnum>
32

> <i_i_glide_lignum>
3397

> <i_i_glide_posenum>
369

> <i_i_glide_rotatable_bonds>
8

> <i_m_Source_File_Index>
5907

> <b_m_subgroup_collapsed>
0

> <r_i_docking_score>
-6.81432

> <r_i_glide_ecoul>
-7.37772

> <r_i_glide_eff_state_penalty>
0

> <r_i_glide_einternal>
11.1575

> <r_i_glide_emodel>
-69.7833

> <r_i_glide_energy>
-54.8573

> <r_i_glide_erotb>
0.513326

> <r_i_glide_esite>
-0.157784

> <r_i_glide_evdw>
-47.4796

> <r_i_glide_gscore>
-6.81432

> <r_i_glide_hbond>
-0.32

> <r_i_glide_ligand_efficiency>
-0.189287

> <r_i_glide_ligand_efficiency_ln>
-1.4867

> <r_i_glide_ligand_efficiency_sa>
-0.625011

> <r_i_glide_lipo>
-2.40368

> <r_i_glide_metal>
0

> <r_i_glide_rewards>
-0.965541

> <s_i_glide_gridfile>
wee1_glide-grid

> <s_m_Source_File>
wee1_decoys_glide_SP.sdf

> <s_m_Source_Path>
/Users/zhangxujun/Desktop

> <s_m_entry_id>
6182

> <s_m_entry_name>
wee1_decoys_glide_SP.5907

> <s_m_subgroup_title>
wee1_decoys_glide_SP

> <s_m_subgroupid>
wee1_decoys_glide_SP


$$$$
