@<TRIPOS>MOLECULE
ZINC63351175_3192
65   70    1
SMALL
USER_CHARGES


@<TRIPOS>ATOM
      1 C1         -2.2662   52.7641   24.5258 C.3       1 UNK         0.0000 
      2 C2         -1.1893   51.6956   24.2700 C.3       1 UNK         0.0000 
      3 H3         -1.0502   51.1432   25.2026 H         1 UNK         0.0000 
      4 C4          0.1521   52.3296   23.8945 C.ar      1 UNK         0.0000 
      5 C5          1.0662   52.7832   24.8602 C.ar      1 UNK         0.0000 
      6 C6          2.3103   53.2945   24.4482 C.ar      1 UNK         0.0000 
      7 C7          2.6080   53.3185   23.0655 C.ar      1 UNK         0.0000 
      8 C8          1.7182   52.8749   22.0848 C.ar      1 UNK         0.0000 
      9 C9          0.4874   52.3979   22.5287 C.ar      1 UNK         0.0000 
     10 O10        -0.4079   52.0758   21.5275 O.3       1 UNK         0.0000 
     11 C11        -1.4620   51.2380   21.7492 C.2       1 UNK         0.0000 
     12 O12        -2.2302   51.0560   20.8056 O.2       1 UNK         0.0000 
     13 C13        -1.6196   50.6684   23.1797 C.3       1 UNK         0.0000 
     14 H14        -2.6936   50.5008   23.2546 H         1 UNK         0.0000 
     15 C15        -0.8845   49.2922   23.3007 C.3       1 UNK         0.0000 
     16 C16        -1.4987   48.2644   24.2709 C.2       1 UNK         0.0000 
     17 O17        -0.8959   47.2119   24.4802 O.2       1 UNK         0.0000 
     18 N18        -2.7085   48.5283   24.8065 N.am      1 UNK         0.0000 
     19 C19        -3.5626   47.5976   25.5724 C.3       1 UNK         0.0000 
     20 H20        -2.9808   47.1833   26.4004 H         1 UNK         0.0000 
     21 C21        -4.8182   48.3152   26.1381 C.3       1 UNK         0.0000 
     22 C22        -4.5211   49.1475   27.3805 C.2       1 UNK         0.0000 
     23 C23        -5.0112   49.0462   28.6323 C.2       1 UNK         0.0000 
     24 C24        -5.9636   48.0892   29.2161 C.2       1 UNK         0.0000 
     25 C25        -6.3180   48.1754   30.5144 C.2       1 UNK         0.0000 
     26 C26        -5.7201   49.2329   31.3172 C.2       1 UNK         0.0000 
     27 C27        -4.8345   50.1201   30.7957 C.2       1 UNK         0.0000 
     28 C28        -4.4756   50.0481   29.4434 C.2       1 UNK         0.0000 
     29 N29        -3.6481   50.7983   28.7590 N.pl3     1 UNK         0.0000 
     30 C30        -3.5896   50.3432   27.3603 C.3       1 UNK         0.0000 
     31 C31        -4.0245   46.3903   24.6817 C.2       1 UNK         0.0000 
     32 O32        -4.3107   46.6647   23.4932 O.co2     1 UNK         0.0000 
     33 O33        -4.0956   45.2966   25.2824 O.co2     1 UNK         0.0000 
     34 O34         3.8591   53.8110   22.8362 O.3       1 UNK         0.0000 
     35 C35         4.3760   54.0906   24.0629 C.2       1 UNK         0.0000 
     36 C36         3.4777   53.8168   25.0924 C.2       1 UNK         0.0000 
     37 C37         3.8159   54.0430   26.5615 C.3       1 UNK         0.0000 
     38 C38         5.3506   54.2133   26.7222 C.3       1 UNK         0.0000 
     39 C39         5.9827   55.1147   25.6383 C.3       1 UNK         0.0000 
     40 C40         5.8109   54.5510   24.2081 C.3       1 UNK         0.0000 
     41 H41        -3.2541   52.3190   24.6400 H         1 UNK         0.0000 
     42 H42        -2.0526   53.2961   25.4504 H         1 UNK         0.0000 
     43 H43        -2.3260   53.4918   23.7156 H         1 UNK         0.0000 
     44 H44         0.8217   52.7231   25.9109 H         1 UNK         0.0000 
     45 H45         1.9689   52.8974   21.0350 H         1 UNK         0.0000 
     46 H46        -0.8578   48.7794   22.3366 H         1 UNK         0.0000 
     47 H47         0.1585   49.4425   23.5826 H         1 UNK         0.0000 
     48 H48        -3.1420   49.4079   24.5823 H         1 UNK         0.0000 
     49 H49        -5.2778   48.9514   25.3794 H         1 UNK         0.0000 
     50 H50        -5.5800   47.5864   26.4128 H         1 UNK         0.0000 
     51 H51        -6.4025   47.2970   28.6263 H         1 UNK         0.0000 
     52 H52        -7.0178   47.4796   30.9517 H         1 UNK         0.0000 
     53 H53        -5.9683   49.3015   32.3676 H         1 UNK         0.0000 
     54 H54        -4.4005   50.8625   31.4486 H         1 UNK         0.0000 
     55 H55        -2.5517   50.0976   27.1342 H         1 UNK         0.0000 
     56 H56        -3.9304   51.1558   26.7208 H         1 UNK         0.0000 
     57 H57         3.2998   54.9277   26.9320 H         1 UNK         0.0000 
     58 H58         3.4760   53.2068   27.1743 H         1 UNK         0.0000 
     59 H59         5.5732   54.6134   27.7120 H         1 UNK         0.0000 
     60 H60         5.8267   53.2304   26.6863 H         1 UNK         0.0000 
     61 H61         5.5149   56.0990   25.6816 H         1 UNK         0.0000 
     62 H62         7.0428   55.2718   25.8472 H         1 UNK         0.0000 
     63 H63         6.4935   53.7135   24.0521 H         1 UNK         0.0000 
     64 H64         6.0627   55.3128   23.4723 H         1 UNK         0.0000 
     65 H65        -3.1002   51.5650   29.1355 H         1 UNK         0.0000 
@<TRIPOS>BOND
     1    1    2 1    
     2    1   41 1    
     3    1   42 1    
     4    1   43 1    
     5    2    3 1    
     6    2   13 1    
     7    2    4 1    
     8    4    9 ar   
     9    4    5 ar   
    10    5    6 ar   
    11    5   44 1    
    12    6   36 1    
    13    6    7 ar   
    14    7    8 ar   
    15    7   34 1    
    16    8    9 ar   
    17    8   45 1    
    18    9   10 1    
    19   10   11 1    
    20   11   12 2    
    21   11   13 1    
    22   13   14 1    
    23   13   15 1    
    24   15   16 1    
    25   15   46 1    
    26   15   47 1    
    27   16   17 2    
    28   16   18 am   BACKBONE|DICT|INTERRES
    29   18   19 1    
    30   18   48 1    
    31   19   20 1    
    32   19   21 1    
    33   19   31 1    
    34   21   22 1    
    35   21   49 1    
    36   21   50 1    
    37   22   30 1    
    38   22   23 2    
    39   23   28 1    
    40   23   24 1    
    41   24   25 2    
    42   24   51 1    
    43   25   26 1    
    44   25   52 1    
    45   26   27 2    
    46   26   53 1    
    47   27   28 1    
    48   27   54 1    
    49   28   29 2    
    50   29   30 1    
    51   29   65 1    
    52   30   55 1    
    53   30   56 1    
    54   31   32 2    
    55   31   33 1    
    56   34   35 1    
    57   35   40 1    
    58   35   36 2    
    59   36   37 1    
    60   37   38 1    
    61   37   57 1    
    62   37   58 1    
    63   38   39 1    
    64   38   59 1    
    65   38   60 1    
    66   39   40 1    
    67   39   61 1    
    68   39   62 1    
    69   40   63 1    
    70   40   64 1    
@<TRIPOS>SUBSTRUCTURE
     1 UNK         1 GROUP             0       ****    0 ROOT    
