@<TRIPOS>MOLECULE
ZINC23296591_4332
63   66    1
SMALL
USER_CHARGES


@<TRIPOS>ATOM
      1 C1          2.6659   52.2419   28.5824 C.3       1 UNK         0.0000 
      2 C2          2.6781   53.7770   28.3619 C.3       1 UNK         0.0000 
      3 C3          1.2239   54.2232   28.0691 C.3       1 UNK         0.0000 
      4 C4          3.0950   54.4571   29.6935 C.3       1 UNK         0.0000 
      5 C5          3.6505   54.2131   27.1960 C.3       1 UNK         0.0000 
      6 H6          3.6967   55.2962   27.2527 H         1 UNK         0.0000 
      7 C7          5.1050   53.6914   27.3738 C.3       1 UNK         0.0000 
      8 C8          6.0978   54.4121   26.4407 C.3       1 UNK         0.0000 
      9 C9          5.5451   54.3306   25.0254 C.2       1 UNK         0.0000 
     10 C10         4.2029   54.0861   24.7059 C.2       1 UNK         0.0000 
     11 C11         3.9870   54.0965   23.3173 C.2       1 UNK         0.0000 
     12 C12         5.1531   54.2761   22.5695 C.2       1 UNK         0.0000 
     13 S13         6.5177   54.5599   23.6110 S.3       1 UNK         0.0000 
     14 C14         5.3324   54.3477   21.1383 C.2       1 UNK         0.0000 
     15 O15         6.3247   54.8969   20.6520 O.2       1 UNK         0.0000 
     16 N16         4.3740   53.7271   20.4119 N.am      1 UNK         0.0000 
     17 N17         4.5352   53.5559   19.0261 N.am      1 UNK         0.0000 
     18 C18         4.2943   54.5596   18.1527 C.2       1 UNK         0.0000 
     19 O19         3.9054   55.6825   18.4818 O.2       1 UNK         0.0000 
     20 C20         4.5673   54.2872   16.6565 C.3       1 UNK         0.0000 
     21 C21         6.0907   54.1065   16.4336 C.3       1 UNK         0.0000 
     22 C22         6.3403   53.8593   14.9278 C.3       1 UNK         0.0000 
     23 N23         5.6045   52.6312   14.5530 N.am      1 UNK         0.0000 
     24 C24         4.1309   52.7504   14.6869 C.3       1 UNK         0.0000 
     25 C25         3.8412   52.9981   16.1882 C.3       1 UNK         0.0000 
     26 C26         6.1465   51.5024   14.0092 C.2       1 UNK         0.0000 
     27 O27         5.4417   50.6274   13.4936 O.2       1 UNK         0.0000 
     28 C28         7.5873   51.2968   14.0490 C.2       1 UNK         0.0000 
     29 C29         8.5383   51.6958   15.0006 C.2       1 UNK         0.0000 
     30 C30         9.8198   51.1835   14.7646 C.2       1 UNK         0.0000 
     31 C31         9.8593   50.3257   13.6787 C.2       1 UNK         0.0000 
     32 S32         8.2996   50.1299   12.9535 S.3       1 UNK         0.0000 
     33 C33         3.1291   53.8445   25.7682 C.3       1 UNK         0.0000 
     34 H34         1.9500   51.9553   29.3569 H         1 UNK         0.0000 
     35 H35         3.6379   51.8629   28.9005 H         1 UNK         0.0000 
     36 H36         2.3801   51.6967   27.6826 H         1 UNK         0.0000 
     37 H37         1.1652   55.2894   27.8372 H         1 UNK         0.0000 
     38 H38         0.7967   53.6751   27.2278 H         1 UNK         0.0000 
     39 H39         0.5621   54.0415   28.9194 H         1 UNK         0.0000 
     40 H40         3.1500   55.5425   29.5883 H         1 UNK         0.0000 
     41 H41         2.3686   54.2476   30.4806 H         1 UNK         0.0000 
     42 H42         4.0616   54.1110   30.0573 H         1 UNK         0.0000 
     43 H43         5.4559   53.8752   28.3886 H         1 UNK         0.0000 
     44 H44         5.1519   52.6054   27.2698 H         1 UNK         0.0000 
     45 H45         6.2119   55.4506   26.7496 H         1 UNK         0.0000 
     46 H46         7.0802   53.9481   26.5111 H         1 UNK         0.0000 
     47 H47         3.0112   53.9434   22.8770 H         1 UNK         0.0000 
     48 H48         3.5013   53.3678   20.7693 H         1 UNK         0.0000 
     49 H49         4.8778   52.6407   18.7668 H         1 UNK         0.0000 
     50 H50         4.1706   55.1516   16.1198 H         1 UNK         0.0000 
     51 H51         6.6345   55.0211   16.6782 H         1 UNK         0.0000 
     52 H52         6.5010   53.2485   16.9744 H         1 UNK         0.0000 
     53 H53         5.8951   54.6764   14.3546 H         1 UNK         0.0000 
     54 H54         7.3857   53.8860   14.6178 H         1 UNK         0.0000 
     55 H55         3.8016   53.6037   14.0878 H         1 UNK         0.0000 
     56 H56         3.5889   51.8754   14.3248 H         1 UNK         0.0000 
     57 H57         4.1866   52.1013   16.7085 H         1 UNK         0.0000 
     58 H58         2.7583   53.1072   16.2716 H         1 UNK         0.0000 
     59 H59         8.3339   52.3189   15.8570 H         1 UNK         0.0000 
     60 H60        10.6826   51.4092   15.3761 H         1 UNK         0.0000 
     61 H61        10.7055   49.7801   13.2840 H         1 UNK         0.0000 
     62 H62         2.8312   52.7981   25.7319 H         1 UNK         0.0000 
     63 H63         2.2436   54.4274   25.5210 H         1 UNK         0.0000 
@<TRIPOS>BOND
     1    1    2 1    
     2    1   34 1    
     3    1   35 1    
     4    1   36 1    
     5    2    3 1    
     6    2    4 1    
     7    2    5 1    
     8    3   37 1    
     9    3   38 1    
    10    3   39 1    
    11    4   40 1    
    12    4   41 1    
    13    4   42 1    
    14    5    6 1    
    15    5   33 1    
    16    5    7 1    
    17    7    8 1    
    18    7   43 1    
    19    7   44 1    
    20    8    9 1    
    21    8   45 1    
    22    8   46 1    
    23    9   13 1    
    24    9   10 2    
    25   10   11 1    
    26   10   33 1    
    27   11   12 2    
    28   11   47 1    
    29   12   13 1    
    30   12   14 1    
    31   14   15 2    
    32   14   16 am   BACKBONE|DICT|INTERRES
    33   16   17 1    
    34   16   48 1    
    35   17   18 am   BACKBONE|DICT|INTERRES
    36   17   49 1    
    37   18   19 2    
    38   18   20 1    
    39   20   25 1    
    40   20   21 1    
    41   20   50 1    
    42   21   22 1    
    43   21   51 1    
    44   21   52 1    
    45   22   23 1    
    46   22   53 1    
    47   22   54 1    
    48   23   24 1    
    49   23   26 am   BACKBONE|DICT|INTERRES
    50   24   25 1    
    51   24   55 1    
    52   24   56 1    
    53   25   57 1    
    54   25   58 1    
    55   26   27 2    
    56   26   28 1    
    57   28   32 1    
    58   28   29 2    
    59   29   30 1    
    60   29   59 1    
    61   30   31 2    
    62   30   60 1    
    63   31   32 1    
    64   31   61 1    
    65   33   62 1    
    66   33   63 1    
@<TRIPOS>SUBSTRUCTURE
     1 UNK         1 GROUP             0       ****    0 ROOT    
