@<TRIPOS>MOLECULE
ZINC36024453_4862
66   69    1
SMALL
USER_CHARGES


@<TRIPOS>ATOM
      1 C1          1.2550   52.2761   30.1977 C.3       1 UNK         0.0000 
      2 C2         -0.1227   52.4475   29.5354 C.3       1 UNK         0.0000 
      3 C3         -0.4007   51.4687   28.3673 C.3       1 UNK         0.0000 
      4 H4         -0.4359   50.4986   28.8410 H         1 UNK         0.0000 
      5 C5         -1.8216   51.6957   27.8138 C.3       1 UNK         0.0000 
      6 C6          0.7272   51.3974   27.2828 C.3       1 UNK         0.0000 
      7 H7          1.6182   50.9117   27.6779 H         1 UNK         0.0000 
      8 C8          1.1091   52.7202   26.6127 C.2       1 UNK         0.0000 
      9 O9          1.5095   53.6982   27.2417 O.2       1 UNK         0.0000 
     10 N10         0.9710   52.5988   25.2739 N.am      1 UNK         0.0000 
     11 C11         0.3718   51.3210   24.8511 C.3       1 UNK         0.0000 
     12 N12         0.2994   50.5152   26.1556 N.4       1 UNK         0.0000 
     13 C13        -1.1039   51.4650   24.3553 C.3       1 UNK         0.0000 
     14 C14        -1.2668   51.7481   22.8488 C.3       1 UNK         0.0000 
     15 N15        -0.4512   50.8027   22.0517 N.pl3     1 UNK         0.0000 
     16 C16         0.9953   50.8592   22.3680 C.3       1 UNK         0.0000 
     17 C17         1.2436   50.5089   23.8482 C.3       1 UNK         0.0000 
     18 S18        -0.8065   50.8487   20.3185 S.o2      1 UNK         0.0000 
     19 O19        -2.2629   50.7319   20.1622 O.2       1 UNK         0.0000 
     20 O20        -0.0834   51.9907   19.7483 O.2       1 UNK         0.0000 
     21 C21        -0.0828   49.3464   19.6687 C.ar      1 UNK         0.0000 
     22 C22         1.1725   49.3746   19.0524 C.ar      1 UNK         0.0000 
     23 C23         1.7385   48.1946   18.5754 C.ar      1 UNK         0.0000 
     24 C24         1.0584   46.9848   18.7108 C.ar      1 UNK         0.0000 
     25 C25        -0.1950   46.9412   19.3369 C.ar      1 UNK         0.0000 
     26 C26        -0.7597   48.1306   19.8141 C.ar      1 UNK         0.0000 
     27 C27        -0.9464   45.6245   19.5134 C.3       1 UNK         0.0000 
     28 F28        -0.1700   44.5662   19.2765 F         1 UNK         0.0000 
     29 F29        -1.4088   45.5249   20.7590 F         1 UNK         0.0000 
     30 F30        -1.9768   45.5842   18.6703 F         1 UNK         0.0000 
     31 C31         1.3485   53.7129   24.3748 C.3       1 UNK         0.0000 
     32 C32         2.8236   53.8331   23.9845 C.ar      1 UNK         0.0000 
     33 C33         3.8030   54.0945   24.9509 C.ar      1 UNK         0.0000 
     34 C34         5.1420   54.1954   24.5832 C.ar      1 UNK         0.0000 
     35 C35         5.5015   54.0648   23.2454 C.ar      1 UNK         0.0000 
     36 C36         4.5307   53.8661   22.2682 C.ar      1 UNK         0.0000 
     37 C37         3.1916   53.7640   22.6366 C.ar      1 UNK         0.0000 
     38 F38         6.8038   54.1297   22.8942 F         1 UNK         0.0000 
     39 H39         1.1565   52.1538   31.2754 H         1 UNK         0.0000 
     40 H40         1.7839   51.4056   29.8181 H         1 UNK         0.0000 
     41 H41         1.8836   53.1464   30.0198 H         1 UNK         0.0000 
     42 H42        -0.2423   53.4784   29.2017 H         1 UNK         0.0000 
     43 H43        -0.8830   52.3014   30.3046 H         1 UNK         0.0000 
     44 H44        -1.8971   52.6410   27.2780 H         1 UNK         0.0000 
     45 H45        -2.1257   50.9003   27.1360 H         1 UNK         0.0000 
     46 H46        -2.5557   51.6878   28.6203 H         1 UNK         0.0000 
     47 H47         0.8766   49.6877   26.0893 H         1 UNK         0.0000 
     48 H48        -1.6491   50.5371   24.5465 H         1 UNK         0.0000 
     49 H49        -1.6403   52.2158   24.9363 H         1 UNK         0.0000 
     50 H50        -2.3209   51.6463   22.5842 H         1 UNK         0.0000 
     51 H51        -0.9023   52.7621   22.6833 H         1 UNK         0.0000 
     52 H52         1.5487   50.1602   21.7391 H         1 UNK         0.0000 
     53 H53         1.3335   51.8834   22.2380 H         1 UNK         0.0000 
     54 H54         2.3041   50.6154   24.0775 H         1 UNK         0.0000 
     55 H55         1.0494   49.4393   23.9580 H         1 UNK         0.0000 
     56 H56         1.7149   50.3039   18.9353 H         1 UNK         0.0000 
     57 H57         2.7068   48.2194   18.0957 H         1 UNK         0.0000 
     58 H58         1.5132   46.0840   18.3231 H         1 UNK         0.0000 
     59 H59        -1.7265   48.1109   20.2991 H         1 UNK         0.0000 
     60 H60         1.0855   54.6560   24.8472 H         1 UNK         0.0000 
     61 H61         0.7396   53.6804   23.4752 H         1 UNK         0.0000 
     62 H62         3.5477   54.2028   25.9914 H         1 UNK         0.0000 
     63 H63         5.9014   54.3640   25.3325 H         1 UNK         0.0000 
     64 H64         4.8163   53.7926   21.2290 H         1 UNK         0.0000 
     65 H65         2.4481   53.6404   21.8635 H         1 UNK         0.0000 
     66 H66        -0.6405   50.1735   26.3101 H         1 UNK         0.0000 
@<TRIPOS>BOND
     1    1    2 1    
     2    1   39 1    
     3    1   40 1    
     4    1   41 1    
     5    2    3 1    
     6    2   42 1    
     7    2   43 1    
     8    3    4 1    
     9    3    5 1    
    10    3    6 1    
    11    5   44 1    
    12    5   45 1    
    13    5   46 1    
    14    6    7 1    
    15    6   12 1    
    16    6    8 1    
    17    8    9 2    
    18    8   10 am   BACKBONE|DICT|INTERRES
    19   10   11 1    
    20   10   31 1    
    21   11   17 1    
    22   11   12 1    
    23   11   13 1    
    24   12   47 1    
    25   12   66 1    
    26   13   14 1    
    27   13   48 1    
    28   13   49 1    
    29   14   15 1    
    30   14   50 1    
    31   14   51 1    
    32   15   16 1    
    33   15   18 1    
    34   16   17 1    
    35   16   52 1    
    36   16   53 1    
    37   17   54 1    
    38   17   55 1    
    39   18   19 2    
    40   18   20 2    
    41   18   21 1    
    42   21   26 ar   
    43   21   22 ar   
    44   22   23 ar   
    45   22   56 1    
    46   23   24 ar   
    47   23   57 1    
    48   24   25 ar   
    49   24   58 1    
    50   25   26 ar   
    51   25   27 1    
    52   26   59 1    
    53   27   28 1    
    54   27   29 1    
    55   27   30 1    
    56   31   32 1    
    57   31   60 1    
    58   31   61 1    
    59   32   37 ar   
    60   32   33 ar   
    61   33   34 ar   
    62   33   62 1    
    63   34   35 ar   
    64   34   63 1    
    65   35   36 ar   
    66   35   38 1    
    67   36   37 ar   
    68   36   64 1    
    69   37   65 1    
@<TRIPOS>SUBSTRUCTURE
     1 UNK         1 GROUP             0       ****    0 ROOT    
