@<TRIPOS>MOLECULE
ZINC12167461_4975
69   73    1
SMALL
USER_CHARGES


@<TRIPOS>ATOM
      1 C1          2.4015   52.7948   29.7458 C.3       1 UNK         0.0000 
      2 C2          3.2886   53.2772   28.6120 C.ar      1 UNK         0.0000 
      3 C3          2.7163   53.7292   27.4263 C.ar      1 UNK         0.0000 
      4 C4          3.5282   54.1520   26.3766 C.ar      1 UNK         0.0000 
      5 C5          4.9297   54.1403   26.4886 C.ar      1 UNK         0.0000 
      6 C6          5.5086   53.6971   27.6983 C.ar      1 UNK         0.0000 
      7 C7          4.6775   53.2671   28.7419 C.ar      1 UNK         0.0000 
      8 C8          7.0194   53.6391   27.9023 C.3       1 UNK         0.0000 
      9 C9          5.7612   54.6003   25.3119 C.2       1 UNK         0.0000 
     10 O10         6.7038   55.3808   25.4624 O.2       1 UNK         0.0000 
     11 N11         5.3412   54.0967   24.1326 N.am      1 UNK         0.0000 
     12 C12         5.6698   54.4811   22.8250 C.ar      1 UNK         0.0000 
     13 C13         4.7812   54.0650   21.8346 C.ar      1 UNK         0.0000 
     14 C14         4.9454   54.4964   20.5238 C.ar      1 UNK         0.0000 
     15 C15         6.0004   55.3502   20.1779 C.ar      1 UNK         0.0000 
     16 C16         6.9344   55.6969   21.1651 C.ar      1 UNK         0.0000 
     17 C17         6.7733   55.2689   22.4796 C.ar      1 UNK         0.0000 
     18 N18         6.0588   55.8831   18.8916 N.pl3     1 UNK         0.0000 
     19 C19         6.8811   57.0613   18.5504 C.3       1 UNK         0.0000 
     20 C20         6.2550   57.9042   17.4183 C.3       1 UNK         0.0000 
     21 C21         5.8912   57.0501   16.1936 C.3       1 UNK         0.0000 
     22 C22         5.1835   55.7354   16.5586 C.3       1 UNK         0.0000 
     23 C23         5.9061   55.0087   17.7128 C.3       1 UNK         0.0000 
     24 C24         3.7789   58.5081   15.5679 C.3       1 UNK         0.0000 
     25 C25         3.0671   59.0630   14.3215 C.3       1 UNK         0.0000 
     26 C26         1.8295   59.8604   14.6681 C.ar      1 UNK         0.0000 
     27 N27         1.9044   61.0871   15.2817 N.pl3     1 UNK         0.0000 
     28 H28         2.7881   61.4915   15.6055 H         1 UNK         0.0000 
     29 C29         0.6175   61.5464   15.4391 C.ar      1 UNK         0.0000 
     30 C30         0.0628   62.7122   15.9771 C.ar      1 UNK         0.0000 
     31 C31        -1.3314   62.8049   15.9606 C.ar      1 UNK         0.0000 
     32 C32        -2.1334   61.7874   15.4387 C.ar      1 UNK         0.0000 
     33 C33        -1.5755   60.6246   14.9033 C.ar      1 UNK         0.0000 
     34 C34        -0.1781   60.5028   14.8992 C.ar      1 UNK         0.0000 
     35 N35         0.6002   59.4777   14.4280 N.2       1 UNK         0.0000 
     36 H36         2.9739   52.4956   30.6235 H         1 UNK         0.0000 
     37 H37         1.7075   53.5832   30.0417 H         1 UNK         0.0000 
     38 H38         1.8033   51.9446   29.4153 H         1 UNK         0.0000 
     39 H39         1.6422   53.7464   27.3113 H         1 UNK         0.0000 
     40 H40         3.0481   54.4976   25.4715 H         1 UNK         0.0000 
     41 H41         5.1045   52.8999   29.6614 H         1 UNK         0.0000 
     42 H42         7.4756   52.9716   27.1710 H         1 UNK         0.0000 
     43 H43         7.4614   54.6252   27.7713 H         1 UNK         0.0000 
     44 H44         7.2981   53.2971   28.8944 H         1 UNK         0.0000 
     45 H45         4.5802   53.4401   24.2039 H         1 UNK         0.0000 
     46 H46         3.9251   53.4499   22.0768 H         1 UNK         0.0000 
     47 H47         4.1983   54.2166   19.7951 H         1 UNK         0.0000 
     48 H48         7.7891   56.3113   20.9326 H         1 UNK         0.0000 
     49 H49         7.5040   55.5792   23.2110 H         1 UNK         0.0000 
     50 H50         6.9502   57.7176   19.4188 H         1 UNK         0.0000 
     51 H51         7.8960   56.7447   18.3020 H         1 UNK         0.0000 
     52 H52         5.3694   58.3836   17.8338 H         1 UNK         0.0000 
     53 H53         6.8859   58.7476   17.1318 H         1 UNK         0.0000 
     54 H54         6.8353   56.7468   15.7342 H         1 UNK         0.0000 
     55 H55         5.0697   55.0950   15.6828 H         1 UNK         0.0000 
     56 H56         4.1589   55.9199   16.8825 H         1 UNK         0.0000 
     57 H57         6.8952   54.6692   17.3982 H         1 UNK         0.0000 
     58 H58         5.3413   54.1065   17.9522 H         1 UNK         0.0000 
     59 H59         3.1743   57.7608   16.0840 H         1 UNK         0.0000 
     60 H60         4.0474   59.2966   16.2735 H         1 UNK         0.0000 
     61 H61         3.7523   59.6997   13.7576 H         1 UNK         0.0000 
     62 H62         2.8196   58.2436   13.6439 H         1 UNK         0.0000 
     63 H63         0.6794   63.5085   16.3702 H         1 UNK         0.0000 
     64 H64        -1.8047   63.6938   16.3551 H         1 UNK         0.0000 
     65 H65        -3.2074   61.9071   15.4386 H         1 UNK         0.0000 
     66 H66        -2.1997   59.8429   14.4957 H         1 UNK         0.0000 
     67 N67         5.1025   57.8472   15.1329 N.4       1 UNK         0.0000 
     68 H68         5.7048   58.5768   14.7759 H         1 UNK         0.0000 
     69 H69         4.8969   57.2171   14.3709 H         1 UNK         0.0000 
@<TRIPOS>BOND
     1    1    2 1    
     2    1   36 1    
     3    1   37 1    
     4    1   38 1    
     5    2    7 ar   
     6    2    3 ar   
     7    3    4 ar   
     8    3   39 1    
     9    4    5 ar   
    10    4   40 1    
    11    5    6 ar   
    12    5    9 1    
    13    6    7 ar   
    14    6    8 1    
    15    7   41 1    
    16    8   42 1    
    17    8   43 1    
    18    8   44 1    
    19    9   10 2    
    20    9   11 am   BACKBONE|DICT|INTERRES
    21   11   12 1    
    22   11   45 1    
    23   12   17 ar   
    24   12   13 ar   
    25   13   14 ar   
    26   13   46 1    
    27   14   15 ar   
    28   14   47 1    
    29   15   16 ar   
    30   15   18 1    
    31   16   17 ar   
    32   16   48 1    
    33   17   49 1    
    34   18   23 1    
    35   18   19 1    
    36   19   20 1    
    37   19   50 1    
    38   19   51 1    
    39   20   21 1    
    40   20   52 1    
    41   20   53 1    
    42   21   22 1    
    43   21   54 1    
    44   21   67 1    
    45   22   23 1    
    46   22   55 1    
    47   22   56 1    
    48   23   57 1    
    49   23   58 1    
    50   24   25 1    
    51   24   59 1    
    52   24   60 1    
    53   24   67 1    
    54   25   26 1    
    55   25   61 1    
    56   25   62 1    
    57   26   35 ar   
    58   26   27 ar   
    59   27   28 1    
    60   27   29 ar   
    61   29   34 ar   
    62   29   30 ar   
    63   30   31 ar   
    64   30   63 1    
    65   31   32 ar   
    66   31   64 1    
    67   32   33 ar   
    68   32   65 1    
    69   33   34 ar   
    70   33   66 1    
    71   34   35 ar   
    72   67   68 1    
    73   67   69 1    
@<TRIPOS>SUBSTRUCTURE
     1 UNK         1 GROUP             0       ****    0 ROOT    
