ZINC47049961_2563
                    3D
 Schrodinger Suite 2024-2.
 51 53  0  0  1  0            999 V2000
    2.1555   52.0848   22.9841 C   0  0  0  0  0  0
    2.8438   52.8986   21.8424 C   0  0  1  0  0  0
    2.4023   53.8957   21.8788 H   0  0  0  0  0  0
    4.4027   53.1259   22.0007 C   0  0  0  0  0  0
    5.0895   53.7189   20.7461 C   0  0  0  0  0  0
    5.5022   55.0563   20.6924 C   0  0  0  0  0  0
    6.1197   55.5705   19.5551 C   0  0  0  0  0  0
    6.3461   54.7387   18.4618 C   0  0  0  0  0  0
    5.9693   53.4005   18.5070 C   0  0  0  0  0  0
    5.3579   52.8967   19.6501 C   0  0  0  0  0  0
    4.8649   53.8124   23.3118 C   0  0  0  0  0  0
    3.9766   54.4003   24.2286 C   0  0  0  0  0  0
    4.4396   54.8967   25.4433 C   0  0  0  0  0  0
    5.8046   54.9212   25.7025 C   0  0  0  0  0  0
    6.7050   54.4361   24.7632 C   0  0  0  0  0  0
    6.2361   53.8575   23.5900 C   0  0  0  0  0  0
    2.4125   52.3990   20.5205 N   0  0  0  0  0  0
    2.5326   51.1316   20.0715 C   0  0  0  0  0  0
    3.1043   50.2453   20.7076 O   0  0  0  0  0  0
    1.9758   50.9494   18.8536 N   0  0  0  0  0  0
    1.9042   49.6594   18.2835 N   0  0  0  0  0  0
    1.0219   48.7449   18.7660 C   0  0  0  0  0  0
    0.2275   48.9884   19.6815 O   0  0  0  0  0  0
    0.9962   47.3808   18.0972 C   0  0  0  0  0  0
    0.0275   46.4409   18.4864 C   0  0  0  0  0  0
   -0.0339   45.1894   17.8796 C   0  0  0  0  0  0
    0.8750   44.8607   16.8792 C   0  0  0  0  0  0
    1.8452   45.7726   16.4796 C   0  0  0  0  0  0
    1.9078   47.0241   17.0873 C   0  0  0  0  0  0
    0.8198   43.6389   16.3010 F   0  0  0  0  0  0
    2.5111   52.3254   23.9815 H   0  0  0  0  0  0
    1.0813   52.2736   22.9958 H   0  0  0  0  0  0
    2.3070   51.0095   22.9003 H   0  0  0  0  0  0
    4.8232   52.1215   22.0813 H   0  0  0  0  0  0
    5.3359   55.6981   21.5409 H   0  0  0  0  0  0
    6.4248   56.6053   19.5189 H   0  0  0  0  0  0
    6.8247   55.1304   17.5765 H   0  0  0  0  0  0
    6.1597   52.7446   17.6685 H   0  0  0  0  0  0
    5.1037   51.8505   19.6837 H   0  0  0  0  0  0
    2.9170   54.4617   24.0342 H   0  0  0  0  0  0
    3.7440   55.2984   26.1645 H   0  0  0  0  0  0
    6.1650   55.3370   26.6306 H   0  0  0  0  0  0
    7.7658   54.4953   24.9426 H   0  0  0  0  0  0
    6.9477   53.4460   22.8901 H   0  0  0  0  0  0
    2.0612   53.1048   19.8875 H   0  0  0  0  0  0
    1.3690   51.6152   18.4024 H   0  0  0  0  0  0
    2.7640   49.4120   17.7981 H   0  0  0  0  0  0
   -0.6878   46.6725   19.2638 H   0  0  0  0  0  0
   -0.7850   44.4769   18.1843 H   0  0  0  0  0  0
    2.5542   45.5063   15.7096 H   0  0  0  0  0  0
    2.6865   47.6959   16.7589 H   0  0  0  0  0  0
  1  2  1  0  0  0
  1 31  1  0  0  0
  1 32  1  0  0  0
  1 33  1  0  0  0
  2  3  1  0  0  0
  2  4  1  0  0  0
  2 17  1  0  0  0
  4  5  1  0  0  0
  4 11  1  0  0  0
  4 34  1  0  0  0
  5 10  2  0  0  0
  5  6  1  0  0  0
  6  7  2  0  0  0
  6 35  1  0  0  0
  7  8  1  0  0  0
  7 36  1  0  0  0
  8  9  2  0  0  0
  8 37  1  0  0  0
  9 10  1  0  0  0
  9 38  1  0  0  0
 10 39  1  0  0  0
 11 16  2  0  0  0
 11 12  1  0  0  0
 12 13  2  0  0  0
 12 40  1  0  0  0
 13 14  1  0  0  0
 13 41  1  0  0  0
 14 15  2  0  0  0
 14 42  1  0  0  0
 15 16  1  0  0  0
 15 43  1  0  0  0
 16 44  1  0  0  0
 17 18  1  0  0  0
 17 45  1  0  0  0
 18 19  2  0  0  0
 18 20  1  0  0  0
 20 21  1  0  0  0
 20 46  1  0  0  0
 21 22  1  0  0  0
 21 47  1  0  0  0
 22 23  2  0  0  0
 22 24  1  0  0  0
 24 29  2  0  0  0
 24 25  1  0  0  0
 25 26  2  0  0  0
 25 48  1  0  0  0
 26 27  1  0  0  0
 26 49  1  0  0  0
 27 28  2  0  0  0
 27 30  1  0  0  0
 28 29  1  0  0  0
 28 50  1  0  0  0
 29 51  1  0  0  0
M  END
> <i_i_glide_confnum>
106

> <i_i_glide_lignum>
2564

> <i_i_glide_posenum>
342

> <i_i_glide_rotatable_bonds>
9

> <i_m_Source_File_Index>
174

> <b_m_subgroup_collapsed>
0

> <r_i_docking_score>
-4.7642

> <r_i_glide_ecoul>
-5.22337

> <r_i_glide_eff_state_penalty>
0

> <r_i_glide_einternal>
8.60239

> <r_i_glide_emodel>
-43.9443

> <r_i_glide_energy>
-35.9055

> <r_i_glide_erotb>
1.01888

> <r_i_glide_esite>
-0.248657

> <r_i_glide_evdw>
-30.6822

> <r_i_glide_gscore>
-4.7642

> <r_i_glide_hbond>
-0.268671

> <r_i_glide_ligand_efficiency>
-0.164283

> <r_i_glide_ligand_efficiency_ln>
-1.09088

> <r_i_glide_ligand_efficiency_sa>
-0.504728

> <r_i_glide_lipo>
-2.20582

> <r_i_glide_metal>
0

> <r_i_glide_rewards>
-0.742318

> <s_i_glide_gridfile>
wee1_glide-grid

> <s_m_Source_File>
wee1_decoys_glide_SP.sdf

> <s_m_Source_Path>
/Users/zhangxujun/Desktop

> <s_m_entry_id>
449

> <s_m_entry_name>
wee1_decoys_glide_SP.174

> <s_m_subgroup_title>
wee1_decoys_glide_SP

> <s_m_subgroupid>
wee1_decoys_glide_SP


$$$$
