@<TRIPOS>MOLECULE
ZINC40893801_3140
64   68    1
SMALL
USER_CHARGES


@<TRIPOS>ATOM
      1 C1         -0.7341   51.2959   27.3786 C.ar      1 UNK         0.0000 
      2 C2         -0.8548   50.4620   26.2722 C.ar      1 UNK         0.0000 
      3 C3         -0.1208   50.7291   25.1178 C.ar      1 UNK         0.0000 
      4 C4          0.7028   51.8516   25.0442 C.ar      1 UNK         0.0000 
      5 C5          0.8189   52.6830   26.1507 C.ar      1 UNK         0.0000 
      6 C6          0.1140   52.4010   27.3250 C.ar      1 UNK         0.0000 
      7 C7          0.2888   53.2729   28.5637 C.3       1 UNK         0.0000 
      8 C8          1.5284   52.9083   29.4143 C.3       1 UNK         0.0000 
      9 N9          2.7840   52.9226   28.6621 N.am      1 UNK         0.0000 
     10 C10         3.3438   54.0280   28.1455 C.2       1 UNK         0.0000 
     11 O11         2.8804   55.1550   28.3272 O.2       1 UNK         0.0000 
     12 C12         4.6206   53.8318   27.3077 C.3       1 UNK         0.0000 
     13 H13         4.6717   52.7666   27.0765 H         1 UNK         0.0000 
     14 C14         5.8387   54.2418   28.1404 C.3       1 UNK         0.0000 
     15 C15         7.0658   54.0582   27.2533 C.3       1 UNK         0.0000 
     16 C16         6.9211   54.7429   25.8754 C.3       1 UNK         0.0000 
     17 N17         5.7248   54.3154   25.1158 N.pl3     1 UNK         0.0000 
     18 C18         4.5522   54.6166   25.9647 C.3       1 UNK         0.0000 
     19 C19         5.6625   54.4970   23.7231 C.ar      1 UNK         0.0000 
     20 C20         6.6965   55.1646   23.0438 C.ar      1 UNK         0.0000 
     21 C21         6.6677   55.3612   21.6683 C.ar      1 UNK         0.0000 
     22 C22         5.5932   54.9033   20.9047 C.ar      1 UNK         0.0000 
     23 C23         4.5780   54.1921   21.5545 C.ar      1 UNK         0.0000 
     24 C24         4.6046   53.9878   22.9372 C.ar      1 UNK         0.0000 
     25 F25         3.5737   53.3020   23.4867 F         1 UNK         0.0000 
     26 C26         5.5169   55.2331   19.4406 C.2       1 UNK         0.0000 
     27 N27         6.2653   56.1807   18.9003 N.2       1 UNK         0.0000 
     28 C28         5.8609   56.1899   17.6613 C.2       1 UNK         0.0000 
     29 O29         4.8900   55.2806   17.4039 O.3       1 UNK         0.0000 
     30 N30         4.6690   54.6420   18.6226 N.2       1 UNK         0.0000 
     31 C31         6.3428   57.0979   16.5478 C.3       1 UNK         0.0000 
     32 C32         6.3938   56.6040   15.1197 C.3       1 UNK         0.0000 
     33 C33         5.3564   57.6294   15.5330 C.3       1 UNK         0.0000 
     34 S34        -0.1960   49.5869   23.7517 S.o2      1 UNK         0.0000 
     35 O35        -1.5359   49.7068   23.1670 O.2       1 UNK         0.0000 
     36 O36         1.0096   49.7679   22.9344 O.2       1 UNK         0.0000 
     37 N37        -0.0964   48.0083   24.4817 N.pl3     1 UNK         0.0000 
     38 H38        -1.2777   51.0527   28.2808 H         1 UNK         0.0000 
     39 H39        -1.4852   49.5862   26.3413 H         1 UNK         0.0000 
     40 H40         1.2721   52.0634   24.1464 H         1 UNK         0.0000 
     41 H41         1.4682   53.5443   26.0989 H         1 UNK         0.0000 
     42 H42         0.3377   54.3194   28.2568 H         1 UNK         0.0000 
     43 H43        -0.6003   53.2130   29.1914 H         1 UNK         0.0000 
     44 H44         1.5954   53.5230   30.3133 H         1 UNK         0.0000 
     45 H45         1.4243   51.8704   29.7389 H         1 UNK         0.0000 
     46 H46         3.2111   52.0297   28.4621 H         1 UNK         0.0000 
     47 H47         5.8065   55.2965   28.4191 H         1 UNK         0.0000 
     48 H48         5.9775   53.6004   29.0098 H         1 UNK         0.0000 
     49 H49         7.9061   54.5004   27.7823 H         1 UNK         0.0000 
     50 H50         7.3232   53.0054   27.1307 H         1 UNK         0.0000 
     51 H51         6.9068   55.8279   25.9799 H         1 UNK         0.0000 
     52 H52         7.8125   54.4966   25.2998 H         1 UNK         0.0000 
     53 H53         3.6049   54.3954   25.4740 H         1 UNK         0.0000 
     54 H54         4.5518   55.6943   26.1406 H         1 UNK         0.0000 
     55 H55         7.5067   55.6187   23.5806 H         1 UNK         0.0000 
     56 H56         7.4771   55.9055   21.2069 H         1 UNK         0.0000 
     57 H57         3.7311   53.8213   20.9931 H         1 UNK         0.0000 
     58 H58         7.1352   57.7851   16.8510 H         1 UNK         0.0000 
     59 H59         7.2310   56.9163   14.4942 H         1 UNK         0.0000 
     60 H60         6.0807   55.5810   14.9077 H         1 UNK         0.0000 
     61 H61         4.3109   57.3295   15.6175 H         1 UNK         0.0000 
     62 H62         5.4628   58.6688   15.2161 H         1 UNK         0.0000 
     63 H63        -0.6281   47.3114   23.9561 H         1 UNK         0.0000 
     64 H64         0.8677   47.7057   24.6531 H         1 UNK         0.0000 
@<TRIPOS>BOND
     1    1    6 ar   
     2    1    2 ar   
     3    1   38 1    
     4    2    3 ar   
     5    2   39 1    
     6    3    4 ar   
     7    3   34 1    
     8    4    5 ar   
     9    4   40 1    
    10    5    6 ar   
    11    5   41 1    
    12    6    7 1    
    13    7    8 1    
    14    7   42 1    
    15    7   43 1    
    16    8    9 1    
    17    8   44 1    
    18    8   45 1    
    19    9   10 am   BACKBONE|DICT|INTERRES
    20    9   46 1    
    21   10   11 2    
    22   10   12 1    
    23   12   13 1    
    24   12   18 1    
    25   12   14 1    
    26   14   15 1    
    27   14   47 1    
    28   14   48 1    
    29   15   16 1    
    30   15   49 1    
    31   15   50 1    
    32   16   17 1    
    33   16   51 1    
    34   16   52 1    
    35   17   18 1    
    36   17   19 1    
    37   18   53 1    
    38   18   54 1    
    39   19   24 ar   
    40   19   20 ar   
    41   20   21 ar   
    42   20   55 1    
    43   21   22 ar   
    44   21   56 1    
    45   22   23 ar   
    46   22   26 1    
    47   23   24 ar   
    48   23   57 1    
    49   24   25 1    
    50   26   30 2    
    51   26   27 1    
    52   27   28 2    
    53   28   29 1    
    54   28   31 1    
    55   29   30 1    
    56   31   33 1    
    57   31   32 1    
    58   31   58 1    
    59   32   33 1    
    60   32   59 1    
    61   32   60 1    
    62   33   61 1    
    63   33   62 1    
    64   34   35 2    
    65   34   36 2    
    66   34   37 1    
    67   37   63 1    
    68   37   64 1    
@<TRIPOS>SUBSTRUCTURE
     1 UNK         1 GROUP             0       ****    0 ROOT    
