ZINC39676749_179
                    3D
 Schrodinger Suite 2024-2.
 72 75  0  0  1  0            999 V2000
   -3.4627   47.9390   26.0753 C   0  0  0  0  0  0
   -3.1497   48.0717   24.5725 C   0  0  0  0  0  0
   -1.6553   48.3868   24.2547 C   0  0  2  0  0  0
   -1.0903   47.5709   24.7099 H   0  0  0  0  0  0
   -1.2015   49.6862   24.9449 C   0  0  0  0  0  0
   -1.7308   50.9247   24.5621 C   0  0  0  0  0  0
   -1.2787   52.0933   25.1706 C   0  0  0  0  0  0
   -0.3068   52.0213   26.1673 C   0  0  0  0  0  0
    0.2120   50.7953   26.5682 C   0  0  0  0  0  0
   -0.2412   49.6287   25.9638 C   0  0  0  0  0  0
   -1.2967   48.2272   22.7324 C   0  0  0  0  0  0
   -1.9683   47.4262   22.0772 O   0  0  0  0  0  0
   -0.2719   48.8952   22.1264 N   0  0  0  0  0  0
    0.7195   49.7126   22.8046 C   0  0  0  0  0  0
    1.9479   49.7471   21.8772 C   0  0  1  0  0  0
    2.6192   48.9624   22.2301 H   0  0  0  0  0  0
    1.3872   49.4647   20.4440 C   0  0  0  0  0  0
    0.1007   48.6446   20.7296 C   0  0  0  0  0  0
    1.0502   50.7532   19.6209 C   0  0  0  0  0  0
    0.5076   50.4463   18.2036 C   0  0  0  0  0  0
    1.5046   49.5257   17.4573 N   0  3  0  0  0  0
    1.8664   48.2480   18.2389 C   0  0  0  0  0  0
    2.4302   48.7020   19.5932 C   0  0  0  0  0  0
    2.7030   51.0976   22.0822 C   0  0  0  0  0  0
    3.6641   51.3442   21.3560 O   0  0  0  0  0  0
    2.3044   51.9366   23.0755 N   0  0  0  0  0  0
    2.6814   53.3425   23.3050 C   0  0  2  0  0  0
    2.0228   53.6776   24.1084 H   0  0  0  0  0  0
    2.2772   54.1462   22.0867 C   0  0  0  0  0  0
    4.1099   53.6966   23.7582 C   0  0  0  0  0  0
    5.1701   53.7396   22.8431 C   0  0  0  0  0  0
    6.4390   54.1490   23.2473 C   0  0  0  0  0  0
    6.6627   54.5195   24.5696 C   0  0  0  0  0  0
    5.6318   54.4867   25.5055 C   0  0  0  0  0  0
    4.3483   54.0947   25.0848 C   0  0  0  0  0  0
    5.9682   54.8474   26.7950 O   0  0  0  0  0  0
    5.0222   54.6442   27.8378 C   0  0  0  0  0  0
   -4.5027   47.6568   26.2396 H   0  0  0  0  0  0
   -2.8376   47.1777   26.5447 H   0  0  0  0  0  0
   -3.2922   48.8744   26.6103 H   0  0  0  0  0  0
   -3.7904   48.8401   24.1353 H   0  0  0  0  0  0
   -3.4506   47.1369   24.0976 H   0  0  0  0  0  0
   -2.4819   50.9787   23.7884 H   0  0  0  0  0  0
   -1.6845   53.0499   24.8776 H   0  0  0  0  0  0
    0.0453   52.9160   26.6508 H   0  0  0  0  0  0
    0.9480   50.7440   27.3580 H   0  0  0  0  0  0
    0.1479   48.6761   26.3033 H   0  0  0  0  0  0
    0.2521   50.6963   22.8474 H   0  0  0  0  0  0
    1.0329   49.3059   23.7665 H   0  0  0  0  0  0
    0.3789   47.5912   20.6988 H   0  0  0  0  0  0
   -0.7014   48.7633   20.0018 H   0  0  0  0  0  0
    0.3163   51.3533   20.1603 H   0  0  0  0  0  0
    1.9225   51.3989   19.5102 H   0  0  0  0  0  0
   -0.4510   49.9278   18.2059 H   0  0  0  0  0  0
    0.4131   51.3483   17.5962 H   0  0  0  0  0  0
    1.1532   49.2834   16.5411 H   0  0  0  0  0  0
    0.9658   47.6363   18.3092 H   0  0  0  0  0  0
    2.6151   47.7254   17.6396 H   0  0  0  0  0  0
    3.3402   49.2914   19.4574 H   0  0  0  0  0  0
    2.7261   47.8018   20.1319 H   0  0  0  0  0  0
    1.6626   51.5588   23.7557 H   0  0  0  0  0  0
    2.5913   55.1848   22.1583 H   0  0  0  0  0  0
    2.7104   53.7451   21.1707 H   0  0  0  0  0  0
    1.1921   54.0974   21.9984 H   0  0  0  0  0  0
    5.0124   53.4677   21.8097 H   0  0  0  0  0  0
    7.2528   54.1869   22.5386 H   0  0  0  0  0  0
    7.6489   54.8296   24.8766 H   0  0  0  0  0  0
    3.5307   54.0785   25.7886 H   0  0  0  0  0  0
    5.4816   54.9077   28.7910 H   0  0  0  0  0  0
    4.1414   55.2755   27.7112 H   0  0  0  0  0  0
    4.7114   53.5995   27.8981 H   0  0  0  0  0  0
    2.3862   50.0063   17.2869 H   0  0  0  0  0  0
  1  2  1  0  0  0
  1 38  1  0  0  0
  1 39  1  0  0  0
  1 40  1  0  0  0
  2  3  1  0  0  0
  2 41  1  0  0  0
  2 42  1  0  0  0
  3  4  1  0  0  0
  3  5  1  0  0  0
  3 11  1  0  0  0
  5 10  2  0  0  0
  5  6  1  0  0  0
  6  7  2  0  0  0
  6 43  1  0  0  0
  7  8  1  0  0  0
  7 44  1  0  0  0
  8  9  2  0  0  0
  8 45  1  0  0  0
  9 10  1  0  0  0
  9 46  1  0  0  0
 10 47  1  0  0  0
 11 12  2  0  0  0
 11 13  1  0  0  0
 13 18  1  0  0  0
 13 14  1  0  0  0
 14 15  1  0  0  0
 14 48  1  0  0  0
 14 49  1  0  0  0
 15 16  1  0  0  0
 15 17  1  0  0  0
 15 24  1  0  0  0
 17 23  1  0  0  0
 17 18  1  0  0  0
 17 19  1  0  0  0
 18 50  1  0  0  0
 18 51  1  0  0  0
 19 20  1  0  0  0
 19 52  1  0  0  0
 19 53  1  0  0  0
 20 21  1  0  0  0
 20 54  1  0  0  0
 20 55  1  0  0  0
 21 22  1  0  0  0
 21 56  1  0  0  0
 21 72  1  0  0  0
 22 23  1  0  0  0
 22 57  1  0  0  0
 22 58  1  0  0  0
 23 59  1  0  0  0
 23 60  1  0  0  0
 24 25  2  0  0  0
 24 26  1  0  0  0
 26 27  1  0  0  0
 26 61  1  0  0  0
 27 28  1  0  0  0
 27 29  1  0  0  0
 27 30  1  0  0  0
 29 62  1  0  0  0
 29 63  1  0  0  0
 29 64  1  0  0  0
 30 35  2  0  0  0
 30 31  1  0  0  0
 31 32  2  0  0  0
 31 65  1  0  0  0
 32 33  1  0  0  0
 32 66  1  0  0  0
 33 34  2  0  0  0
 33 67  1  0  0  0
 34 35  1  0  0  0
 34 36  1  0  0  0
 35 68  1  0  0  0
 36 37  1  0  0  0
 37 69  1  0  0  0
 37 70  1  0  0  0
 37 71  1  0  0  0
M  CHG  1  21   1
M  END
> <i_i_glide_confnum>
194

> <i_i_glide_lignum>
180

> <i_i_glide_posenum>
348

> <i_i_glide_rotatable_bonds>
9

> <i_m_Source_File_Index>
2701

> <b_m_subgroup_collapsed>
0

> <r_i_docking_score>
-4.5539

> <r_i_glide_ecoul>
-4.26886

> <r_i_glide_eff_state_penalty>
0

> <r_i_glide_einternal>
10.2145

> <r_i_glide_emodel>
-44.3937

> <r_i_glide_energy>
-36.9448

> <r_i_glide_erotb>
0.653748

> <r_i_glide_esite>
-0.100503

> <r_i_glide_evdw>
-32.676

> <r_i_glide_gscore>
-4.5539

> <r_i_glide_hbond>
-0.100144

> <r_i_glide_ligand_efficiency>
-0.133938

> <r_i_glide_ligand_efficiency_ln>
-1.00608

> <r_i_glide_ligand_efficiency_sa>
-0.433908

> <r_i_glide_lipo>
-2.31802

> <r_i_glide_metal>
0

> <r_i_glide_rewards>
-0.414855

> <s_i_glide_gridfile>
wee1_glide-grid

> <s_m_Source_File>
wee1_decoys_glide_SP.sdf

> <s_m_Source_Path>
/Users/zhangxujun/Desktop

> <s_m_entry_id>
2976

> <s_m_entry_name>
wee1_decoys_glide_SP.2701

> <s_m_subgroup_title>
wee1_decoys_glide_SP

> <s_m_subgroupid>
wee1_decoys_glide_SP


$$$$
