@<TRIPOS>MOLECULE
ZINC40378555_1681
33   34    1
SMALL
USER_CHARGES


@<TRIPOS>ATOM
      1 C1          3.0832   52.8337   30.4638 C.3       1 UNK         0.0000 
      2 C2          1.8171   52.6341   29.6383 C.ar      1 UNK         0.0000 
      3 C3          0.6583   52.2225   30.3024 C.ar      1 UNK         0.0000 
      4 C4         -0.4962   51.9151   29.5916 C.ar      1 UNK         0.0000 
      5 C5         -0.5122   52.0375   28.2032 C.ar      1 UNK         0.0000 
      6 C6          0.6212   52.4964   27.5340 C.ar      1 UNK         0.0000 
      7 C7          1.7962   52.8138   28.2397 C.ar      1 UNK         0.0000 
      8 N8          2.9654   53.2965   27.6123 N.am      1 UNK         0.0000 
      9 C9          3.1699   53.6968   26.3400 C.2       1 UNK         0.0000 
     10 O10         2.3220   53.6969   25.4474 O.2       1 UNK         0.0000 
     11 C11         4.5204   54.1347   26.0754 C.2       1 UNK         0.0000 
     12 C12         5.6132   54.3824   26.9300 C.2       1 UNK         0.0000 
     13 N13         6.7046   54.8194   26.3305 N.2       1 UNK         0.0000 
     14 C14         6.5655   54.9208   25.0361 C.2       1 UNK         0.0000 
     15 S15         5.0083   54.4936   24.4358 S.3       1 UNK         0.0000 
     16 C16         5.7269   54.2159   28.4324 C.3       1 UNK         0.0000 
     17 S17        -1.9637   51.5842   27.2617 S.o2      1 UNK         0.0000 
     18 O18        -3.0523   51.2965   28.2006 O.2       1 UNK         0.0000 
     19 O19        -2.1347   52.5852   26.2045 O.2       1 UNK         0.0000 
     20 N20        -1.5276   50.0967   26.4816 N.pl3     1 UNK         0.0000 
     21 H21         2.9610   52.4970   31.4945 H         1 UNK         0.0000 
     22 H22         3.8996   52.2508   30.0376 H         1 UNK         0.0000 
     23 H23         3.3832   53.8807   30.4605 H         1 UNK         0.0000 
     24 H24         0.6497   52.0975   31.3762 H         1 UNK         0.0000 
     25 H25        -1.3605   51.5465   30.1281 H         1 UNK         0.0000 
     26 H26         0.5607   52.5698   26.4610 H         1 UNK         0.0000 
     27 H27         3.7681   53.3746   28.2147 H         1 UNK         0.0000 
     28 H28         7.3532   55.2424   24.3690 H         1 UNK         0.0000 
     29 H29         5.0000   54.8333   28.9604 H         1 UNK         0.0000 
     30 H30         5.5756   53.1780   28.7275 H         1 UNK         0.0000 
     31 H31         6.7048   54.4912   28.8255 H         1 UNK         0.0000 
     32 H32        -1.5288   49.3244   27.1785 H         1 UNK         0.0000 
     33 H33        -2.1742   49.8692   25.7271 H         1 UNK         0.0000 
@<TRIPOS>BOND
     1    1    2 1    
     2    1   21 1    
     3    1   22 1    
     4    1   23 1    
     5    2    7 ar   
     6    2    3 ar   
     7    3    4 ar   
     8    3   24 1    
     9    4    5 ar   
    10    4   25 1    
    11    5    6 ar   
    12    5   17 1    
    13    6    7 ar   
    14    6   26 1    
    15    7    8 1    
    16    8    9 am   BACKBONE|DICT|INTERRES
    17    8   27 1    
    18    9   10 2    
    19    9   11 1    
    20   11   15 1    
    21   11   12 2    
    22   12   13 1    
    23   12   16 1    
    24   13   14 2    
    25   14   15 1    
    26   14   28 1    
    27   16   29 1    
    28   16   30 1    
    29   16   31 1    
    30   17   18 2    
    31   17   19 2    
    32   17   20 1    
    33   20   32 1    
    34   20   33 1    
@<TRIPOS>SUBSTRUCTURE
     1 UNK         1 GROUP             0       ****    0 ROOT    
