ZINC00866988_4953
                    3D
 Schrodinger Suite 2024-2.
 56 59  0  0  1  0            999 V2000
   11.5728   53.9368   17.1036 C   0  0  0  0  0  0
   10.4504   54.9293   16.7679 C   0  0  1  0  0  0
   10.6467   55.3597   15.7840 H   0  0  0  0  0  0
    9.0797   54.2496   16.7212 C   0  0  0  0  0  0
    8.7109   53.5257   15.5823 C   0  0  0  0  0  0
    7.4897   52.8548   15.5339 C   0  0  0  0  0  0
    6.6234   52.9007   16.6249 C   0  0  0  0  0  0
    6.9639   53.6286   17.7666 C   0  0  0  0  0  0
    8.1992   54.2967   17.8107 C   0  0  0  0  0  0
    6.0772   53.5697   18.8573 N   0  0  0  0  0  0
    5.9044   54.4980   19.8278 C   0  0  0  0  0  0
    6.4578   55.6001   19.8293 O   0  0  0  0  0  0
    5.0446   54.0894   20.9235 C   0  0  0  0  0  0
    5.2710   54.3819   22.2267 C   0  0  0  0  0  0
    4.1486   53.8776   22.9551 C   0  0  0  0  0  0
    3.8292   54.1058   24.1725 N   0  0  0  0  0  0
    2.5378   53.6377   24.7107 C   0  0  1  0  0  0
    1.8715   54.4995   24.6898 H   0  0  0  0  0  0
    1.8519   52.5309   23.8386 C   0  0  0  0  0  0
    2.0124   52.7870   22.3128 C   0  0  1  0  0  0
    1.5035   53.7225   22.0748 H   0  0  0  0  0  0
    3.4392   53.0344   22.0582 N   0  0  0  0  0  0
    3.8652   53.3735   20.7430 N   0  0  0  0  0  0
    1.3879   51.6548   21.4541 C   0  0  0  0  0  0
    1.9979   50.4857   21.6584 F   0  0  0  0  0  0
    0.0989   51.4889   21.7541 F   0  0  0  0  0  0
    1.4488   51.9186   20.1484 F   0  0  0  0  0  0
    2.6061   53.3067   26.2220 C   0  0  0  0  0  0
    1.5152   52.6920   26.8524 C   0  0  0  0  0  0
    1.5794   52.3326   28.1967 C   0  0  0  0  0  0
    2.7240   52.5915   28.9487 C   0  0  0  0  0  0
    3.7958   53.2643   28.3448 C   0  0  0  0  0  0
    3.7338   53.6205   26.9995 C   0  0  0  0  0  0
    2.7164   52.1503   30.2590 O   0  0  0  0  0  0
    3.9046   52.2554   31.0353 C   0  0  0  0  0  0
    6.6110   55.2924   22.9509 Cl  0  0  0  0  0  0
   10.5301   56.0067   17.6815 O   0  0  0  0  0  0
   11.6147   53.1298   16.3713 H   0  0  0  0  0  0
   12.5497   54.4219   17.1082 H   0  0  0  0  0  0
   11.4205   53.4799   18.0808 H   0  0  0  0  0  0
    9.3791   53.4684   14.7351 H   0  0  0  0  0  0
    7.2192   52.2862   14.6563 H   0  0  0  0  0  0
    5.6911   52.3540   16.5808 H   0  0  0  0  0  0
    8.5018   54.8245   18.7022 H   0  0  0  0  0  0
    5.5060   52.7374   18.8802 H   0  0  0  0  0  0
    2.3041   51.5691   24.0840 H   0  0  0  0  0  0
    0.7937   52.4551   24.0873 H   0  0  0  0  0  0
    3.7945   52.5346   20.1796 H   0  0  0  0  0  0
    0.6147   52.4605   26.3045 H   0  0  0  0  0  0
    0.7410   51.8283   28.6553 H   0  0  0  0  0  0
    4.6944   53.4989   28.8942 H   0  0  0  0  0  0
    4.5886   54.1162   26.5647 H   0  0  0  0  0  0
    4.7244   51.6970   30.5825 H   0  0  0  0  0  0
    4.2128   53.2930   31.1631 H   0  0  0  0  0  0
    3.7280   51.8399   32.0280 H   0  0  0  0  0  0
   11.0733   55.7396   18.4331 H   0  0  0  0  0  0
  1  2  1  0  0  0
  1 38  1  0  0  0
  1 39  1  0  0  0
  1 40  1  0  0  0
  2  3  1  0  0  0
  2  4  1  0  0  0
  2 37  1  0  0  0
  4  9  2  0  0  0
  4  5  1  0  0  0
  5  6  2  0  0  0
  5 41  1  0  0  0
  6  7  1  0  0  0
  6 42  1  0  0  0
  7  8  2  0  0  0
  7 43  1  0  0  0
  8  9  1  0  0  0
  8 10  1  0  0  0
  9 44  1  0  0  0
 10 11  1  0  0  0
 10 45  1  0  0  0
 11 12  2  0  0  0
 11 13  1  0  0  0
 13 23  1  0  0  0
 13 14  2  0  0  0
 14 15  1  0  0  0
 14 36  1  0  0  0
 15 22  1  0  0  0
 15 16  2  0  0  0
 16 17  1  0  0  0
 17 18  1  0  0  0
 17 19  1  0  0  0
 17 28  1  0  0  0
 19 20  1  0  0  0
 19 46  1  0  0  0
 19 47  1  0  0  0
 20 21  1  0  0  0
 20 22  1  0  0  0
 20 24  1  0  0  0
 22 23  1  0  0  0
 23 48  1  0  0  0
 24 25  1  0  0  0
 24 26  1  0  0  0
 24 27  1  0  0  0
 28 33  2  0  0  0
 28 29  1  0  0  0
 29 30  2  0  0  0
 29 49  1  0  0  0
 30 31  1  0  0  0
 30 50  1  0  0  0
 31 32  2  0  0  0
 31 34  1  0  0  0
 32 33  1  0  0  0
 32 51  1  0  0  0
 33 52  1  0  0  0
 34 35  1  0  0  0
 35 53  1  0  0  0
 35 54  1  0  0  0
 35 55  1  0  0  0
 37 56  1  0  0  0
M  END
> <i_i_glide_confnum>
11

> <i_i_glide_lignum>
4954

> <i_i_glide_posenum>
22

> <i_i_glide_rotatable_bonds>
8

> <i_m_Source_File_Index>
645

> <b_m_subgroup_collapsed>
0

> <r_i_docking_score>
-6.28425

> <r_i_glide_ecoul>
-6.41798

> <r_i_glide_eff_state_penalty>
0

> <r_i_glide_einternal>
7.89967

> <r_i_glide_emodel>
-60.3838

> <r_i_glide_energy>
-47.0535

> <r_i_glide_erotb>
0.416088

> <r_i_glide_esite>
-0.0552711

> <r_i_glide_evdw>
-40.6355

> <r_i_glide_gscore>
-6.28425

> <r_i_glide_hbond>
-0.588177

> <r_i_glide_ligand_efficiency>
-0.184831

> <r_i_glide_ligand_efficiency_ln>
-1.38837

> <r_i_glide_ligand_efficiency_sa>
-0.598781

> <r_i_glide_lipo>
-2.34909

> <r_i_glide_metal>
0

> <r_i_glide_rewards>
-0.713333

> <s_i_glide_gridfile>
wee1_glide-grid

> <s_m_Source_File>
wee1_decoys_glide_SP.sdf

> <s_m_Source_Path>
/Users/zhangxujun/Desktop

> <s_m_entry_id>
920

> <s_m_entry_name>
wee1_decoys_glide_SP.645

> <s_m_subgroup_title>
wee1_decoys_glide_SP

> <s_m_subgroupid>
wee1_decoys_glide_SP


$$$$
