@<TRIPOS>MOLECULE
ZINC06831837_4719
30   32    1
SMALL
USER_CHARGES


@<TRIPOS>ATOM
      1 C1          5.7699   54.4967   27.7446 C.ar      1 UNK         0.0000 
      2 C2          6.8630   54.4864   26.8817 C.ar      1 UNK         0.0000 
      3 C3          6.7044   54.4018   25.4961 C.ar      1 UNK         0.0000 
      4 C4          5.4037   54.2991   24.9969 C.ar      1 UNK         0.0000 
      5 C5          4.2889   54.3201   25.8670 C.ar      1 UNK         0.0000 
      6 C6          4.4677   54.4253   27.2529 C.ar      1 UNK         0.0000 
      7 N7          3.0894   54.2302   25.2522 N.2       1 UNK         0.0000 
      8 C8          3.1924   54.0925   23.9605 C.2       1 UNK         0.0000 
      9 S9          4.8339   54.0967   23.3453 S.3       1 UNK         0.0000 
     10 C10         1.9713   53.9314   23.0799 C.3       1 UNK         0.0000 
     11 S11         1.3950   52.2090   22.9081 S.3       1 UNK         0.0000 
     12 C12         0.6647   51.6746   24.4328 C.ar      1 UNK         0.0000 
     13 N13         0.1080   50.4347   24.4429 N.ar      1 UNK         0.0000 
     14 C14        -0.4470   50.0391   25.6168 C.ar      1 UNK         0.0000 
     15 C15        -0.4445   50.8366   26.7589 C.ar      1 UNK         0.0000 
     16 C16         0.1681   52.0766   26.6531 C.ar      1 UNK         0.0000 
     17 N17         0.7044   52.5207   25.4936 N.ar      1 UNK         0.0000 
     18 N18         0.2607   52.8967   27.7682 N.pl3     1 UNK         0.0000 
     19 N19        -1.0307   48.7845   25.6817 N.pl3     1 UNK         0.0000 
     20 H20         5.9394   54.5668   28.8103 H         1 UNK         0.0000 
     21 H21         7.8534   54.5275   27.3099 H         1 UNK         0.0000 
     22 H22         7.5521   54.3845   24.8269 H         1 UNK         0.0000 
     23 H23         3.6211   54.4350   27.9218 H         1 UNK         0.0000 
     24 H24         2.1847   54.3113   22.0817 H         1 UNK         0.0000 
     25 H25         1.1384   54.5272   23.4541 H         1 UNK         0.0000 
     26 H26        -0.8834   50.4967   27.6854 H         1 UNK         0.0000 
     27 H27        -0.0956   52.5678   28.6528 H         1 UNK         0.0000 
     28 H28         0.7332   53.7822   27.6758 H         1 UNK         0.0000 
     29 H29        -1.2956   48.4667   26.6206 H         1 UNK         0.0000 
     30 H30        -0.9366   48.1498   24.9071 H         1 UNK         0.0000 
@<TRIPOS>BOND
     1    1    6 ar   
     2    1    2 ar   
     3    1   20 1    
     4    2    3 ar   
     5    2   21 1    
     6    3    4 ar   
     7    3   22 1    
     8    4    9 1    
     9    4    5 ar   
    10    5    6 ar   
    11    5    7 1    
    12    6   23 1    
    13    7    8 2    
    14    8    9 1    
    15    8   10 1    
    16   10   11 1    
    17   10   24 1    
    18   10   25 1    
    19   11   12 1    
    20   12   17 ar   
    21   12   13 ar   
    22   13   14 ar   
    23   14   15 ar   
    24   14   19 1    
    25   15   16 ar   
    26   15   26 1    
    27   16   17 ar   
    28   16   18 1    
    29   18   27 1    
    30   18   28 1    
    31   19   29 1    
    32   19   30 1    
@<TRIPOS>SUBSTRUCTURE
     1 UNK         1 GROUP             0       ****    0 ROOT    
