@<TRIPOS>MOLECULE
ZINC59919807_4354
57   60    1
SMALL
USER_CHARGES


@<TRIPOS>ATOM
      1 C1          0.9069   53.8530   30.5253 C.3       1 UNK         0.0000 
      2 C2          1.4635   53.3752   29.1780 C.3       1 UNK         0.0000 
      3 C3          0.7080   52.2039   28.5039 C.3       1 UNK         0.0000 
      4 C4          1.3348   51.9152   27.1296 C.3       1 UNK         0.0000 
      5 C5          0.6593   50.7444   26.3866 C.3       1 UNK         0.0000 
      6 C6         -0.8935   50.8285   26.2879 C.3       1 UNK         0.0000 
      7 C7         -1.5510   51.3619   27.5960 C.3       1 UNK         0.0000 
      8 C8         -0.7898   52.4961   28.3093 C.3       1 UNK         0.0000 
      9 C9         -1.3036   51.6962   25.0986 C.2       1 UNK         0.0000 
     10 O10        -1.0713   52.8967   24.9494 O.2       1 UNK         0.0000 
     11 N11        -1.9566   50.8808   24.2438 N.am      1 UNK         0.0000 
     12 C12        -2.0003   49.5862   24.6399 C.2       1 UNK         0.0000 
     13 O13        -2.2701   48.5977   23.9596 O.2       1 UNK         0.0000 
     14 N14        -1.4781   49.5860   25.8699 N.am      1 UNK         0.0000 
     15 C15        -2.4865   51.3464   22.9390 C.3       1 UNK         0.0000 
     16 C16        -1.3916   51.5229   21.8596 C.2       1 UNK         0.0000 
     17 O17        -1.6938   52.0964   20.8134 O.2       1 UNK         0.0000 
     18 N18        -0.1556   51.0431   22.1117 N.am      1 UNK         0.0000 
     19 C19         1.0251   51.0228   21.2351 C.3       1 UNK         0.0000 
     20 C20         2.3130   51.1370   22.0865 C.3       1 UNK         0.0000 
     21 C21         2.8562   52.1593   21.0847 C.3       1 UNK         0.0000 
     22 C22         1.3927   52.4477   20.7291 C.3       1 UNK         0.0000 
     23 C23         0.8963   49.8355   20.2440 C.ar      1 UNK         0.0000 
     24 C24         1.5668   49.8683   19.0103 C.ar      1 UNK         0.0000 
     25 C25         1.5041   48.7903   18.1291 C.ar      1 UNK         0.0000 
     26 C26         0.7711   47.6540   18.4629 C.ar      1 UNK         0.0000 
     27 C27         0.0983   47.5984   19.6801 C.ar      1 UNK         0.0000 
     28 C28         0.1614   48.6767   20.5620 C.ar      1 UNK         0.0000 
     29 Br29       -0.8968   46.0444   20.1479 Br        1 UNK         0.0000 
     30 H30         1.5040   54.6888   30.8839 H         1 UNK         0.0000 
     31 H31        -0.1163   54.2187   30.4448 H         1 UNK         0.0000 
     32 H32         0.9267   53.0606   31.2742 H         1 UNK         0.0000 
     33 H33         2.5072   53.0895   29.3221 H         1 UNK         0.0000 
     34 H34         1.4828   54.2301   28.5003 H         1 UNK         0.0000 
     35 H35         0.7958   51.3041   29.1159 H         1 UNK         0.0000 
     36 H36         2.3951   51.7185   27.2815 H         1 UNK         0.0000 
     37 H37         1.2991   52.8092   26.5046 H         1 UNK         0.0000 
     38 H38         0.9097   49.8046   26.8814 H         1 UNK         0.0000 
     39 H39         1.1044   50.5673   25.4047 H         1 UNK         0.0000 
     40 H40        -2.6067   51.5985   27.4479 H         1 UNK         0.0000 
     41 H41        -1.6449   50.5181   28.2831 H         1 UNK         0.0000 
     42 H42        -1.2499   52.6797   29.2803 H         1 UNK         0.0000 
     43 H43        -0.8955   53.4183   27.7370 H         1 UNK         0.0000 
     44 H44        -1.6605   48.8730   26.5751 H         1 UNK         0.0000 
     45 H45        -2.9523   52.3207   23.0915 H         1 UNK         0.0000 
     46 H46        -3.2640   50.6780   22.5679 H         1 UNK         0.0000 
     47 H47        -0.0339   50.5421   22.9782 H         1 UNK         0.0000 
     48 H48         2.1678   51.5757   23.0765 H         1 UNK         0.0000 
     49 H49         2.8982   50.2207   22.1769 H         1 UNK         0.0000 
     50 H50         3.4103   52.9962   21.5143 H         1 UNK         0.0000 
     51 H51         3.4405   51.7220   20.2724 H         1 UNK         0.0000 
     52 H52         1.1956   52.6513   19.6770 H         1 UNK         0.0000 
     53 H53         0.9881   53.2664   21.3294 H         1 UNK         0.0000 
     54 H54         2.1573   50.7244   18.7157 H         1 UNK         0.0000 
     55 H55         2.0319   48.8383   17.1876 H         1 UNK         0.0000 
     56 H56         0.7295   46.8197   17.7781 H         1 UNK         0.0000 
     57 H57        -0.3584   48.5924   21.5062 H         1 UNK         0.0000 
@<TRIPOS>BOND
     1    1    2 1    
     2    1   30 1    
     3    1   31 1    
     4    1   32 1    
     5    2    3 1    
     6    2   33 1    
     7    2   34 1    
     8    3    8 1    
     9    3    4 1    
    10    3   35 1    
    11    4    5 1    
    12    4   36 1    
    13    4   37 1    
    14    5    6 1    
    15    5   38 1    
    16    5   39 1    
    17    6   14 1    
    18    6    7 1    
    19    6    9 1    
    20    7    8 1    
    21    7   40 1    
    22    7   41 1    
    23    8   42 1    
    24    8   43 1    
    25    9   10 2    
    26    9   11 am   BACKBONE|DICT|INTERRES
    27   11   12 am   BACKBONE|DICT|INTERRES
    28   11   15 1    
    29   12   13 2    
    30   12   14 am   BACKBONE|DICT|INTERRES
    31   14   44 1    
    32   15   16 1    
    33   15   45 1    
    34   15   46 1    
    35   16   17 2    
    36   16   18 am   BACKBONE|DICT|INTERRES
    37   18   19 1    
    38   18   47 1    
    39   19   22 1    
    40   19   20 1    
    41   19   23 1    
    42   20   21 1    
    43   20   48 1    
    44   20   49 1    
    45   21   22 1    
    46   21   50 1    
    47   21   51 1    
    48   22   52 1    
    49   22   53 1    
    50   23   28 ar   
    51   23   24 ar   
    52   24   25 ar   
    53   24   54 1    
    54   25   26 ar   
    55   25   55 1    
    56   26   27 ar   
    57   26   56 1    
    58   27   28 ar   
    59   27   29 1    
    60   28   57 1    
@<TRIPOS>SUBSTRUCTURE
     1 UNK         1 GROUP             0       ****    0 ROOT    
