@<TRIPOS>MOLECULE
ZINC12572944_3513
47   49    1
SMALL
USER_CHARGES


@<TRIPOS>ATOM
      1 C1         -0.0224   48.7191   24.2936 C.ar      1 UNK         0.0000 
      2 C2          0.7211   49.5041   23.4094 C.ar      1 UNK         0.0000 
      3 C3          0.5930   50.8960   23.4266 C.ar      1 UNK         0.0000 
      4 C4         -0.3415   51.4878   24.2852 C.ar      1 UNK         0.0000 
      5 C5         -1.0627   50.7018   25.1918 C.ar      1 UNK         0.0000 
      6 C6         -0.8983   49.3162   25.1990 C.ar      1 UNK         0.0000 
      7 S7         -2.1271   51.4664   26.4084 S.o2      1 UNK         0.0000 
      8 O8         -2.2232   52.8966   26.1072 O.2       1 UNK         0.0000 
      9 O9         -3.3309   50.6362   26.5083 O.2       1 UNK         0.0000 
     10 N10        -1.2750   51.2967   27.9549 N.pl3     1 UNK         0.0000 
     11 C11        -0.1357   52.0284   28.3270 C.ar      1 UNK         0.0000 
     12 C12         0.1886   52.0970   29.6823 C.ar      1 UNK         0.0000 
     13 C13         1.3572   52.7373   30.0941 C.ar      1 UNK         0.0000 
     14 C14         2.2046   53.3130   29.1456 C.ar      1 UNK         0.0000 
     15 C15         1.8700   53.2803   27.7945 C.ar      1 UNK         0.0000 
     16 C16         0.7027   52.6437   27.3927 C.ar      1 UNK         0.0000 
     17 S17         3.6915   54.1039   29.6816 S.3       1 UNK         0.0000 
     18 C18         5.0117   53.7990   28.4736 C.3       1 UNK         0.0000 
     19 F19         5.1846   52.4972   28.2616 F         1 UNK         0.0000 
     20 F20         4.7859   54.4210   27.3172 F         1 UNK         0.0000 
     21 N21         1.4397   51.6591   22.6046 N.am      1 UNK         0.0000 
     22 C22         2.1918   52.6974   23.0287 C.2       1 UNK         0.0000 
     23 O23         2.1464   53.1701   24.1671 O.2       1 UNK         0.0000 
     24 N24         3.0614   53.0919   22.0773 N.am      1 UNK         0.0000 
     25 C25         4.2571   53.8159   22.2525 C.ar      1 UNK         0.0000 
     26 C26         4.9844   53.8315   23.4547 C.ar      1 UNK         0.0000 
     27 C27         6.2072   54.4987   23.5348 C.ar      1 UNK         0.0000 
     28 C28         6.7046   55.1761   22.4220 C.ar      1 UNK         0.0000 
     29 C29         5.9824   55.1801   21.2284 C.ar      1 UNK         0.0000 
     30 C30         4.7711   54.4896   21.1402 C.ar      1 UNK         0.0000 
     31 Cl31        6.5886   56.0446   19.8652 Cl        1 UNK         0.0000 
     32 H32         0.1150   47.6483   24.3096 H         1 UNK         0.0000 
     33 H33         1.4358   49.0272   22.7551 H         1 UNK         0.0000 
     34 H34        -0.4588   52.5626   24.2886 H         1 UNK         0.0000 
     35 H35        -1.4301   48.7080   25.9203 H         1 UNK         0.0000 
     36 H36        -1.4710   50.4348   28.4555 H         1 UNK         0.0000 
     37 H37        -0.4578   51.6400   30.4208 H         1 UNK         0.0000 
     38 H38         1.6009   52.7729   31.1464 H         1 UNK         0.0000 
     39 H39         2.4989   53.7378   27.0460 H         1 UNK         0.0000 
     40 H40         0.4793   52.6365   26.3438 H         1 UNK         0.0000 
     41 H41         5.9548   54.1908   28.8589 H         1 UNK         0.0000 
     42 H42         1.6671   51.2589   21.7073 H         1 UNK         0.0000 
     43 H43         2.8370   52.8627   21.1209 H         1 UNK         0.0000 
     44 H44         4.6302   53.3022   24.3276 H         1 UNK         0.0000 
     45 H45         6.7692   54.4912   24.4581 H         1 UNK         0.0000 
     46 H46         7.6500   55.6962   22.4869 H         1 UNK         0.0000 
     47 H47         4.2295   54.4860   20.2039 H         1 UNK         0.0000 
@<TRIPOS>BOND
     1    1    6 ar   
     2    1    2 ar   
     3    1   32 1    
     4    2    3 ar   
     5    2   33 1    
     6    3    4 ar   
     7    3   21 1    
     8    4    5 ar   
     9    4   34 1    
    10    5    6 ar   
    11    5    7 1    
    12    6   35 1    
    13    7    8 2    
    14    7    9 2    
    15    7   10 1    
    16   10   11 1    
    17   10   36 1    
    18   11   16 ar   
    19   11   12 ar   
    20   12   13 ar   
    21   12   37 1    
    22   13   14 ar   
    23   13   38 1    
    24   14   15 ar   
    25   14   17 1    
    26   15   16 ar   
    27   15   39 1    
    28   16   40 1    
    29   17   18 1    
    30   18   19 1    
    31   18   20 1    
    32   18   41 1    
    33   21   22 am   BACKBONE|DICT|INTERRES
    34   21   42 1    
    35   22   23 2    
    36   22   24 am   BACKBONE|DICT|INTERRES
    37   24   25 1    
    38   24   43 1    
    39   25   30 ar   
    40   25   26 ar   
    41   26   27 ar   
    42   26   44 1    
    43   27   28 ar   
    44   27   45 1    
    45   28   29 ar   
    46   28   46 1    
    47   29   30 ar   
    48   29   31 1    
    49   30   47 1    
@<TRIPOS>SUBSTRUCTURE
     1 UNK         1 GROUP             0       ****    0 ROOT    
