@<TRIPOS>MOLECULE
ZINC14668386_2961
53   55    1
SMALL
USER_CHARGES


@<TRIPOS>ATOM
      1 C1          3.3698   52.8466   21.8036 C.3       1 UNK         0.0000 
      2 C2          3.2363   54.2195   22.4776 C.3       1 UNK         0.0000 
      3 O3          3.4548   54.1413   23.8814 O.3       1 UNK         0.0000 
      4 C4          2.4729   53.7618   24.7323 C.2       1 UNK         0.0000 
      5 O5          1.3099   53.5349   24.3919 O.2       1 UNK         0.0000 
      6 C6          2.9633   53.6267   26.1167 C.2       1 UNK         0.0000 
      7 C7          4.2544   53.9951   26.5722 C.2       1 UNK         0.0000 
      8 C8          4.4920   53.7272   27.8985 C.2       1 UNK         0.0000 
      9 S9          3.1532   52.9997   28.6846 S.3       1 UNK         0.0000 
     10 C10         2.2246   53.0664   27.1933 C.2       1 UNK         0.0000 
     11 N11         0.9497   52.4992   27.0500 N.pl3     1 UNK         0.0000 
     12 C12        -0.0129   52.1129   27.9554 C.2       1 UNK         0.0000 
     13 S13        -0.0955   52.4967   29.5764 S.2       1 UNK         0.0000 
     14 N14        -1.0124   51.2968   27.4873 N.am      1 UNK         0.0000 
     15 C15        -1.3621   50.9619   26.2178 C.2       1 UNK         0.0000 
     16 O16        -0.8559   51.4400   25.1981 O.2       1 UNK         0.0000 
     17 C17        -2.4261   49.8993   26.0816 C.ar      1 UNK         0.0000 
     18 C18        -2.2083   48.8752   25.1475 C.ar      1 UNK         0.0000 
     19 C19        -3.1169   47.8318   25.0042 C.ar      1 UNK         0.0000 
     20 C20        -4.2716   47.8133   25.7774 C.ar      1 UNK         0.0000 
     21 C21        -4.5092   48.8289   26.7005 C.ar      1 UNK         0.0000 
     22 C22        -3.5921   49.8796   26.8815 C.ar      1 UNK         0.0000 
     23 O23        -3.7687   50.9073   27.7983 O.3       1 UNK         0.0000 
     24 C24        -4.7652   50.8964   28.8266 C.3       1 UNK         0.0000 
     25 C25        -6.1798   51.2168   28.3058 C.3       1 UNK         0.0000 
     26 C26        -4.6730   49.7132   29.8114 C.3       1 UNK         0.0000 
     27 Br27       -2.7691   46.4257   23.7681 Br        1 UNK         0.0000 
     28 C28         5.8779   54.0962   28.3432 C.3       1 UNK         0.0000 
     29 C29         6.5750   54.3386   27.0009 C.3       1 UNK         0.0000 
     30 C30         5.4819   54.6437   25.9671 C.3       1 UNK         0.0000 
     31 H31         3.2271   52.9314   20.7261 H         1 UNK         0.0000 
     32 H32         4.3565   52.4171   21.9769 H         1 UNK         0.0000 
     33 H33         2.6249   52.1454   22.1806 H         1 UNK         0.0000 
     34 H34         2.2638   54.6633   22.2597 H         1 UNK         0.0000 
     35 H35         3.9813   54.8964   22.0598 H         1 UNK         0.0000 
     36 H36         0.6661   52.4122   26.0809 H         1 UNK         0.0000 
     37 H37        -1.5630   50.8344   28.1990 H         1 UNK         0.0000 
     38 H38        -1.3099   48.8660   24.5453 H         1 UNK         0.0000 
     39 H39        -4.9816   47.0066   25.6704 H         1 UNK         0.0000 
     40 H40        -5.4137   48.7603   27.2782 H         1 UNK         0.0000 
     41 H41        -4.4982   51.7616   29.4306 H         1 UNK         0.0000 
     42 H42        -6.9077   51.2081   29.1171 H         1 UNK         0.0000 
     43 H43        -6.2025   52.2120   27.8614 H         1 UNK         0.0000 
     44 H44        -6.5328   50.5257   27.5449 H         1 UNK         0.0000 
     45 H45        -5.4195   49.7983   30.6010 H         1 UNK         0.0000 
     46 H46        -4.8035   48.7397   29.3461 H         1 UNK         0.0000 
     47 H47        -3.6959   49.6987   30.2955 H         1 UNK         0.0000 
     48 H48         5.8881   54.9835   28.9765 H         1 UNK         0.0000 
     49 H49         6.3826   53.2963   28.8819 H         1 UNK         0.0000 
     50 H50         7.3185   55.1316   27.0706 H         1 UNK         0.0000 
     51 H51         7.1038   53.4305   26.7035 H         1 UNK         0.0000 
     52 H52         5.7566   54.2482   24.9889 H         1 UNK         0.0000 
     53 H53         5.3468   55.7187   25.8600 H         1 UNK         0.0000 
@<TRIPOS>BOND
     1    1    2 1    
     2    1   31 1    
     3    1   32 1    
     4    1   33 1    
     5    2    3 1    
     6    2   34 1    
     7    2   35 1    
     8    3    4 1    
     9    4    5 2    
    10    4    6 1    
    11    6   10 2    
    12    6    7 1    
    13    7   30 1    
    14    7    8 2    
    15    8    9 1    
    16    8   28 1    
    17    9   10 1    
    18   10   11 1    
    19   11   12 1    
    20   11   36 1    
    21   12   13 2    
    22   12   14 am   BACKBONE|DICT|INTERRES
    23   14   15 am   BACKBONE|DICT|INTERRES
    24   14   37 1    
    25   15   16 2    
    26   15   17 1    
    27   17   22 ar   
    28   17   18 ar   
    29   18   19 ar   
    30   18   38 1    
    31   19   20 ar   
    32   19   27 1    
    33   20   21 ar   
    34   20   39 1    
    35   21   22 ar   
    36   21   40 1    
    37   22   23 1    
    38   23   24 1    
    39   24   25 1    
    40   24   26 1    
    41   24   41 1    
    42   25   42 1    
    43   25   43 1    
    44   25   44 1    
    45   26   45 1    
    46   26   46 1    
    47   26   47 1    
    48   28   29 1    
    49   28   48 1    
    50   28   49 1    
    51   29   30 1    
    52   29   50 1    
    53   29   51 1    
    54   30   52 1    
    55   30   53 1    
@<TRIPOS>SUBSTRUCTURE
     1 UNK         1 GROUP             0       ****    0 ROOT    
