@<TRIPOS>MOLECULE
ZINC40428682_290
61   66    1
SMALL
USER_CHARGES


@<TRIPOS>ATOM
      1 C1          0.7328   52.3845   27.5081 C.ar      1 UNK         0.0000 
      2 C2          0.3604   52.4692   28.8459 C.ar      1 UNK         0.0000 
      3 C3          0.7497   53.5731   29.6011 C.ar      1 UNK         0.0000 
      4 C4          1.5196   54.5827   29.0328 C.ar      1 UNK         0.0000 
      5 C5          1.8992   54.4885   27.6960 C.ar      1 UNK         0.0000 
      6 C6          1.5075   53.3940   26.9135 C.ar      1 UNK         0.0000 
      7 C7          1.8680   53.2969   25.4503 C.ar      1 UNK         0.0000 
      8 C8          3.0786   53.6266   24.7816 C.ar      1 UNK         0.0000 
      9 N9          2.8650   53.2161   23.4719 N.pl3     1 UNK         0.0000 
     10 C10         3.6835   53.1319   22.3682 C.ar      1 UNK         0.0000 
     11 C11         3.1977   52.6048   21.1800 C.ar      1 UNK         0.0000 
     12 C12         1.8780   52.1609   21.0876 C.ar      1 UNK         0.0000 
     13 C13         1.0359   52.2391   22.2051 C.ar      1 UNK         0.0000 
     14 C14         1.5397   52.7548   23.4149 C.ar      1 UNK         0.0000 
     15 N15         0.9441   52.8502   24.6219 N.2       1 UNK         0.0000 
     16 C16         1.3727   51.5921   19.7576 C.3       1 UNK         0.0000 
     17 C17         2.1298   50.3028   19.3515 C.3       1 UNK         0.0000 
     18 C18         1.6780   49.7742   17.9812 C.3       1 UNK         0.0000 
     19 N19         1.9044   50.8966   16.9414 N.4       1 UNK         0.0000 
     20 C20         1.0052   52.1154   17.2568 C.3       1 UNK         0.0000 
     21 C21         1.3809   52.6651   18.6426 C.3       1 UNK         0.0000 
     22 C22         1.6303   50.3487   15.5182 C.3       1 UNK         0.0000 
     23 C23         2.1410   51.3418   14.4591 C.3       1 UNK         0.0000 
     24 C24         3.6269   51.5247   14.2634 C.3       1 UNK         0.0000 
     25 C25         2.7987   50.8182   13.2047 C.3       1 UNK         0.0000 
     26 C26         4.3863   54.1720   25.2899 C.ar      1 UNK         0.0000 
     27 C27         5.3127   54.8699   24.5023 C.ar      1 UNK         0.0000 
     28 C28         6.4774   55.3310   25.1156 C.ar      1 UNK         0.0000 
     29 N29         6.7043   55.1713   26.4426 N.ar      1 UNK         0.0000 
     30 C30         5.7522   54.4990   27.1313 C.ar      1 UNK         0.0000 
     31 N31         4.6247   53.9627   26.6117 N.ar      1 UNK         0.0000 
     32 N32         5.9077   54.4166   28.5017 N.pl3     1 UNK         0.0000 
     33 F33         0.3826   53.6662   30.8985 F         1 UNK         0.0000 
     34 H34         0.4142   51.5300   26.9279 H         1 UNK         0.0000 
     35 H35        -0.2368   51.6871   29.2953 H         1 UNK         0.0000 
     36 H36         1.8191   55.4325   29.6260 H         1 UNK         0.0000 
     37 H37         2.5012   55.2839   27.2815 H         1 UNK         0.0000 
     38 H38         4.7206   53.3962   22.4736 H         1 UNK         0.0000 
     39 H39         3.8592   52.5255   20.3280 H         1 UNK         0.0000 
     40 H40         0.0176   51.8839   22.1548 H         1 UNK         0.0000 
     41 H41         0.3336   51.3158   19.9305 H         1 UNK         0.0000 
     42 H42         1.9429   49.5151   20.0833 H         1 UNK         0.0000 
     43 H43         3.2071   50.4768   19.3144 H         1 UNK         0.0000 
     44 H44         0.6250   49.4867   17.9469 H         1 UNK         0.0000 
     45 H45         2.3034   48.9305   17.6844 H         1 UNK         0.0000 
     46 H46         1.1983   52.8764   16.4997 H         1 UNK         0.0000 
     47 H47        -0.0356   51.7855   17.1960 H         1 UNK         0.0000 
     48 H48         2.3541   53.1502   18.5747 H         1 UNK         0.0000 
     49 H49         0.6454   53.4325   18.8863 H         1 UNK         0.0000 
     50 H50         0.5591   50.1502   15.4469 H         1 UNK         0.0000 
     51 H51         2.1838   49.4089   15.4620 H         1 UNK         0.0000 
     52 H52         1.4998   52.2178   14.3488 H         1 UNK         0.0000 
     53 H53         4.3088   50.9410   14.8858 H         1 UNK         0.0000 
     54 H54         4.0072   52.5273   14.0635 H         1 UNK         0.0000 
     55 H55         2.5950   51.3280   12.2618 H         1 UNK         0.0000 
     56 H56         2.9084   49.7406   13.0739 H         1 UNK         0.0000 
     57 H57         5.1487   55.0868   23.4637 H         1 UNK         0.0000 
     58 H58         7.2282   55.8659   24.5492 H         1 UNK         0.0000 
     59 H59         5.1755   53.9803   29.0424 H         1 UNK         0.0000 
     60 H60         6.6299   54.9914   28.9315 H         1 UNK         0.0000 
     61 H61         2.8870   51.1433   16.9719 H         1 UNK         0.0000 
@<TRIPOS>BOND
     1    1    6 ar   
     2    1    2 ar   
     3    1   34 1    
     4    2    3 ar   
     5    2   35 1    
     6    3    4 ar   
     7    3   33 1    
     8    4    5 ar   
     9    4   36 1    
    10    5    6 ar   
    11    5   37 1    
    12    6    7 1    
    13    7   15 ar   
    14    7    8 ar   
    15    8    9 ar   
    16    8   26 1    
    17    9   14 ar   
    18    9   10 ar   
    19   10   11 ar   
    20   10   38 1    
    21   11   12 ar   
    22   11   39 1    
    23   12   13 ar   
    24   12   16 1    
    25   13   14 ar   
    26   13   40 1    
    27   14   15 ar   
    28   16   21 1    
    29   16   17 1    
    30   16   41 1    
    31   17   18 1    
    32   17   42 1    
    33   17   43 1    
    34   18   19 1    
    35   18   44 1    
    36   18   45 1    
    37   19   20 1    
    38   19   22 1    
    39   19   61 1    
    40   20   21 1    
    41   20   46 1    
    42   20   47 1    
    43   21   48 1    
    44   21   49 1    
    45   22   23 1    
    46   22   50 1    
    47   22   51 1    
    48   23   25 1    
    49   23   24 1    
    50   23   52 1    
    51   24   25 1    
    52   24   53 1    
    53   24   54 1    
    54   25   55 1    
    55   25   56 1    
    56   26   31 ar   
    57   26   27 ar   
    58   27   28 ar   
    59   27   57 1    
    60   28   29 ar   
    61   28   58 1    
    62   29   30 ar   
    63   30   31 ar   
    64   30   32 1    
    65   32   59 1    
    66   32   60 1    
@<TRIPOS>SUBSTRUCTURE
     1 UNK         1 GROUP             0       ****    0 ROOT    
