@<TRIPOS>MOLECULE
ZINC39962536_5058
49   52    1
SMALL
USER_CHARGES


@<TRIPOS>ATOM
      1 C1          6.0646   56.1321   20.4231 C.3       1 UNK         0.0000 
      2 C2          5.6387   55.0587   19.4449 C.2       1 UNK         0.0000 
      3 C3          5.1517   53.8158   19.5811 C.2       1 UNK         0.0000 
      4 C4          4.7665   52.8415   20.7027 C.3       1 UNK         0.0000 
      5 H5          5.5721   52.1170   20.8168 H         1 UNK         0.0000 
      6 C6          3.5828   51.9898   20.1888 C.2       1 UNK         0.0000 
      7 C7          3.1035   52.0987   18.9260 C.2       1 UNK         0.0000 
      8 O8          3.6107   52.8955   17.9450 O.3       1 UNK         0.0000 
      9 C9          4.9580   53.3313   18.1748 C.3       1 UNK         0.0000 
     10 H10         5.6184   52.5013   17.9113 H         1 UNK         0.0000 
     11 N11         5.3010   54.4637   17.3802 N.2       1 UNK         0.0000 
     12 N12         5.6931   55.4047   18.1361 N.2       1 UNK         0.0000 
     13 N13         2.0890   51.3669   18.3729 N.pl3     1 UNK         0.0000 
     14 C14         2.9882   51.0392   21.0747 C.1       1 UNK         0.0000 
     15 N15         2.4746   50.2906   21.7918 N.1       1 UNK         0.0000 
     16 C16         4.6090   53.4543   22.1067 C.ar      1 UNK         0.0000 
     17 C17         3.3406   53.6315   22.6610 C.ar      1 UNK         0.0000 
     18 C18         3.1600   54.0314   23.9947 C.ar      1 UNK         0.0000 
     19 C19         4.2857   54.3642   24.7588 C.ar      1 UNK         0.0000 
     20 C20         5.5620   54.2887   24.1804 C.ar      1 UNK         0.0000 
     21 C21         5.7207   53.7914   22.8853 C.ar      1 UNK         0.0000 
     22 Br22        7.1029   54.8567   25.1438 Br        1 UNK         0.0000 
     23 O23         4.1143   54.7949   26.0578 O.3       1 UNK         0.0000 
     24 C24         4.6091   53.9131   27.0715 C.3       1 UNK         0.0000 
     25 C25         3.5565   53.5791   28.1235 C.ar      1 UNK         0.0000 
     26 C26         2.2096   53.9377   27.9783 C.ar      1 UNK         0.0000 
     27 C27         1.2724   53.5689   28.9464 C.ar      1 UNK         0.0000 
     28 C28         1.6746   52.8443   30.0692 C.ar      1 UNK         0.0000 
     29 C29         3.0164   52.4962   30.2257 C.ar      1 UNK         0.0000 
     30 C30         3.9495   52.8601   29.2574 C.ar      1 UNK         0.0000 
     31 F31         3.4162   51.7941   31.3092 F         1 UNK         0.0000 
     32 O32         1.9177   54.0859   24.6014 O.3       1 UNK         0.0000 
     33 C33         0.7951   53.6129   23.8675 C.3       1 UNK         0.0000 
     34 H34         5.6697   57.1023   20.1210 H         1 UNK         0.0000 
     35 H35         5.7074   55.9287   21.4254 H         1 UNK         0.0000 
     36 H36         7.1523   56.1982   20.4499 H         1 UNK         0.0000 
     37 H37         1.5992   50.6940   18.9437 H         1 UNK         0.0000 
     38 H38         2.1337   51.1628   17.3849 H         1 UNK         0.0000 
     39 H39         2.4876   53.4024   22.0441 H         1 UNK         0.0000 
     40 H40         6.7155   53.6966   22.4820 H         1 UNK         0.0000 
     41 H41         4.9941   52.9723   26.6705 H         1 UNK         0.0000 
     42 H42         5.4413   54.4137   27.5673 H         1 UNK         0.0000 
     43 H43         1.8782   54.4881   27.1096 H         1 UNK         0.0000 
     44 H44         0.2326   53.8344   28.8179 H         1 UNK         0.0000 
     45 H45         0.9488   52.5457   30.8132 H         1 UNK         0.0000 
     46 H46         4.9807   52.5651   29.3849 H         1 UNK         0.0000 
     47 H47         0.7043   54.1964   22.9570 H         1 UNK         0.0000 
     48 H48         0.9029   52.5585   23.6080 H         1 UNK         0.0000 
     49 H49        -0.1338   53.7181   24.4217 H         1 UNK         0.0000 
@<TRIPOS>BOND
     1    1    2 1    
     2    1   34 1    
     3    1   35 1    
     4    1   36 1    
     5    2   12 1    
     6    2    3 2    
     7    3    9 1    
     8    3    4 1    
     9    4    5 1    
    10    4    6 1    
    11    4   16 1    
    12    6    7 2    
    13    6   14 1    
    14    7    8 1    
    15    7   13 1    
    16    8    9 1    
    17    9   10 1    
    18    9   11 1    
    19   11   12 2    
    20   13   37 1    
    21   13   38 1    
    22   14   15 3    
    23   16   21 ar   
    24   16   17 ar   
    25   17   18 ar   
    26   17   39 1    
    27   18   19 ar   
    28   18   32 1    
    29   19   20 ar   
    30   19   23 1    
    31   20   21 ar   
    32   20   22 1    
    33   21   40 1    
    34   23   24 1    
    35   24   25 1    
    36   24   41 1    
    37   24   42 1    
    38   25   30 ar   
    39   25   26 ar   
    40   26   27 ar   
    41   26   43 1    
    42   27   28 ar   
    43   27   44 1    
    44   28   29 ar   
    45   28   45 1    
    46   29   30 ar   
    47   29   31 1    
    48   30   46 1    
    49   32   33 1    
    50   33   47 1    
    51   33   48 1    
    52   33   49 1    
@<TRIPOS>SUBSTRUCTURE
     1 UNK         1 GROUP             0       ****    0 ROOT    
