ZINC14276161_3524
                    3D
 Schrodinger Suite 2024-2.
 47 50  0  0  1  0            999 V2000
    6.1126   54.1584   15.6207 C   0  0  0  0  0  0
    6.8697   55.3325   15.6884 C   0  0  0  0  0  0
    7.1466   55.9502   16.9111 C   0  0  0  0  0  0
    6.6226   55.3422   18.0589 C   0  0  0  0  0  0
    5.8446   54.1617   18.0150 C   0  0  0  0  0  0
    5.5958   53.5582   16.7720 C   0  0  0  0  0  0
    5.5157   53.8847   19.3761 C   0  0  0  0  0  0
    6.1082   54.8958   20.1410 C   0  0  0  0  0  0
    6.7956   55.7714   19.3451 O   0  0  0  0  0  0
    6.2266   55.0520   21.5674 C   0  0  0  0  0  0
    7.1442   55.6966   22.0733 O   0  0  0  0  0  0
    5.2466   54.4375   22.2552 N   0  0  0  0  0  0
    5.0861   54.4016   23.6459 C   0  0  0  0  0  0
    3.7785   54.4963   24.1147 C   0  0  0  0  0  0
    3.5297   54.3981   25.4733 C   0  0  0  0  0  0
    4.5689   54.1247   26.3683 C   0  0  0  0  0  0
    5.8887   54.0971   25.9072 C   0  0  0  0  0  0
    6.1504   54.2352   24.5434 C   0  0  0  0  0  0
    4.3251   53.8474   27.7299 N   0  0  0  0  0  0
    3.3168   53.1194   28.3070 C   0  0  0  0  0  0
    3.4238   52.8843   29.9571 S   0  0  0  0  0  0
    2.3506   52.6346   27.4578 N   0  0  0  0  0  0
    1.1941   51.9511   27.6346 C   0  0  0  0  0  0
    0.6681   51.7084   28.7239 O   0  0  0  0  0  0
    0.5690   51.4393   26.3528 C   0  0  0  0  0  0
   -0.1498   50.2390   26.3642 C   0  0  0  0  0  0
   -0.6943   49.7097   25.1937 C   0  0  0  0  0  0
   -0.5229   50.3746   23.9817 C   0  0  0  0  0  0
    0.1733   51.5797   23.9508 C   0  0  0  0  0  0
    0.7049   52.1113   25.1254 C   0  0  0  0  0  0
    0.4243   52.4960   22.3025 Br  0  0  0  0  0  0
    5.9340   53.7018   14.6566 H   0  0  0  0  0  0
    7.2547   55.7645   14.7754 H   0  0  0  0  0  0
    7.7360   56.8532   16.9694 H   0  0  0  0  0  0
    5.0314   52.6366   16.7147 H   0  0  0  0  0  0
    4.9480   53.0403   19.7401 H   0  0  0  0  0  0
    4.5008   54.0300   21.7102 H   0  0  0  0  0  0
    2.9527   54.6507   23.4344 H   0  0  0  0  0  0
    2.5178   54.4972   25.8233 H   0  0  0  0  0  0
    6.7070   53.9078   26.5884 H   0  0  0  0  0  0
    7.1667   54.1649   24.1837 H   0  0  0  0  0  0
    5.0622   54.1399   28.3558 H   0  0  0  0  0  0
    2.6051   52.7240   26.4861 H   0  0  0  0  0  0
   -0.2844   49.6967   27.2816 H   0  0  0  0  0  0
   -1.2353   48.7764   25.2368 H   0  0  0  0  0  0
   -0.9291   49.9591   23.0706 H   0  0  0  0  0  0
    1.2203   53.0507   25.0536 H   0  0  0  0  0  0
  1  6  2  0  0  0
  1  2  1  0  0  0
  1 32  1  0  0  0
  2  3  2  0  0  0
  2 33  1  0  0  0
  3  4  1  0  0  0
  3 34  1  0  0  0
  4  9  1  0  0  0
  4  5  2  0  0  0
  5  6  1  0  0  0
  5  7  1  0  0  0
  6 35  1  0  0  0
  7  8  2  0  0  0
  7 36  1  0  0  0
  8  9  1  0  0  0
  8 10  1  0  0  0
 10 11  2  0  0  0
 10 12  1  0  0  0
 12 13  1  0  0  0
 12 37  1  0  0  0
 13 18  2  0  0  0
 13 14  1  0  0  0
 14 15  2  0  0  0
 14 38  1  0  0  0
 15 16  1  0  0  0
 15 39  1  0  0  0
 16 17  2  0  0  0
 16 19  1  0  0  0
 17 18  1  0  0  0
 17 40  1  0  0  0
 18 41  1  0  0  0
 19 20  1  0  0  0
 19 42  1  0  0  0
 20 21  2  0  0  0
 20 22  1  0  0  0
 22 23  1  0  0  0
 22 43  1  0  0  0
 23 24  2  0  0  0
 23 25  1  0  0  0
 25 30  2  0  0  0
 25 26  1  0  0  0
 26 27  2  0  0  0
 26 44  1  0  0  0
 27 28  1  0  0  0
 27 45  1  0  0  0
 28 29  2  0  0  0
 28 46  1  0  0  0
 29 30  1  0  0  0
 29 31  1  0  0  0
 30 47  1  0  0  0
M  END
> <i_i_glide_confnum>
168

> <i_i_glide_lignum>
3525

> <i_i_glide_posenum>
150

> <i_i_glide_rotatable_bonds>
8

> <i_m_Source_File_Index>
1738

> <b_m_subgroup_collapsed>
0

> <r_i_docking_score>
-4.74143

> <r_i_glide_ecoul>
-4.67665

> <r_i_glide_eff_state_penalty>
0

> <r_i_glide_einternal>
7.70251

> <r_i_glide_emodel>
-55.3328

> <r_i_glide_energy>
-46.2566

> <r_i_glide_erotb>
0.583672

> <r_i_glide_esite>
0

> <r_i_glide_evdw>
-41.5799

> <r_i_glide_gscore>
-4.74143

> <r_i_glide_hbond>
0

> <r_i_glide_ligand_efficiency>
-0.152949

> <r_i_glide_ligand_efficiency_ln>
-1.06934

> <r_i_glide_ligand_efficiency_sa>
-0.480472

> <r_i_glide_lipo>
-1.72971

> <r_i_glide_metal>
0

> <r_i_glide_rewards>
-0.814897

> <s_i_glide_gridfile>
wee1_glide-grid

> <s_m_Source_File>
wee1_decoys_glide_SP.sdf

> <s_m_Source_Path>
/Users/zhangxujun/Desktop

> <s_m_entry_id>
2013

> <s_m_entry_name>
wee1_decoys_glide_SP.1738

> <s_m_subgroup_title>
wee1_decoys_glide_SP

> <s_m_subgroupid>
wee1_decoys_glide_SP


$$$$
