@<TRIPOS>MOLECULE
ZINC25059818_533
56   59    1
SMALL
USER_CHARGES


@<TRIPOS>ATOM
      1 C1          6.6268   54.8990   22.9268 C.3       1 UNK         0.0000 
      2 C2          5.8979   54.5145   24.1999 C.ar      1 UNK         0.0000 
      3 C3          6.5671   54.5836   25.4181 C.ar      1 UNK         0.0000 
      4 C4          5.9170   54.2234   26.5944 C.ar      1 UNK         0.0000 
      5 C5          4.5869   53.7794   26.5691 C.ar      1 UNK         0.0000 
      6 C6          3.9268   53.7190   25.3338 C.ar      1 UNK         0.0000 
      7 C7          4.5722   54.0967   24.1585 C.ar      1 UNK         0.0000 
      8 C8          3.9546   53.3406   27.8699 C.ar      1 UNK         0.0000 
      9 N9          4.6745   52.9013   28.8809 N.2       1 UNK         0.0000 
     10 N10         3.8199   52.6486   29.9471 N.2       1 UNK         0.0000 
     11 C11         2.6088   52.9599   29.5611 C.ar      1 UNK         0.0000 
     12 S12         1.2163   52.8958   30.6550 S.3       1 UNK         0.0000 
     13 N13         2.6106   53.3678   28.2321 N.pl3     1 UNK         0.0000 
     14 C14         1.4541   53.8206   27.4525 C.3       1 UNK         0.0000 
     15 C15         0.4899   52.7076   27.0086 C.2       1 UNK         0.0000 
     16 O16        -0.5750   52.5843   27.6159 O.2       1 UNK         0.0000 
     17 N17         0.8267   51.9669   25.9302 N.am      1 UNK         0.0000 
     18 C18        -0.0016   51.0221   25.3366 C.2       1 UNK         0.0000 
     19 N19        -1.3138   51.0254   25.3507 N.2       1 UNK         0.0000 
     20 C20        -1.8382   49.9583   24.7707 C.2       1 UNK         0.0000 
     21 C21        -0.9028   49.0947   24.2026 C.2       1 UNK         0.0000 
     22 S22         0.7040   49.6971   24.4818 S.3       1 UNK         0.0000 
     23 C23        -3.3615   49.8135   24.7665 C.3       1 UNK         0.0000 
     24 N24        -4.0664   50.5265   25.8450 N.3       1 UNK         0.0000 
     25 C25        -3.7916   49.9500   27.1771 C.3       1 UNK         0.0000 
     26 C26        -4.5284   50.7482   28.2800 C.3       1 UNK         0.0000 
     27 H27        -4.1348   51.7654   28.3151 H         1 UNK         0.0000 
     28 O28        -5.9236   50.8196   27.9792 O.3       1 UNK         0.0000 
     29 C29        -6.1818   51.4338   26.7195 C.3       1 UNK         0.0000 
     30 H30        -5.7748   52.4485   26.7291 H         1 UNK         0.0000 
     31 C31        -5.5150   50.5893   25.6072 C.3       1 UNK         0.0000 
     32 C32        -7.7006   51.5280   26.5278 C.3       1 UNK         0.0000 
     33 C33        -4.3452   50.1254   29.6682 C.3       1 UNK         0.0000 
     34 H34         7.2073   55.8103   23.0800 H         1 UNK         0.0000 
     35 H35         5.9367   55.0937   22.1030 H         1 UNK         0.0000 
     36 H36         7.3207   54.1094   22.6375 H         1 UNK         0.0000 
     37 H37         7.5947   54.9014   25.4460 H         1 UNK         0.0000 
     38 H38         6.4565   54.2750   27.5290 H         1 UNK         0.0000 
     39 H39         2.9265   53.3391   25.2428 H         1 UNK         0.0000 
     40 H40         4.0492   54.0351   23.2152 H         1 UNK         0.0000 
     41 H41         0.9034   54.5252   28.0748 H         1 UNK         0.0000 
     42 H42         1.7714   54.4334   26.6160 H         1 UNK         0.0000 
     43 H43         1.7857   51.9876   25.6225 H         1 UNK         0.0000 
     44 H44        -1.0689   48.1725   23.6716 H         1 UNK         0.0000 
     45 H45        -3.7320   50.1880   23.8108 H         1 UNK         0.0000 
     46 H46        -3.6389   48.7565   24.7920 H         1 UNK         0.0000 
     47 H47        -4.0680   48.8936   27.1858 H         1 UNK         0.0000 
     48 H48        -2.7159   50.0396   27.3359 H         1 UNK         0.0000 
     49 H49        -5.6456   51.0853   24.6438 H         1 UNK         0.0000 
     50 H50        -5.9129   49.5721   25.5592 H         1 UNK         0.0000 
     51 H51        -7.9534   52.0025   25.5796 H         1 UNK         0.0000 
     52 H52        -8.1631   50.5390   26.5441 H         1 UNK         0.0000 
     53 H53        -8.1563   52.1174   27.3245 H         1 UNK         0.0000 
     54 H54        -3.2926   50.0972   29.9518 H         1 UNK         0.0000 
     55 H55        -4.8758   50.6975   30.4314 H         1 UNK         0.0000 
     56 H56        -4.7204   49.1020   29.6962 H         1 UNK         0.0000 
@<TRIPOS>BOND
     1    1    2 1    
     2    1   34 1    
     3    1   35 1    
     4    1   36 1    
     5    2    7 ar   
     6    2    3 ar   
     7    3    4 ar   
     8    3   37 1    
     9    4    5 ar   
    10    4   38 1    
    11    5    6 ar   
    12    5    8 1    
    13    6    7 ar   
    14    6   39 1    
    15    7   40 1    
    16    8   13 ar   
    17    8    9 ar   
    18    9   10 ar   
    19   10   11 ar   
    20   11   12 1    
    21   11   13 ar   
    22   13   14 1    
    23   14   15 1    
    24   14   41 1    
    25   14   42 1    
    26   15   16 2    
    27   15   17 am   BACKBONE|DICT|INTERRES
    28   17   18 am   BACKBONE|DICT|INTERRES
    29   17   43 1    
    30   18   22 1    
    31   18   19 2    
    32   19   20 1    
    33   20   21 2    
    34   20   23 1    
    35   21   22 1    
    36   21   44 1    
    37   23   24 1    
    38   23   45 1    
    39   23   46 1    
    40   24   31 1    
    41   24   25 1    
    42   25   26 1    
    43   25   47 1    
    44   25   48 1    
    45   26   27 1    
    46   26   28 1    
    47   26   33 1    
    48   28   29 1    
    49   29   30 1    
    50   29   31 1    
    51   29   32 1    
    52   31   49 1    
    53   31   50 1    
    54   32   51 1    
    55   32   52 1    
    56   32   53 1    
    57   33   54 1    
    58   33   55 1    
    59   33   56 1    
@<TRIPOS>SUBSTRUCTURE
     1 UNK         1 GROUP             0       ****    0 ROOT    
