@<TRIPOS>MOLECULE
ZINC64794384_4969
56   60    1
SMALL
USER_CHARGES


@<TRIPOS>ATOM
      1 C1         -6.9269   52.4736   24.9465 C.3       1 UNK         0.0000 
      2 C2         -6.2200   51.3100   25.6164 C.ar      1 UNK         0.0000 
      3 C3         -6.8437   50.0671   25.7030 C.ar      1 UNK         0.0000 
      4 C4         -6.1853   48.9934   26.2968 C.ar      1 UNK         0.0000 
      5 C5         -4.8894   49.1427   26.8005 C.ar      1 UNK         0.0000 
      6 C6         -4.2431   50.3919   26.7142 C.ar      1 UNK         0.0000 
      7 C7         -4.9296   51.4712   26.1252 C.ar      1 UNK         0.0000 
      8 N8         -2.9293   50.4892   27.2280 N.am      1 UNK         0.0000 
      9 C9         -2.0210   51.4768   27.1063 C.2       1 UNK         0.0000 
     10 O10        -2.1995   52.5233   26.4816 O.2       1 UNK         0.0000 
     11 C11        -0.6782   51.1997   27.7951 C.3       1 UNK         0.0000 
     12 S12         0.4687   52.6205   27.8763 S.3       1 UNK         0.0000 
     13 C13         1.1431   52.6083   26.2345 C.ar      1 UNK         0.0000 
     14 N14         0.7405   51.8299   25.2603 N.2       1 UNK         0.0000 
     15 N15         1.5301   52.1015   24.1535 N.2       1 UNK         0.0000 
     16 C16         2.3934   53.0353   24.4828 C.ar      1 UNK         0.0000 
     17 N17         2.1688   53.4260   25.7967 N.pl3     1 UNK         0.0000 
     18 C18         2.8159   54.4860   26.5755 C.3       1 UNK         0.0000 
     19 C19         4.0005   54.0331   27.3868 C.2       1 UNK         0.0000 
     20 C20         5.3050   54.4885   27.5149 C.2       1 UNK         0.0000 
     21 C21         5.9203   53.6966   28.4780 C.2       1 UNK         0.0000 
     22 C22         4.9619   52.7860   28.8816 C.2       1 UNK         0.0000 
     23 O23         3.7957   52.9933   28.2306 O.3       1 UNK         0.0000 
     24 C24         3.4328   53.5377   23.5338 C.2       1 UNK         0.0000 
     25 C25         3.4393   53.4741   22.1399 C.2       1 UNK         0.0000 
     26 C26         4.5916   54.0692   21.5337 C.ar      1 UNK         0.0000 
     27 C27         4.9418   54.2847   20.1860 C.ar      1 UNK         0.0000 
     28 C28         6.1527   54.9165   19.8974 C.ar      1 UNK         0.0000 
     29 C29         6.9847   55.2989   20.9484 C.ar      1 UNK         0.0000 
     30 N30         6.7013   55.0891   22.2590 N.ar      1 UNK         0.0000 
     31 C31         5.5306   54.4943   22.5116 C.ar      1 UNK         0.0000 
     32 S32         4.9774   54.1362   24.1293 S.3       1 UNK         0.0000 
     33 N33         2.4323   52.8969   21.4123 N.pl3     1 UNK         0.0000 
     34 C34        -4.2106   47.9284   27.4248 C.3       1 UNK         0.0000 
     35 H35        -6.2138   53.1667   24.4997 H         1 UNK         0.0000 
     36 H36        -7.5631   52.1225   24.1331 H         1 UNK         0.0000 
     37 H37        -7.5449   53.0142   25.6633 H         1 UNK         0.0000 
     38 H38        -7.8398   49.9292   25.3087 H         1 UNK         0.0000 
     39 H39        -6.6878   48.0389   26.3573 H         1 UNK         0.0000 
     40 H40        -4.4850   52.4490   26.0482 H         1 UNK         0.0000 
     41 H41        -2.5925   49.6436   27.6875 H         1 UNK         0.0000 
     42 H42        -0.8856   50.9001   28.8233 H         1 UNK         0.0000 
     43 H43        -0.1878   50.3494   27.3200 H         1 UNK         0.0000 
     44 H44         3.1047   55.2831   25.8945 H         1 UNK         0.0000 
     45 H45         2.0700   54.8968   27.2570 H         1 UNK         0.0000 
     46 H46         5.7546   55.3110   26.9792 H         1 UNK         0.0000 
     47 H47         6.9377   53.7779   28.8361 H         1 UNK         0.0000 
     48 H48         4.9622   51.9778   29.5968 H         1 UNK         0.0000 
     49 H49         4.2817   53.9772   19.3866 H         1 UNK         0.0000 
     50 H50         6.4465   55.0990   18.8722 H         1 UNK         0.0000 
     51 H51         7.9350   55.7700   20.7424 H         1 UNK         0.0000 
     52 H52         1.6522   52.4475   21.8706 H         1 UNK         0.0000 
     53 H53         2.3672   53.0051   20.4094 H         1 UNK         0.0000 
     54 H54        -3.2937   47.6916   26.8829 H         1 UNK         0.0000 
     55 H55        -3.9350   48.1394   28.4597 H         1 UNK         0.0000 
     56 H56        -4.8473   47.0423   27.4176 H         1 UNK         0.0000 
@<TRIPOS>BOND
     1    1    2 1    
     2    1   35 1    
     3    1   36 1    
     4    1   37 1    
     5    2    7 ar   
     6    2    3 ar   
     7    3    4 ar   
     8    3   38 1    
     9    4    5 ar   
    10    4   39 1    
    11    5    6 ar   
    12    5   34 1    
    13    6    7 ar   
    14    6    8 1    
    15    7   40 1    
    16    8    9 am   BACKBONE|DICT|INTERRES
    17    8   41 1    
    18    9   10 2    
    19    9   11 1    
    20   11   12 1    
    21   11   42 1    
    22   11   43 1    
    23   12   13 1    
    24   13   17 ar   
    25   13   14 ar   
    26   14   15 ar   
    27   15   16 ar   
    28   16   17 ar   
    29   16   24 1    
    30   17   18 1    
    31   18   19 1    
    32   18   44 1    
    33   18   45 1    
    34   19   23 1    
    35   19   20 2    
    36   20   21 1    
    37   20   46 1    
    38   21   22 2    
    39   21   47 1    
    40   22   23 1    
    41   22   48 1    
    42   24   32 1    
    43   24   25 2    
    44   25   26 1    
    45   25   33 1    
    46   26   31 ar   
    47   26   27 ar   
    48   27   28 ar   
    49   27   49 1    
    50   28   29 ar   
    51   28   50 1    
    52   29   30 ar   
    53   29   51 1    
    54   30   31 ar   
    55   31   32 1    
    56   33   52 1    
    57   33   53 1    
    58   34   54 1    
    59   34   55 1    
    60   34   56 1    
@<TRIPOS>SUBSTRUCTURE
     1 UNK         1 GROUP             0       ****    0 ROOT    
