@<TRIPOS>MOLECULE
ZINC25247279_2501
53   56    1
SMALL
USER_CHARGES


@<TRIPOS>ATOM
      1 C1          1.1282   52.1862   32.2174 C.3       1 UNK         0.0000 
      2 C2          0.8235   52.2269   30.7160 C.3       1 UNK         0.0000 
      3 N3          1.3320   53.4207   30.0282 N.pl3     1 UNK         0.0000 
      4 C4          0.6251   54.6565   30.4068 C.3       1 UNK         0.0000 
      5 C5          1.2225   55.9712   29.8686 C.3       1 UNK         0.0000 
      6 C6          1.4618   53.2493   28.6225 C.ar      1 UNK         0.0000 
      7 C7          2.6313   53.6299   27.9330 C.ar      1 UNK         0.0000 
      8 C8          2.6554   53.5195   26.4937 C.ar      1 UNK         0.0000 
      9 C9          3.7719   53.8993   25.6685 C.ar      1 UNK         0.0000 
     10 C10         3.6801   53.7901   24.2955 C.ar      1 UNK         0.0000 
     11 N11         2.5813   53.3427   23.6527 N.ar      1 UNK         0.0000 
     12 C12         1.5475   52.9061   24.3937 C.ar      1 UNK         0.0000 
     13 C13         1.5037   52.9748   25.8247 C.ar      1 UNK         0.0000 
     14 C14         0.4186   52.5607   26.6520 C.ar      1 UNK         0.0000 
     15 N15         0.4003   52.7045   27.9833 N.ar      1 UNK         0.0000 
     16 N16        -0.7813   52.0554   26.1676 N.pl3     1 UNK         0.0000 
     17 N17         0.5461   52.3433   23.6082 N.pl3     1 UNK         0.0000 
     18 N18         4.9121   54.0967   23.6765 N.am      1 UNK         0.0000 
     19 C19         5.8199   54.4969   24.6079 C.2       1 UNK         0.0000 
     20 O20         6.9824   54.8629   24.4474 O.2       1 UNK         0.0000 
     21 C21         5.1468   54.4085   25.9681 C.3       1 UNK         0.0000 
     22 C22         5.1662   53.9983   22.2802 C.ar      1 UNK         0.0000 
     23 C23         4.6929   52.8898   21.5640 C.ar      1 UNK         0.0000 
     24 C24         4.8525   52.8175   20.1835 C.ar      1 UNK         0.0000 
     25 C25         5.5139   53.8380   19.5049 C.ar      1 UNK         0.0000 
     26 C26         6.0427   54.9175   20.2118 C.ar      1 UNK         0.0000 
     27 C27         5.8790   54.9932   21.5922 C.ar      1 UNK         0.0000 
     28 C28         5.7038   53.7454   18.0026 C.3       1 UNK         0.0000 
     29 C29         3.7903   54.1142   28.6851 C.1       1 UNK         0.0000 
     30 N30         4.7028   54.4968   29.2813 N.1       1 UNK         0.0000 
     31 H31         0.7046   51.2953   32.6727 H         1 UNK         0.0000 
     32 H32         0.6991   53.0258   32.7622 H         1 UNK         0.0000 
     33 H33         2.2025   52.1665   32.4027 H         1 UNK         0.0000 
     34 H34         1.2597   51.3471   30.2387 H         1 UNK         0.0000 
     35 H35        -0.2548   52.1449   30.5595 H         1 UNK         0.0000 
     36 H36        -0.4135   54.5688   30.0822 H         1 UNK         0.0000 
     37 H37         0.5975   54.7429   31.4926 H         1 UNK         0.0000 
     38 H38         0.7037   56.8310   30.2925 H         1 UNK         0.0000 
     39 H39         2.2739   56.0775   30.1402 H         1 UNK         0.0000 
     40 H40         1.1372   56.0451   28.7841 H         1 UNK         0.0000 
     41 H41        -0.9951   52.1486   25.1870 H         1 UNK         0.0000 
     42 H42        -1.4905   51.8124   26.8438 H         1 UNK         0.0000 
     43 H43         0.1343   51.5077   23.9947 H         1 UNK         0.0000 
     44 H44         0.7715   52.3313   22.6234 H         1 UNK         0.0000 
     45 H45         5.1384   55.3947   26.4326 H         1 UNK         0.0000 
     46 H46         5.7177   53.7189   26.5925 H         1 UNK         0.0000 
     47 H47         4.1729   52.0850   22.0608 H         1 UNK         0.0000 
     48 H48         4.4630   51.9648   19.6443 H         1 UNK         0.0000 
     49 H49         6.5809   55.6987   19.6939 H         1 UNK         0.0000 
     50 H50         6.3020   55.8376   22.1160 H         1 UNK         0.0000 
     51 H51         5.8199   52.7066   17.6888 H         1 UNK         0.0000 
     52 H52         4.8448   54.1702   17.4834 H         1 UNK         0.0000 
     53 H53         6.6064   54.2688   17.6849 H         1 UNK         0.0000 
@<TRIPOS>BOND
     1    1    2 1    
     2    1   31 1    
     3    1   32 1    
     4    1   33 1    
     5    2    3 1    
     6    2   34 1    
     7    2   35 1    
     8    3    4 1    
     9    3    6 1    
    10    4    5 1    
    11    4   36 1    
    12    4   37 1    
    13    5   38 1    
    14    5   39 1    
    15    5   40 1    
    16    6   15 ar   
    17    6    7 ar   
    18    7    8 ar   
    19    7   29 1    
    20    8   13 ar   
    21    8    9 ar   
    22    9   21 1    
    23    9   10 ar   
    24   10   11 ar   
    25   10   18 1    
    26   11   12 ar   
    27   12   13 ar   
    28   12   17 1    
    29   13   14 ar   
    30   14   15 ar   
    31   14   16 1    
    32   16   41 1    
    33   16   42 1    
    34   17   43 1    
    35   17   44 1    
    36   18   19 am   BACKBONE|DICT|INTERRES
    37   18   22 1    
    38   19   20 2    
    39   19   21 1    
    40   21   45 1    
    41   21   46 1    
    42   22   27 ar   
    43   22   23 ar   
    44   23   24 ar   
    45   23   47 1    
    46   24   25 ar   
    47   24   48 1    
    48   25   26 ar   
    49   25   28 1    
    50   26   27 ar   
    51   26   49 1    
    52   27   50 1    
    53   28   51 1    
    54   28   52 1    
    55   28   53 1    
    56   29   30 3    
@<TRIPOS>SUBSTRUCTURE
     1 UNK         1 GROUP             0       ****    0 ROOT    
