@<TRIPOS>MOLECULE
ZINC13401014_2015
44   46    1
SMALL
USER_CHARGES


@<TRIPOS>ATOM
      1 C1          1.1816   55.4891   30.4816 C.ar      1 UNK         0.0000 
      2 C2          0.3047   54.4966   30.8852 C.ar      1 UNK         0.0000 
      3 C3          0.1085   53.3818   30.0834 C.ar      1 UNK         0.0000 
      4 C4          0.7929   53.2144   28.8652 C.ar      1 UNK         0.0000 
      5 C5          1.7595   54.1900   28.4774 C.ar      1 UNK         0.0000 
      6 C6          1.9042   55.3273   29.3042 C.ar      1 UNK         0.0000 
      7 N7          2.4535   54.0721   27.2838 N.2       1 UNK         0.0000 
      8 C8          3.7517   54.3355   27.2242 C.2       1 UNK         0.0000 
      9 O9          4.4758   54.4969   28.2138 O.2       1 UNK         0.0000 
     10 C10         4.3916   54.4160   25.9123 C.2       1 UNK         0.0000 
     11 C11         3.8138   53.9326   24.7827 C.2       1 UNK         0.0000 
     12 C12         4.3082   53.9581   23.4168 C.2       1 UNK         0.0000 
     13 C13         5.4202   54.4960   22.7755 C.2       1 UNK         0.0000 
     14 C14         5.3026   54.1979   21.4160 C.2       1 UNK         0.0000 
     15 C15         4.1344   53.4649   21.2678 C.2       1 UNK         0.0000 
     16 O16         3.5487   53.3271   22.4853 O.3       1 UNK         0.0000 
     17 C17         3.4164   52.8683   20.1080 C.ar      1 UNK         0.0000 
     18 C18         3.7056   53.2968   18.8106 C.ar      1 UNK         0.0000 
     19 C19         2.9892   52.7879   17.7314 C.ar      1 UNK         0.0000 
     20 C20         1.9925   51.8349   17.9491 C.ar      1 UNK         0.0000 
     21 C21         1.7155   51.3837   19.2398 C.ar      1 UNK         0.0000 
     22 C22         2.4235   51.9050   20.3179 C.ar      1 UNK         0.0000 
     23 S23         1.0930   51.1656   16.5601 S.o2      1 UNK         0.0000 
     24 O24         0.5081   49.8841   16.9702 O.2       1 UNK         0.0000 
     25 O25         0.2460   52.2379   16.0259 O.2       1 UNK         0.0000 
     26 N26         2.3045   50.8202   15.3626 N.pl3     1 UNK         0.0000 
     27 C27         5.6746   55.0401   25.8718 C.1       1 UNK         0.0000 
     28 N28         6.7044   55.5607   25.7930 N.1       1 UNK         0.0000 
     29 N29         0.4647   51.9946   28.0586 N.pl3     1 UNK         0.0000 
     30 O30        -0.4718   51.2968   28.4346 O.co2     1 UNK         0.0000 
     31 O31         1.1039   51.7014   27.0534 O.co2     1 UNK         0.0000 
     32 H32         1.3236   56.3711   31.0911 H         1 UNK         0.0000 
     33 H33        -0.2326   54.5885   31.8164 H         1 UNK         0.0000 
     34 H34        -0.5974   52.6396   30.4291 H         1 UNK         0.0000 
     35 H35         2.5834   56.1172   29.0213 H         1 UNK         0.0000 
     36 H36         2.8475   53.4484   24.8441 H         1 UNK         0.0000 
     37 H37         6.2257   55.0566   23.2271 H         1 UNK         0.0000 
     38 H38         5.9862   54.4831   20.6307 H         1 UNK         0.0000 
     39 H39         4.4714   54.0371   18.6339 H         1 UNK         0.0000 
     40 H40         3.2103   53.1259   16.7290 H         1 UNK         0.0000 
     41 H41         0.9553   50.6343   19.4106 H         1 UNK         0.0000 
     42 H42         2.1948   51.5598   21.3149 H         1 UNK         0.0000 
     43 H43         2.9729   50.1220   15.7325 H         1 UNK         0.0000 
     44 H44         1.8818   50.4518   14.5107 H         1 UNK         0.0000 
@<TRIPOS>BOND
     1    1    6 ar   
     2    1    2 ar   
     3    1   32 1    
     4    2    3 ar   
     5    2   33 1    
     6    3    4 ar   
     7    3   34 1    
     8    4    5 ar   
     9    4   29 1    
    10    5    6 ar   
    11    5    7 1    
    12    6   35 1    
    13    7    8 1    
    14    8    9 2    
    15    8   10 1    
    16   10   11 2    
    17   10   27 1    
    18   11   12 1    
    19   11   36 1    
    20   12   16 1    
    21   12   13 2    
    22   13   14 1    
    23   13   37 1    
    24   14   15 2    
    25   14   38 1    
    26   15   16 1    
    27   15   17 1    
    28   17   22 ar   
    29   17   18 ar   
    30   18   19 ar   
    31   18   39 1    
    32   19   20 ar   
    33   19   40 1    
    34   20   21 ar   
    35   20   23 1    
    36   21   22 ar   
    37   21   41 1    
    38   22   42 1    
    39   23   24 2    
    40   23   25 2    
    41   23   26 1    
    42   26   43 1    
    43   26   44 1    
    44   27   28 3    
    45   29   30 2    
    46   29   31 1    
@<TRIPOS>SUBSTRUCTURE
     1 UNK         1 GROUP             0       ****    0 ROOT    
