@<TRIPOS>MOLECULE
ZINC63941201_2226
64   68    1
SMALL
USER_CHARGES


@<TRIPOS>ATOM
      1 C1         -0.9084   50.4959   26.7794 C.3       1 UNK         0.0000 
      2 C2         -0.1413   51.4505   27.6633 C.2       1 UNK         0.0000 
      3 C3         -0.6304   51.8557   28.9802 C.2       1 UNK         0.0000 
      4 C4         -0.0768   52.8717   29.6924 C.2       1 UNK         0.0000 
      5 C5          1.0463   53.5470   29.1966 C.2       1 UNK         0.0000 
      6 N6          1.7283   54.5433   29.7081 N.pl3     1 UNK         0.0000 
      7 C7          2.8923   54.8505   28.8508 C.3       1 UNK         0.0000 
      8 C8          2.7409   53.8280   27.7407 C.2       1 UNK         0.0000 
      9 C9          1.6092   53.1499   27.9853 C.2       1 UNK         0.0000 
     10 C10         0.9491   52.0987   27.2091 C.2       1 UNK         0.0000 
     11 C11         3.7493   53.6595   26.6175 C.3       1 UNK         0.0000 
     12 C12         4.0311   54.9207   25.7980 C.3       1 UNK         0.0000 
     13 N13         4.9724   54.6913   24.7068 N.am      1 UNK         0.0000 
     14 C14         4.5377   54.2325   23.3887 C.3       1 UNK         0.0000 
     15 C15         5.8232   54.0422   22.5879 C.3       1 UNK         0.0000 
     16 H16         5.9051   52.9945   22.2897 H         1 UNK         0.0000 
     17 C17         6.9397   54.4494   23.5574 C.3       1 UNK         0.0000 
     18 C18         6.3020   54.8138   24.8867 C.2       1 UNK         0.0000 
     19 O19         6.9089   55.1469   25.9025 O.2       1 UNK         0.0000 
     20 C20         5.8340   54.8962   21.2891 C.2       1 UNK         0.0000 
     21 O21         6.3044   56.0417   21.2813 O.2       1 UNK         0.0000 
     22 N22         5.3201   54.2723   20.2071 N.am      1 UNK         0.0000 
     23 C23         5.4147   54.6590   18.9140 C.2       1 UNK         0.0000 
     24 N24         6.3778   55.2724   18.3576 N.2       1 UNK         0.0000 
     25 N25         6.1856   55.3895   16.9855 N.pl3     1 UNK         0.0000 
     26 C26         4.8555   55.0747   16.5059 C.3       1 UNK         0.0000 
     27 H27         4.9607   54.3572   15.6911 H         1 UNK         0.0000 
     28 S28         4.0445   54.2012   17.8648 S.3       1 UNK         0.0000 
     29 C29         4.0465   56.3074   16.0210 C.3       1 UNK         0.0000 
     30 C30         3.9762   57.4658   17.0538 C.3       1 UNK         0.0000 
     31 C31         3.0932   58.6228   16.5488 C.3       1 UNK         0.0000 
     32 C32         3.5630   59.1346   15.1687 C.3       1 UNK         0.0000 
     33 C33         3.7255   57.9971   14.1406 C.3       1 UNK         0.0000 
     34 C34         4.6127   56.8667   14.6942 C.3       1 UNK         0.0000 
     35 H35        -0.8409   50.7888   25.7303 H         1 UNK         0.0000 
     36 H36        -0.4955   49.4946   26.8809 H         1 UNK         0.0000 
     37 H37        -1.9708   50.4909   27.0267 H         1 UNK         0.0000 
     38 H38        -1.4596   51.3057   29.4076 H         1 UNK         0.0000 
     39 H39        -0.4836   53.1029   30.6662 H         1 UNK         0.0000 
     40 H40         3.8043   54.7277   29.4383 H         1 UNK         0.0000 
     41 H41         2.7970   55.8830   28.5138 H         1 UNK         0.0000 
     42 H42         1.2843   51.8584   26.2107 H         1 UNK         0.0000 
     43 H43         3.3931   52.8876   25.9400 H         1 UNK         0.0000 
     44 H44         4.6789   53.2783   27.0432 H         1 UNK         0.0000 
     45 H45         4.3981   55.6957   26.4664 H         1 UNK         0.0000 
     46 H46         3.1039   55.2980   25.3761 H         1 UNK         0.0000 
     47 H47         3.8206   54.9090   22.9193 H         1 UNK         0.0000 
     48 H48         4.0230   53.2780   23.5129 H         1 UNK         0.0000 
     49 H49         7.6552   53.6421   23.7073 H         1 UNK         0.0000 
     50 H50         7.5045   55.3171   23.2326 H         1 UNK         0.0000 
     51 H51         4.7928   53.4295   20.3742 H         1 UNK         0.0000 
     52 H52         6.6635   56.2057   16.6306 H         1 UNK         0.0000 
     53 H53         3.0251   55.9765   15.8232 H         1 UNK         0.0000 
     54 H54         4.9751   57.8328   17.2905 H         1 UNK         0.0000 
     55 H55         3.5902   57.0911   18.0022 H         1 UNK         0.0000 
     56 H56         3.1056   59.4384   17.2748 H         1 UNK         0.0000 
     57 H57         2.0576   58.2899   16.4810 H         1 UNK         0.0000 
     58 H58         4.5172   59.6499   15.2844 H         1 UNK         0.0000 
     59 H59         2.8641   59.8827   14.7964 H         1 UNK         0.0000 
     60 H60         4.1550   58.3886   13.2180 H         1 UNK         0.0000 
     61 H61         2.7471   57.5952   13.8789 H         1 UNK         0.0000 
     62 H62         4.6736   56.0617   13.9610 H         1 UNK         0.0000 
     63 H63         5.6415   57.2050   14.8262 H         1 UNK         0.0000 
     64 H64         1.5054   55.0220   30.5783 H         1 UNK         0.0000 
@<TRIPOS>BOND
     1    1    2 1    
     2    1   35 1    
     3    1   36 1    
     4    1   37 1    
     5    2   10 2    
     6    2    3 1    
     7    3    4 2    
     8    3   38 1    
     9    4    5 1    
    10    4   39 1    
    11    5    9 1    
    12    5    6 2    
    13    6    7 1    
    14    6   64 1    
    15    7    8 1    
    16    7   40 1    
    17    7   41 1    
    18    8    9 2    
    19    8   11 1    
    20    9   10 1    
    21   10   42 1    
    22   11   12 1    
    23   11   43 1    
    24   11   44 1    
    25   12   13 1    
    26   12   45 1    
    27   12   46 1    
    28   13   18 am   BACKBONE|DICT|INTERRES
    29   13   14 1    
    30   14   15 1    
    31   14   47 1    
    32   14   48 1    
    33   15   16 1    
    34   15   17 1    
    35   15   20 1    
    36   17   18 1    
    37   17   49 1    
    38   17   50 1    
    39   18   19 2    
    40   20   21 2    
    41   20   22 am   BACKBONE|DICT|INTERRES
    42   22   23 am   BACKBONE|DICT|INTERRES
    43   22   51 1    
    44   23   28 1    
    45   23   24 2    
    46   24   25 1    
    47   25   26 1    
    48   25   52 1    
    49   26   27 1    
    50   26   28 1    
    51   26   29 1    
    52   29   34 1    
    53   29   30 1    
    54   29   53 1    
    55   30   31 1    
    56   30   54 1    
    57   30   55 1    
    58   31   32 1    
    59   31   56 1    
    60   31   57 1    
    61   32   33 1    
    62   32   58 1    
    63   32   59 1    
    64   33   34 1    
    65   33   60 1    
    66   33   61 1    
    67   34   62 1    
    68   34   63 1    
@<TRIPOS>SUBSTRUCTURE
     1 UNK         1 GROUP             0       ****    0 ROOT    
