ZINC38651702_4140
                    3D
 Schrodinger Suite 2024-2.
 51 54  0  0  1  0            999 V2000
    7.3302   54.5582   16.4185 C   0  0  0  0  0  0
    7.4622   55.5790   17.5779 C   0  0  2  0  0  0
    8.3584   55.2782   18.1244 H   0  0  0  0  0  0
    6.3306   55.5085   18.6291 C   0  0  0  0  0  0
    5.6465   56.4968   18.9108 O   0  0  0  0  0  0
    6.2036   54.2583   19.1733 O   0  0  0  0  0  0
    5.2865   53.9775   20.1700 C   0  0  0  0  0  0
    5.0431   54.8234   21.2568 C   0  0  0  0  0  0
    4.0740   54.4967   22.2029 C   0  0  0  0  0  0
    3.3920   53.2786   22.1785 C   0  0  0  0  0  0
    3.6953   52.4083   21.1114 C   0  0  0  0  0  0
    4.6055   52.7628   20.1126 C   0  0  0  0  0  0
    3.1271   51.1595   20.9900 O   0  0  0  0  0  0
    2.3060   50.7144   21.9672 C   0  0  0  0  0  0
    1.9044   51.4257   23.0409 C   0  0  0  0  0  0
    2.3387   52.8902   23.2491 C   0  0  1  0  0  0
    1.4682   53.4966   22.9922 H   0  0  0  0  0  0
    2.6318   53.3002   24.7205 C   0  0  0  0  0  0
    1.5840   53.2968   25.6510 C   0  0  0  0  0  0
    1.8062   53.6405   26.9837 C   0  0  0  0  0  0
    3.0774   54.0260   27.3971 C   0  0  0  0  0  0
    4.1281   54.0630   26.4887 C   0  0  0  0  0  0
    3.9063   53.6967   25.1632 C   0  0  0  0  0  0
    3.3827   54.4967   29.2162 Br  0  0  0  0  0  0
    1.0196   50.8055   23.9742 C   0  0  0  0  0  0
    0.2880   50.2781   24.6979 N   0  0  0  0  0  0
    1.9999   49.4135   21.6814 N   0  0  0  0  0  0
    7.7483   56.9261   17.1532 O   0  0  0  0  0  0
    6.9550   57.6520   16.2748 C   0  0  0  0  0  0
    5.6504   57.2957   15.8856 C   0  0  0  0  0  0
    4.9162   58.1102   15.0216 C   0  0  0  0  0  0
    5.4713   59.2919   14.5357 C   0  0  0  0  0  0
    6.7605   59.6601   14.9165 C   0  0  0  0  0  0
    7.4947   58.8486   15.7825 C   0  0  0  0  0  0
    8.7400   59.2352   16.1478 F   0  0  0  0  0  0
    7.1502   53.5482   16.7890 H   0  0  0  0  0  0
    6.5270   54.7836   15.7198 H   0  0  0  0  0  0
    8.2559   54.5213   15.8446 H   0  0  0  0  0  0
    5.5679   55.7622   21.3454 H   0  0  0  0  0  0
    3.8447   55.2031   22.9851 H   0  0  0  0  0  0
    4.7897   52.0968   19.2837 H   0  0  0  0  0  0
    0.5863   53.0097   25.3503 H   0  0  0  0  0  0
    0.9911   53.6140   27.6922 H   0  0  0  0  0  0
    5.1182   54.3489   26.8137 H   0  0  0  0  0  0
    4.7599   53.6812   24.5050 H   0  0  0  0  0  0
    1.4198   48.8849   22.3149 H   0  0  0  0  0  0
    2.5906   48.8969   21.0451 H   0  0  0  0  0  0
    5.1711   56.4080   16.2659 H   0  0  0  0  0  0
    3.9105   57.8339   14.7420 H   0  0  0  0  0  0
    4.8985   59.9337   13.8829 H   0  0  0  0  0  0
    7.1840   60.5890   14.5607 H   0  0  0  0  0  0
  1  2  1  0  0  0
  1 36  1  0  0  0
  1 37  1  0  0  0
  1 38  1  0  0  0
  2  3  1  0  0  0
  2  4  1  0  0  0
  2 28  1  0  0  0
  4  5  2  0  0  0
  4  6  1  0  0  0
  6  7  1  0  0  0
  7 12  2  0  0  0
  7  8  1  0  0  0
  8  9  2  0  0  0
  8 39  1  0  0  0
  9 10  1  0  0  0
  9 40  1  0  0  0
 10 16  1  0  0  0
 10 11  2  0  0  0
 11 12  1  0  0  0
 11 13  1  0  0  0
 12 41  1  0  0  0
 13 14  1  0  0  0
 14 15  2  0  0  0
 14 27  1  0  0  0
 15 16  1  0  0  0
 15 25  1  0  0  0
 16 17  1  0  0  0
 16 18  1  0  0  0
 18 23  2  0  0  0
 18 19  1  0  0  0
 19 20  2  0  0  0
 19 42  1  0  0  0
 20 21  1  0  0  0
 20 43  1  0  0  0
 21 22  2  0  0  0
 21 24  1  0  0  0
 22 23  1  0  0  0
 22 44  1  0  0  0
 23 45  1  0  0  0
 25 26  3  0  0  0
 27 46  1  0  0  0
 27 47  1  0  0  0
 28 29  1  0  0  0
 29 34  2  0  0  0
 29 30  1  0  0  0
 30 31  2  0  0  0
 30 48  1  0  0  0
 31 32  1  0  0  0
 31 49  1  0  0  0
 32 33  2  0  0  0
 32 50  1  0  0  0
 33 34  1  0  0  0
 33 51  1  0  0  0
 34 35  1  0  0  0
M  END
> <i_i_glide_confnum>
45

> <i_i_glide_lignum>
4141

> <i_i_glide_posenum>
262

> <i_i_glide_rotatable_bonds>
7

> <i_m_Source_File_Index>
4999

> <b_m_subgroup_collapsed>
0

> <r_i_docking_score>
-3.25387

> <r_i_glide_ecoul>
-1.3145

> <r_i_glide_eff_state_penalty>
0

> <r_i_glide_einternal>
7.7129

> <r_i_glide_emodel>
-38.5763

> <r_i_glide_energy>
-34.7439

> <r_i_glide_erotb>
0.394724

> <r_i_glide_esite>
-0.015149

> <r_i_glide_evdw>
-33.4294

> <r_i_glide_gscore>
-3.25387

> <r_i_glide_hbond>
0

> <r_i_glide_ligand_efficiency>
-0.0986021

> <r_i_glide_ligand_efficiency_ln>
-0.723644

> <r_i_glide_ligand_efficiency_sa>
-0.31627

> <r_i_glide_lipo>
-2.0308

> <r_i_glide_metal>
0

> <r_i_glide_rewards>
0.265999

> <s_i_glide_gridfile>
wee1_glide-grid

> <s_m_Source_File>
wee1_decoys_glide_SP.sdf

> <s_m_Source_Path>
/Users/zhangxujun/Desktop

> <s_m_entry_id>
5274

> <s_m_entry_name>
wee1_decoys_glide_SP.4999

> <s_m_subgroup_title>
wee1_decoys_glide_SP

> <s_m_subgroupid>
wee1_decoys_glide_SP


$$$$
