@<TRIPOS>MOLECULE
ZINC36065056_5810
60   63    1
SMALL
USER_CHARGES


@<TRIPOS>ATOM
      1 C1         -0.1341   53.2116   30.4388 C.3       1 UNK         0.0000 
      2 C2         -0.1416   52.0474   29.4404 C.3       1 UNK         0.0000 
      3 C3         -1.5248   51.3873   29.2794 C.3       1 UNK         0.0000 
      4 O4          0.3391   52.5748   28.2107 O.3       1 UNK         0.0000 
      5 C5          0.8589   51.7724   27.2632 C.2       1 UNK         0.0000 
      6 O6          0.8154   50.5461   27.2817 O.2       1 UNK         0.0000 
      7 C7          1.4795   52.4969   26.1621 C.2       1 UNK         0.0000 
      8 C8          2.4120   53.4875   26.3501 C.2       1 UNK         0.0000 
      9 N9          2.9847   54.1425   25.2921 N.2       1 UNK         0.0000 
     10 C10         2.7487   53.7477   24.1047 C.2       1 UNK         0.0000 
     11 N11         1.9036   52.7141   23.7133 N.pl3     1 UNK         0.0000 
     12 C12         1.1213   51.9710   24.7379 C.3       1 UNK         0.0000 
     13 H13         1.5041   50.9535   24.6638 H         1 UNK         0.0000 
     14 C14        -0.3826   51.8826   24.4186 C.ar      1 UNK         0.0000 
     15 C15        -1.0874   53.0415   24.0814 C.ar      1 UNK         0.0000 
     16 C16        -2.4426   52.9838   23.7598 C.ar      1 UNK         0.0000 
     17 C17        -3.1138   51.7680   23.7965 C.ar      1 UNK         0.0000 
     18 C18        -2.4270   50.6059   24.1409 C.ar      1 UNK         0.0000 
     19 C19        -1.0549   50.6464   24.4480 C.ar      1 UNK         0.0000 
     20 O20        -0.3171   49.5203   24.7631 O.3       1 UNK         0.0000 
     21 C21        -0.9834   48.2859   24.9904 C.3       1 UNK         0.0000 
     22 C22         1.9972   52.3673   22.3756 C.2       1 UNK         0.0000 
     23 C23         2.7860   53.2132   21.6920 C.2       1 UNK         0.0000 
     24 S24         3.5048   54.4667   22.6784 S.3       1 UNK         0.0000 
     25 C25         1.4317   51.1682   21.7763 C.2       1 UNK         0.0000 
     26 C26         2.1006   50.3654   20.9296 C.2       1 UNK         0.0000 
     27 O27         3.2988   50.4967   20.4819 O.co2     1 UNK         0.0000 
     28 N28         1.5164   49.2217   20.4398 N.pl3     1 UNK         0.0000 
     29 C29         1.5991   48.6984   19.0808 C.3       1 UNK         0.0000 
     30 C30         0.9975   47.2914   18.9798 C.3       1 UNK         0.0000 
     31 C31        -0.4852   47.1176   18.7628 C.3       1 UNK         0.0000 
     32 C32         0.4985   46.7849   17.6500 C.3       1 UNK         0.0000 
     33 C33         2.9716   54.0028   27.7032 C.3       1 UNK         0.0000 
     34 F34         4.2077   54.4999   27.5812 F         1 UNK         0.0000 
     35 F35         2.1791   54.9633   28.1812 F         1 UNK         0.0000 
     36 F36         3.0551   53.0264   28.6099 F         1 UNK         0.0000 
     37 H37        -0.4974   52.9009   31.4184 H         1 UNK         0.0000 
     38 H38         0.8766   53.5961   30.5782 H         1 UNK         0.0000 
     39 H39        -0.7525   54.0362   30.0816 H         1 UNK         0.0000 
     40 H40         0.5622   51.2966   29.8024 H         1 UNK         0.0000 
     41 H41        -1.8862   50.9795   30.2248 H         1 UNK         0.0000 
     42 H42        -2.2617   52.0831   28.8938 H         1 UNK         0.0000 
     43 H43        -1.4900   50.5613   28.5710 H         1 UNK         0.0000 
     44 H44        -0.5783   53.9947   24.0705 H         1 UNK         0.0000 
     45 H45        -2.9747   53.8879   23.5032 H         1 UNK         0.0000 
     46 H46        -4.1674   51.7214   23.5631 H         1 UNK         0.0000 
     47 H47        -2.9759   49.6774   24.1566 H         1 UNK         0.0000 
     48 H48        -0.2477   47.5389   25.2796 H         1 UNK         0.0000 
     49 H49        -1.7106   48.3640   25.8001 H         1 UNK         0.0000 
     50 H50        -1.4805   47.9232   24.0892 H         1 UNK         0.0000 
     51 H51         3.0340   53.1392   20.6420 H         1 UNK         0.0000 
     52 H52         0.4203   50.8992   22.0384 H         1 UNK         0.0000 
     53 H53         0.5975   49.0581   20.8129 H         1 UNK         0.0000 
     54 H54         2.6415   48.6739   18.7540 H         1 UNK         0.0000 
     55 H55         1.0861   49.3863   18.4074 H         1 UNK         0.0000 
     56 H56         1.5042   46.5788   19.6316 H         1 UNK         0.0000 
     57 H57        -1.1094   48.0089   18.6766 H         1 UNK         0.0000 
     58 H58        -0.9909   46.3080   19.2906 H         1 UNK         0.0000 
     59 H59         0.6833   45.7416   17.3922 H         1 UNK         0.0000 
     60 H60         0.5691   47.4437   16.7825 H         1 UNK         0.0000 
@<TRIPOS>BOND
     1    1    2 1    
     2    1   37 1    
     3    1   38 1    
     4    1   39 1    
     5    2    3 1    
     6    2    4 1    
     7    2   40 1    
     8    3   41 1    
     9    3   42 1    
    10    3   43 1    
    11    4    5 1    
    12    5    6 2    
    13    5    7 1    
    14    7   12 1    
    15    7    8 2    
    16    8    9 1    
    17    8   33 1    
    18    9   10 2    
    19   10   24 1    
    20   10   11 1    
    21   11   12 1    
    22   11   22 1    
    23   12   13 1    
    24   12   14 1    
    25   14   19 ar   
    26   14   15 ar   
    27   15   16 ar   
    28   15   44 1    
    29   16   17 ar   
    30   16   45 1    
    31   17   18 ar   
    32   17   46 1    
    33   18   19 ar   
    34   18   47 1    
    35   19   20 1    
    36   20   21 1    
    37   21   48 1    
    38   21   49 1    
    39   21   50 1    
    40   22   23 2    
    41   22   25 1    
    42   23   24 1    
    43   23   51 1    
    44   25   26 2    
    45   25   52 1    
    46   26   27 1    
    47   26   28 1    
    48   28   29 1    
    49   28   53 1    
    50   29   30 1    
    51   29   54 1    
    52   29   55 1    
    53   30   32 1    
    54   30   31 1    
    55   30   56 1    
    56   31   32 1    
    57   31   57 1    
    58   31   58 1    
    59   32   59 1    
    60   32   60 1    
    61   33   34 1    
    62   33   35 1    
    63   33   36 1    
@<TRIPOS>SUBSTRUCTURE
     1 UNK         1 GROUP             0       ****    0 ROOT    
