@<TRIPOS>MOLECULE
ZINC09298508_5284
49   51    1
SMALL
USER_CHARGES


@<TRIPOS>ATOM
      1 C1          1.8943   49.0826   19.7191 C.3       1 UNK         0.0000 
      2 C2          0.9266   50.0534   20.4047 C.3       1 UNK         0.0000 
      3 O3          1.6164   50.7206   21.4547 O.3       1 UNK         0.0000 
      4 C4          0.9318   51.7199   22.0989 C.2       1 UNK         0.0000 
      5 O5         -0.2248   52.0966   21.8823 O.2       1 UNK         0.0000 
      6 N6          1.7816   52.2212   23.0196 N.am      1 UNK         0.0000 
      7 C7          1.4638   52.9910   24.0856 C.2       1 UNK         0.0000 
      8 O8          0.3147   53.2969   24.4096 O.2       1 UNK         0.0000 
      9 C9          2.6008   53.4150   24.8940 C.2       1 UNK         0.0000 
     10 C10         2.5955   53.3755   26.3259 C.2       1 UNK         0.0000 
     11 C11         3.7897   53.8565   26.8842 C.2       1 UNK         0.0000 
     12 S12         4.8389   54.4864   25.6664 S.3       1 UNK         0.0000 
     13 C13         3.8011   53.9506   24.3789 C.2       1 UNK         0.0000 
     14 N14         4.1655   54.1083   23.0359 N.am      1 UNK         0.0000 
     15 C15         5.4063   54.3296   22.5346 C.2       1 UNK         0.0000 
     16 O16         6.4516   54.3983   23.1817 O.2       1 UNK         0.0000 
     17 C17         5.4527   54.4875   21.0418 C.ar      1 UNK         0.0000 
     18 C18         5.9044   55.6962   20.4955 C.ar      1 UNK         0.0000 
     19 C19         5.9559   55.8748   19.1132 C.ar      1 UNK         0.0000 
     20 C20         5.5845   54.8355   18.2631 C.ar      1 UNK         0.0000 
     21 C21         5.1837   53.6110   18.7947 C.ar      1 UNK         0.0000 
     22 C22         5.1293   53.4256   20.1768 C.ar      1 UNK         0.0000 
     23 I23         4.7028   51.4989   20.8816 I         1 UNK         0.0000 
     24 C24         4.1779   53.8685   28.3470 C.3       1 UNK         0.0000 
     25 C25         3.2426   54.7161   29.2213 C.3       1 UNK         0.0000 
     26 C26         1.8735   54.0731   29.5127 C.3       1 UNK         0.0000 
     27 C27         0.9672   53.8273   28.2905 C.3       1 UNK         0.0000 
     28 C28         1.4975   52.8246   27.2406 C.3       1 UNK         0.0000 
     29 H29         1.3884   48.5173   18.9370 H         1 UNK         0.0000 
     30 H30         2.3123   48.3687   20.4288 H         1 UNK         0.0000 
     31 H31         2.7230   49.6173   19.2529 H         1 UNK         0.0000 
     32 H32         0.5512   50.7685   19.6700 H         1 UNK         0.0000 
     33 H33         0.0762   49.5011   20.8072 H         1 UNK         0.0000 
     34 H34         2.7244   51.8753   22.9669 H         1 UNK         0.0000 
     35 H35         3.4414   53.9468   22.3516 H         1 UNK         0.0000 
     36 H36         6.1976   56.5110   21.1417 H         1 UNK         0.0000 
     37 H37         6.2845   56.8178   18.6998 H         1 UNK         0.0000 
     38 H38         5.6287   54.9696   17.1916 H         1 UNK         0.0000 
     39 H39         4.9422   52.7891   18.1336 H         1 UNK         0.0000 
     40 H40         4.1747   52.8487   28.7343 H         1 UNK         0.0000 
     41 H41         5.2048   54.2176   28.4671 H         1 UNK         0.0000 
     42 H42         3.7448   54.8932   30.1701 H         1 UNK         0.0000 
     43 H43         3.1025   55.7000   28.7735 H         1 UNK         0.0000 
     44 H44         2.0232   53.1290   30.0383 H         1 UNK         0.0000 
     45 H45         1.3359   54.7134   30.2143 H         1 UNK         0.0000 
     46 H46         0.0102   53.4565   28.6612 H         1 UNK         0.0000 
     47 H47         0.7413   54.7785   27.8084 H         1 UNK         0.0000 
     48 H48         0.6479   52.4392   26.6811 H         1 UNK         0.0000 
     49 H49         1.8745   51.9438   27.7625 H         1 UNK         0.0000 
@<TRIPOS>BOND
     1    1    2 1    
     2    1   29 1    
     3    1   30 1    
     4    1   31 1    
     5    2    3 1    
     6    2   32 1    
     7    2   33 1    
     8    3    4 1    
     9    4    5 2    
    10    4    6 am   BACKBONE|DICT|INTERRES
    11    6    7 am   BACKBONE|DICT|INTERRES
    12    6   34 1    
    13    7    8 2    
    14    7    9 1    
    15    9   13 2    
    16    9   10 1    
    17   10   28 1    
    18   10   11 2    
    19   11   12 1    
    20   11   24 1    
    21   12   13 1    
    22   13   14 am   BACKBONE|DICT|INTERRES
    23   14   15 am   BACKBONE|DICT|INTERRES
    24   14   35 1    
    25   15   16 2    
    26   15   17 1    
    27   17   22 ar   
    28   17   18 ar   
    29   18   19 ar   
    30   18   36 1    
    31   19   20 ar   
    32   19   37 1    
    33   20   21 ar   
    34   20   38 1    
    35   21   22 ar   
    36   21   39 1    
    37   22   23 1    
    38   24   25 1    
    39   24   40 1    
    40   24   41 1    
    41   25   26 1    
    42   25   42 1    
    43   25   43 1    
    44   26   27 1    
    45   26   44 1    
    46   26   45 1    
    47   27   28 1    
    48   27   46 1    
    49   27   47 1    
    50   28   48 1    
    51   28   49 1    
@<TRIPOS>SUBSTRUCTURE
     1 UNK         1 GROUP             0       ****    0 ROOT    
