ZINC05602660_1417
                    3D
 Schrodinger Suite 2024-2.
 45 46  0  0  1  0            999 V2000
    6.0544   55.6887   25.5329 C   0  0  0  0  0  0
    5.5504   54.8967   24.3532 C   0  0  0  0  0  0
    4.2927   54.2952   24.4034 C   0  0  0  0  0  0
    3.7919   53.6541   23.2757 C   0  0  0  0  0  0
    4.5628   53.5989   22.1124 C   0  0  0  0  0  0
    5.7898   54.2629   22.0537 C   0  0  0  0  0  0
    6.3036   54.8947   23.1794 C   0  0  0  0  0  0
    4.0877   52.5616   20.7293 S   0  0  0  0  0  0
    4.3006   51.1889   21.1949 O   0  0  0  0  0  0
    4.7971   53.0888   19.5604 O   0  0  0  0  0  0
    2.3714   52.7841   20.4347 N   0  0  0  0  0  0
    1.2599   52.1920   21.0742 C   0  0  0  0  0  0
    0.1275   52.4957   20.7116 O   0  0  0  0  0  0
    1.5348   51.3263   22.0683 N   0  0  0  0  0  0
    0.6393   50.7479   22.9882 C   0  0  0  0  0  0
    1.1106   49.6484   23.7012 C   0  0  0  0  0  0
    0.3064   48.9979   24.6381 C   0  0  0  0  0  0
   -0.9805   49.4640   24.8912 C   0  0  0  0  0  0
   -1.4546   50.5885   24.2114 C   0  0  0  0  0  0
   -0.6514   51.2322   23.2642 C   0  0  0  0  0  0
   -3.0635   51.2530   24.6049 S   0  0  0  0  0  0
   -3.9022   50.1529   25.0968 O   0  0  0  0  0  0
   -3.4833   52.0559   23.4500 O   0  0  0  0  0  0
   -2.7708   52.3668   25.9536 N   0  0  0  0  0  0
   -3.7144   53.4967   26.0853 C   0  0  0  0  0  0
   -2.2927   51.7683   27.2203 C   0  0  0  0  0  0
    5.5329   55.4349   26.4593 H   0  0  0  0  0  0
    7.1172   55.5092   25.6938 H   0  0  0  0  0  0
    5.9038   56.7414   25.2818 H   0  0  0  0  0  0
    3.6996   54.3319   25.3074 H   0  0  0  0  0  0
    2.8327   53.1648   23.3350 H   0  0  0  0  0  0
    6.3510   54.2709   21.1336 H   0  0  0  0  0  0
    7.2607   55.3947   23.1291 H   0  0  0  0  0  0
    2.1668   53.5004   19.7296 H   0  0  0  0  0  0
    2.5063   51.0605   22.1620 H   0  0  0  0  0  0
    2.1195   49.2967   23.5322 H   0  0  0  0  0  0
    0.6902   48.1459   25.1839 H   0  0  0  0  0  0
   -1.5887   48.9627   25.6351 H   0  0  0  0  0  0
   -1.0343   52.1118   22.7698 H   0  0  0  0  0  0
   -3.2960   54.2675   26.7307 H   0  0  0  0  0  0
   -4.6614   53.1383   26.4896 H   0  0  0  0  0  0
   -3.9094   53.9340   25.1068 H   0  0  0  0  0  0
   -1.6955   52.4962   27.7668 H   0  0  0  0  0  0
   -3.1365   51.4249   27.8185 H   0  0  0  0  0  0
   -1.6486   50.9138   27.0221 H   0  0  0  0  0  0
  1  2  1  0  0  0
  1 27  1  0  0  0
  1 28  1  0  0  0
  1 29  1  0  0  0
  2  7  2  0  0  0
  2  3  1  0  0  0
  3  4  2  0  0  0
  3 30  1  0  0  0
  4  5  1  0  0  0
  4 31  1  0  0  0
  5  6  2  0  0  0
  5  8  1  0  0  0
  6  7  1  0  0  0
  6 32  1  0  0  0
  7 33  1  0  0  0
  8  9  2  0  0  0
  8 10  2  0  0  0
  8 11  1  0  0  0
 11 12  1  0  0  0
 11 34  1  0  0  0
 12 13  2  0  0  0
 12 14  1  0  0  0
 14 15  1  0  0  0
 14 35  1  0  0  0
 15 20  2  0  0  0
 15 16  1  0  0  0
 16 17  2  0  0  0
 16 36  1  0  0  0
 17 18  1  0  0  0
 17 37  1  0  0  0
 18 19  2  0  0  0
 18 38  1  0  0  0
 19 20  1  0  0  0
 19 21  1  0  0  0
 20 39  1  0  0  0
 21 22  2  0  0  0
 21 23  2  0  0  0
 21 24  1  0  0  0
 24 25  1  0  0  0
 24 26  1  0  0  0
 25 40  1  0  0  0
 25 41  1  0  0  0
 25 42  1  0  0  0
 26 43  1  0  0  0
 26 44  1  0  0  0
 26 45  1  0  0  0
M  END
> <i_i_glide_confnum>
31

> <i_i_glide_lignum>
1418

> <i_i_glide_posenum>
255

> <i_i_glide_rotatable_bonds>
7

> <i_m_Source_File_Index>
3983

> <b_m_subgroup_collapsed>
0

> <r_i_docking_score>
-2.71331

> <r_i_glide_ecoul>
-5.44742

> <r_i_glide_eff_state_penalty>
0

> <r_i_glide_einternal>
5.23446

> <r_i_glide_emodel>
-29.5125

> <r_i_glide_energy>
-32.3576

> <r_i_glide_erotb>
0.743436

> <r_i_glide_esite>
-0.129591

> <r_i_glide_evdw>
-26.9102

> <r_i_glide_gscore>
-2.71331

> <r_i_glide_hbond>
-0.162786

> <r_i_glide_ligand_efficiency>
-0.104358

> <r_i_glide_ligand_efficiency_ln>
-0.637212

> <r_i_glide_ligand_efficiency_sa>
-0.309161

> <r_i_glide_lipo>
-1.67606

> <r_i_glide_metal>
0

> <r_i_glide_rewards>
0.674308

> <s_i_glide_gridfile>
wee1_glide-grid

> <s_m_Source_File>
wee1_decoys_glide_SP.sdf

> <s_m_Source_Path>
/Users/zhangxujun/Desktop

> <s_m_entry_id>
4258

> <s_m_entry_name>
wee1_decoys_glide_SP.3983

> <s_m_subgroup_title>
wee1_decoys_glide_SP

> <s_m_subgroupid>
wee1_decoys_glide_SP


$$$$
