@<TRIPOS>MOLECULE
ZINC44830936_4406
70   73    1
SMALL
USER_CHARGES


@<TRIPOS>ATOM
      1 C1         -0.1388   49.4489   17.1140 C.3       1 UNK         0.0000 
      2 C2         -0.1604   48.3820   18.2311 C.3       1 UNK         0.0000 
      3 H3         -0.2505   47.4138   17.7392 H         1 UNK         0.0000 
      4 C4         -1.3450   48.5061   19.2223 C.3       1 UNK         0.0000 
      5 C5         -2.7127   48.9513   18.6562 C.3       1 UNK         0.0000 
      6 C6         -3.7161   49.3391   19.7650 C.3       1 UNK         0.0000 
      7 C7         -3.2253   50.5009   20.6476 C.2       1 UNK         0.0000 
      8 O8         -2.8960   51.5642   20.1160 O.2       1 UNK         0.0000 
      9 C9         -3.1470   50.2576   22.0897 C.2       1 UNK         0.0000 
     10 C10        -2.4289   50.9323   23.0204 C.2       1 UNK         0.0000 
     11 C11        -1.4896   52.0350   22.8361 C.2       1 UNK         0.0000 
     12 O12        -1.7118   53.1410   23.3323 O.2       1 UNK         0.0000 
     13 O13        -0.2836   51.6595   22.2549 O.3       1 UNK         0.0000 
     14 C14         0.9779   51.4995   22.9920 C.3       1 UNK         0.0000 
     15 C15         2.0488   50.9606   21.9651 C.3       1 UNK         0.0000 
     16 H16         2.8611   50.5266   22.5543 H         1 UNK         0.0000 
     17 C17         1.6090   49.7456   21.1191 C.2       1 UNK         0.0000 
     18 C18         1.4639   49.6579   19.7819 C.2       1 UNK         0.0000 
     19 C19         1.1738   48.3731   19.0151 C.3       1 UNK         0.0000 
     20 C20         2.7272   52.1274   21.1937 C.3       1 UNK         0.0000 
     21 H21         1.9653   52.7924   20.7821 H         1 UNK         0.0000 
     22 C22         3.6006   52.8943   22.1967 C.2       1 UNK         0.0000 
     23 C23         4.9191   53.1331   21.9975 C.2       1 UNK         0.0000 
     24 C24         2.9209   53.3076   23.5164 C.3       1 UNK         0.0000 
     25 H25         3.4960   52.8313   24.3025 H         1 UNK         0.0000 
     26 C26         1.4259   52.8300   23.6996 C.3       1 UNK         0.0000 
     27 H27         0.8394   53.6342   23.2535 H         1 UNK         0.0000 
     28 C28         0.9441   52.6486   25.1746 C.3       1 UNK         0.0000 
     29 H29        -0.0195   53.1448   25.2844 H         1 UNK         0.0000 
     30 N30         0.6905   51.2180   25.2722 N.am      1 UNK         0.0000 
     31 C31         0.7541   50.4949   24.1497 C.2       1 UNK         0.0000 
     32 O32         0.5716   49.2852   24.0557 O.2       1 UNK         0.0000 
     33 C33         1.8690   53.1166   26.3428 C.3       1 UNK         0.0000 
     34 C34         1.2353   53.1892   27.7385 C.ar      1 UNK         0.0000 
     35 C35         0.6481   52.0630   28.3266 C.ar      1 UNK         0.0000 
     36 C36         0.1049   52.1464   29.6044 C.ar      1 UNK         0.0000 
     37 C37         0.1811   53.3392   30.3145 C.ar      1 UNK         0.0000 
     38 C38         0.7614   54.4667   29.7456 C.ar      1 UNK         0.0000 
     39 C39         1.2883   54.3915   28.4589 C.ar      1 UNK         0.0000 
     40 C40         3.2336   54.7997   23.7005 C.3       1 UNK         0.0000 
     41 O41         3.5200   51.7069   20.0938 O.3       1 UNK         0.0000 
     42 H42         0.7727   49.3771   16.5177 H         1 UNK         0.0000 
     43 H43        -0.9758   49.3267   16.4266 H         1 UNK         0.0000 
     44 H44        -0.1882   50.4603   17.5160 H         1 UNK         0.0000 
     45 H45        -1.4718   47.5527   19.7398 H         1 UNK         0.0000 
     46 H46        -1.0542   49.2059   20.0039 H         1 UNK         0.0000 
     47 H47        -2.5954   49.8132   17.9971 H         1 UNK         0.0000 
     48 H48        -3.1302   48.1582   18.0350 H         1 UNK         0.0000 
     49 H49        -4.6733   49.6250   19.3245 H         1 UNK         0.0000 
     50 H50        -3.9122   48.4670   20.3894 H         1 UNK         0.0000 
     51 H51        -3.7612   49.4398   22.4369 H         1 UNK         0.0000 
     52 H52        -2.5220   50.6226   24.0514 H         1 UNK         0.0000 
     53 H53         1.4813   48.8364   21.6890 H         1 UNK         0.0000 
     54 H54         1.5629   50.5307   19.1571 H         1 UNK         0.0000 
     55 H55         1.1918   47.5241   19.7023 H         1 UNK         0.0000 
     56 H56         2.0059   48.2083   18.3270 H         1 UNK         0.0000 
     57 H57         5.4144   52.8321   21.0887 H         1 UNK         0.0000 
     58 H58         5.5322   53.6273   22.7352 H         1 UNK         0.0000 
     59 H59         0.3665   50.7977   26.1302 H         1 UNK         0.0000 
     60 H60         2.7617   52.4973   26.4128 H         1 UNK         0.0000 
     61 H61         2.2419   54.1083   26.1273 H         1 UNK         0.0000 
     62 H62         0.6144   51.1112   27.8220 H         1 UNK         0.0000 
     63 H63        -0.3661   51.2907   30.0621 H         1 UNK         0.0000 
     64 H64        -0.2138   53.3853   31.3199 H         1 UNK         0.0000 
     65 H65         0.8083   55.3929   30.2994 H         1 UNK         0.0000 
     66 H66         1.7451   55.2722   28.0318 H         1 UNK         0.0000 
     67 H67         3.0707   55.2968   22.7503 H         1 UNK         0.0000 
     68 H68         2.6592   55.2980   24.4655 H         1 UNK         0.0000 
     69 H69         4.2757   54.9480   23.9829 H         1 UNK         0.0000 
     70 H70         3.0186   51.1141   19.5324 H         1 UNK         0.0000 
@<TRIPOS>BOND
     1    1    2 1    
     2    1   42 1    
     3    1   43 1    
     4    1   44 1    
     5    2    3 1    
     6    2   19 1    
     7    2    4 1    
     8    4    5 1    
     9    4   45 1    
    10    4   46 1    
    11    5    6 1    
    12    5   47 1    
    13    5   48 1    
    14    6    7 1    
    15    6   49 1    
    16    6   50 1    
    17    7    8 2    
    18    7    9 1    
    19    9   10 2    
    20    9   51 1    
    21   10   11 1    
    22   10   52 1    
    23   11   12 2    
    24   11   13 1    
    25   13   14 1    
    26   14   26 1    
    27   14   31 1    
    28   14   15 1    
    29   15   16 1    
    30   15   17 1    
    31   15   20 1    
    32   17   18 2    
    33   17   53 1    
    34   18   19 1    
    35   18   54 1    
    36   19   55 1    
    37   19   56 1    
    38   20   21 1    
    39   20   22 1    
    40   20   41 1    
    41   22   23 2    
    42   22   24 1    
    43   23   57 1    
    44   23   58 1    
    45   24   25 1    
    46   24   26 1    
    47   24   40 1    
    48   26   27 1    
    49   26   28 1    
    50   28   29 1    
    51   28   30 1    
    52   28   33 1    
    53   30   31 am   BACKBONE|DICT|INTERRES
    54   30   59 1    
    55   31   32 2    
    56   33   34 1    
    57   33   60 1    
    58   33   61 1    
    59   34   39 ar   
    60   34   35 ar   
    61   35   36 ar   
    62   35   62 1    
    63   36   37 ar   
    64   36   63 1    
    65   37   38 ar   
    66   37   64 1    
    67   38   39 ar   
    68   38   65 1    
    69   39   66 1    
    70   40   67 1    
    71   40   68 1    
    72   40   69 1    
    73   41   70 1    
@<TRIPOS>SUBSTRUCTURE
     1 UNK         1 GROUP             0       ****    0 ROOT    
