@<TRIPOS>MOLECULE
ZINC13479807_1708
35   36    1
SMALL
USER_CHARGES


@<TRIPOS>ATOM
      1 C1          1.5320   53.9433   23.8361 C.3       1 UNK         0.0000 
      2 C2          3.0164   54.0436   24.1296 C.ar      1 UNK         0.0000 
      3 C3          4.0391   54.2482   23.2326 C.ar      1 UNK         0.0000 
      4 C4          5.2585   54.3864   23.8997 C.ar      1 UNK         0.0000 
      5 C5          4.9665   54.1470   25.2481 C.ar      1 UNK         0.0000 
      6 N6          3.5880   53.9582   25.3942 N.pl3     1 UNK         0.0000 
      7 C7          2.8798   53.7330   26.6105 C.ar      1 UNK         0.0000 
      8 C8          1.9014   52.7346   26.6881 C.ar      1 UNK         0.0000 
      9 C9          1.1850   52.5362   27.8636 C.ar      1 UNK         0.0000 
     10 C10         1.4322   53.3489   28.9710 C.ar      1 UNK         0.0000 
     11 C11         2.4114   54.3403   28.9106 C.ar      1 UNK         0.0000 
     12 C12         3.1355   54.5235   27.7364 C.ar      1 UNK         0.0000 
     13 S13         0.4451   53.1566   30.4490 S.o2      1 UNK         0.0000 
     14 O14         0.3041   54.4865   31.0504 O.2       1 UNK         0.0000 
     15 O15        -0.7195   52.3508   30.0774 O.2       1 UNK         0.0000 
     16 N16         1.3994   52.1955   31.5428 N.pl3     1 UNK         0.0000 
     17 C17         5.9291   54.0957   26.4291 C.3       1 UNK         0.0000 
     18 C18         6.5496   54.7122   23.2937 C.2       1 UNK         0.0000 
     19 N19         6.6051   55.1190   22.0908 N.2       1 UNK         0.0000 
     20 O20         7.9043   55.4573   21.6816 O.3       1 UNK         0.0000 
     21 H21         1.2957   54.3640   22.8585 H         1 UNK         0.0000 
     22 H22         1.1800   52.9127   23.8208 H         1 UNK         0.0000 
     23 H23         0.9295   54.4936   24.5552 H         1 UNK         0.0000 
     24 H24         3.9013   54.3565   22.1651 H         1 UNK         0.0000 
     25 H25         1.6940   52.0972   25.8425 H         1 UNK         0.0000 
     26 H26         0.4295   51.7627   27.9011 H         1 UNK         0.0000 
     27 H27         2.5982   54.9823   29.7587 H         1 UNK         0.0000 
     28 H28         3.8838   55.2966   27.7050 H         1 UNK         0.0000 
     29 H29         1.7189   52.7321   32.3514 H         1 UNK         0.0000 
     30 H30         0.8638   51.3835   31.8604 H         1 UNK         0.0000 
     31 H31         6.9374   53.8187   26.1224 H         1 UNK         0.0000 
     32 H32         6.0096   55.0568   26.9371 H         1 UNK         0.0000 
     33 H33         5.6376   53.3503   27.1701 H         1 UNK         0.0000 
     34 H34         7.4041   54.5988   23.9565 H         1 UNK         0.0000 
     35 H35         8.4490   55.2966   22.4645 H         1 UNK         0.0000 
@<TRIPOS>BOND
     1    1    2 1    
     2    1   21 1    
     3    1   22 1    
     4    1   23 1    
     5    2    6 ar   
     6    2    3 ar   
     7    3    4 ar   
     8    3   24 1    
     9    4    5 ar   
    10    4   18 1    
    11    5    6 ar   
    12    5   17 1    
    13    6    7 1    
    14    7   12 ar   
    15    7    8 ar   
    16    8    9 ar   
    17    8   25 1    
    18    9   10 ar   
    19    9   26 1    
    20   10   11 ar   
    21   10   13 1    
    22   11   12 ar   
    23   11   27 1    
    24   12   28 1    
    25   13   14 2    
    26   13   15 2    
    27   13   16 1    
    28   16   29 1    
    29   16   30 1    
    30   17   31 1    
    31   17   32 1    
    32   17   33 1    
    33   18   19 2    
    34   18   34 1    
    35   19   20 1    
    36   20   35 1    
@<TRIPOS>SUBSTRUCTURE
     1 UNK         1 GROUP             0       ****    0 ROOT    
