@<TRIPOS>MOLECULE
ZINC59293545_3646
60   63    1
SMALL
USER_CHARGES


@<TRIPOS>ATOM
      1 C1         11.4899   55.4009   16.8808 C.3       1 UNK         0.0000 
      2 C2         10.1686   54.8531   17.4396 C.3       1 UNK         0.0000 
      3 C3          9.3268   55.9197   18.1553 C.3       1 UNK         0.0000 
      4 N4          8.1041   55.3524   18.7146 N.am      1 UNK         0.0000 
      5 C5          6.8675   55.8623   18.5780 C.2       1 UNK         0.0000 
      6 O6          6.6205   56.8988   17.9641 O.2       1 UNK         0.0000 
      7 C7          5.8199   55.0443   19.1649 C.2       1 UNK         0.0000 
      8 C8          5.7884   54.7546   20.4979 C.2       1 UNK         0.0000 
      9 N9          4.8224   53.9973   21.1193 N.am      1 UNK         0.0000 
     10 C10         4.8636   53.9238   22.4917 C.2       1 UNK         0.0000 
     11 O11         4.0550   53.3024   23.1867 O.2       1 UNK         0.0000 
     12 C12         5.9914   54.6701   23.0203 C.2       1 UNK         0.0000 
     13 C13         6.3038   54.8653   24.3242 C.2       1 UNK         0.0000 
     14 C14         5.6320   54.4985   25.5945 C.ar      1 UNK         0.0000 
     15 C15         6.4321   54.0943   26.6677 C.ar      1 UNK         0.0000 
     16 C16         5.8598   53.7719   27.8937 C.ar      1 UNK         0.0000 
     17 C17         4.4787   53.8611   28.0614 C.ar      1 UNK         0.0000 
     18 C18         3.6715   54.2716   26.9992 C.ar      1 UNK         0.0000 
     19 C19         4.2484   54.5968   25.7741 C.ar      1 UNK         0.0000 
     20 C20         3.8566   53.4957   29.3972 C.3       1 UNK         0.0000 
     21 S21         6.9598   55.2970   21.7077 S.3       1 UNK         0.0000 
     22 C22         3.8544   53.4004   20.2909 C.2       1 UNK         0.0000 
     23 C23         3.7421   53.6424   18.9583 C.2       1 UNK         0.0000 
     24 C24         4.6923   54.5901   18.2071 C.3       1 UNK         0.0000 
     25 H25         4.1357   55.4982   17.9698 H         1 UNK         0.0000 
     26 C26         5.1518   54.0045   16.8622 C.ar      1 UNK         0.0000 
     27 C27         6.2036   53.0784   16.8116 C.ar      1 UNK         0.0000 
     28 C28         6.6059   52.5406   15.5951 C.ar      1 UNK         0.0000 
     29 C29         5.9594   52.9206   14.4171 C.ar      1 UNK         0.0000 
     30 C30         4.9223   53.8531   14.4593 C.ar      1 UNK         0.0000 
     31 C31         4.5179   54.3918   15.6781 C.ar      1 UNK         0.0000 
     32 C32         6.3952   52.3251   13.0906 C.3       1 UNK         0.0000 
     33 C33         2.7136   53.0070   18.1867 C.1       1 UNK         0.0000 
     34 N34         1.8480   52.5143   17.5963 N.1       1 UNK         0.0000 
     35 N35         2.9806   52.4978   20.8737 N.pl3     1 UNK         0.0000 
     36 H36        12.0450   54.6202   16.3553 H         1 UNK         0.0000 
     37 H37        12.1331   55.7814   17.6749 H         1 UNK         0.0000 
     38 H38        11.3151   56.2129   16.1733 H         1 UNK         0.0000 
     39 H39         9.5898   54.4188   16.6227 H         1 UNK         0.0000 
     40 H40        10.3918   54.0353   18.1255 H         1 UNK         0.0000 
     41 H41         9.9044   56.3839   18.9554 H         1 UNK         0.0000 
     42 H42         9.1247   56.7378   17.4590 H         1 UNK         0.0000 
     43 H43         8.2130   54.5224   19.2762 H         1 UNK         0.0000 
     44 H44         7.2184   55.4228   24.4832 H         1 UNK         0.0000 
     45 H45         7.5043   54.0261   26.5617 H         1 UNK         0.0000 
     46 H46         6.4915   53.4585   28.7123 H         1 UNK         0.0000 
     47 H47         2.5990   54.3401   27.1230 H         1 UNK         0.0000 
     48 H48         3.6086   54.9365   24.9711 H         1 UNK         0.0000 
     49 H49         2.8465   53.1048   29.2630 H         1 UNK         0.0000 
     50 H50         4.4340   52.7068   29.8862 H         1 UNK         0.0000 
     51 H51         3.8230   54.3672   30.0542 H         1 UNK         0.0000 
     52 H52         6.6926   52.7578   17.7200 H         1 UNK         0.0000 
     53 H53         7.4075   51.8167   15.5713 H         1 UNK         0.0000 
     54 H54         4.4173   54.1538   13.5497 H         1 UNK         0.0000 
     55 H55         3.7035   55.1030   15.6982 H         1 UNK         0.0000 
     56 H56         7.4811   52.2391   13.0500 H         1 UNK         0.0000 
     57 H57         5.9697   51.3301   12.9664 H         1 UNK         0.0000 
     58 H58         6.0942   52.9526   12.2520 H         1 UNK         0.0000 
     59 H59         2.2748   52.0242   20.3293 H         1 UNK         0.0000 
     60 H60         2.9948   52.3519   21.8753 H         1 UNK         0.0000 
@<TRIPOS>BOND
     1    1    2 1    
     2    1   36 1    
     3    1   37 1    
     4    1   38 1    
     5    2    3 1    
     6    2   39 1    
     7    2   40 1    
     8    3    4 1    
     9    3   41 1    
    10    3   42 1    
    11    4    5 am   BACKBONE|DICT|INTERRES
    12    4   43 1    
    13    5    6 2    
    14    5    7 1    
    15    7   24 1    
    16    7    8 2    
    17    8   21 1    
    18    8    9 am   BACKBONE|DICT|INTERRES
    19    9   10 am   BACKBONE|DICT|INTERRES
    20    9   22 1    
    21   10   11 2    
    22   10   12 1    
    23   12   13 2    
    24   12   21 1    
    25   13   14 1    
    26   13   44 1    
    27   14   19 ar   
    28   14   15 ar   
    29   15   16 ar   
    30   15   45 1    
    31   16   17 ar   
    32   16   46 1    
    33   17   18 ar   
    34   17   20 1    
    35   18   19 ar   
    36   18   47 1    
    37   19   48 1    
    38   20   49 1    
    39   20   50 1    
    40   20   51 1    
    41   22   23 2    
    42   22   35 1    
    43   23   24 1    
    44   23   33 1    
    45   24   25 1    
    46   24   26 1    
    47   26   31 ar   
    48   26   27 ar   
    49   27   28 ar   
    50   27   52 1    
    51   28   29 ar   
    52   28   53 1    
    53   29   30 ar   
    54   29   32 1    
    55   30   31 ar   
    56   30   54 1    
    57   31   55 1    
    58   32   56 1    
    59   32   57 1    
    60   32   58 1    
    61   33   34 3    
    62   35   59 1    
    63   35   60 1    
@<TRIPOS>SUBSTRUCTURE
     1 UNK         1 GROUP             0       ****    0 ROOT    
