@<TRIPOS>MOLECULE
ZINC15947410_2217
58   62    1
SMALL
USER_CHARGES


@<TRIPOS>ATOM
      1 C1         12.5067   49.6608   14.0817 C.3       1 UNK         0.0000 
      2 C2         11.0456   49.5861   14.5543 C.3       1 UNK         0.0000 
      3 N3         10.5327   50.9587   15.0555 N.4       1 UNK         0.0000 
      4 C4         11.1990   51.3557   16.3964 C.3       1 UNK         0.0000 
      5 C5         10.8451   52.8263   16.6956 C.3       1 UNK         0.0000 
      6 C6          9.3346   53.0144   16.6341 C.2       1 UNK         0.0000 
      7 C7          8.5118   52.1250   15.9293 C.2       1 UNK         0.0000 
      8 S8          6.8290   52.5251   16.0893 S.3       1 UNK         0.0000 
      9 C9          7.2157   53.8075   17.1846 C.2       1 UNK         0.0000 
     10 C10         8.5897   53.9989   17.3074 C.2       1 UNK         0.0000 
     11 C11         9.0034   55.1436   18.0983 C.2       1 UNK         0.0000 
     12 N12         8.2530   55.8450   18.8431 N.2       1 UNK         0.0000 
     13 C13         6.8166   55.4906   18.8993 C.3       1 UNK         0.0000 
     14 H14         6.2776   56.4228   18.7182 H         1 UNK         0.0000 
     15 N15         6.2771   54.5736   17.8554 N.pl3     1 UNK         0.0000 
     16 C16         6.3885   55.1367   20.3485 C.ar      1 UNK         0.0000 
     17 C17         5.1650   54.4975   20.5999 C.ar      1 UNK         0.0000 
     18 C18         4.7787   54.1760   21.9015 C.ar      1 UNK         0.0000 
     19 C19         5.5906   54.4969   22.9913 C.ar      1 UNK         0.0000 
     20 C20         6.8164   55.1234   22.7430 C.ar      1 UNK         0.0000 
     21 C21         7.2027   55.4500   21.4483 C.ar      1 UNK         0.0000 
     22 O22         5.1034   54.1715   24.2475 O.3       1 UNK         0.0000 
     23 C23         5.4249   54.8236   25.4221 C.2       1 UNK         0.0000 
     24 O24         6.2955   55.6947   25.5465 O.2       1 UNK         0.0000 
     25 C25         4.6228   54.3131   26.5825 C.ar      1 UNK         0.0000 
     26 C26         5.0956   54.4991   27.8876 C.ar      1 UNK         0.0000 
     27 C27         4.3356   54.0836   28.9792 C.ar      1 UNK         0.0000 
     28 C28         3.0996   53.4711   28.7789 C.ar      1 UNK         0.0000 
     29 C29         2.6194   53.2810   27.4845 C.ar      1 UNK         0.0000 
     30 C30         3.3737   53.6978   26.3915 C.ar      1 UNK         0.0000 
     31 C31         2.2906   52.9885   29.9694 C.3       1 UNK         0.0000 
     32 O32        10.3031   55.5575   18.0816 O.3       1 UNK         0.0000 
     33 C33         8.9880   50.8768   15.1989 C.3       1 UNK         0.0000 
     34 H34        12.8191   48.6952   13.6818 H         1 UNK         0.0000 
     35 H35        12.6323   50.3897   13.2805 H         1 UNK         0.0000 
     36 H36        13.2068   49.9033   14.8787 H         1 UNK         0.0000 
     37 H37        10.9011   48.8945   15.3839 H         1 UNK         0.0000 
     38 H38        10.3982   49.2978   13.7223 H         1 UNK         0.0000 
     39 H39        10.8380   50.6612   17.1607 H         1 UNK         0.0000 
     40 H40        12.2780   51.2567   16.2941 H         1 UNK         0.0000 
     41 H41        11.3179   53.4962   15.9774 H         1 UNK         0.0000 
     42 H42        11.2376   53.0984   17.6761 H         1 UNK         0.0000 
     43 H43         5.3674   54.1981   18.0860 H         1 UNK         0.0000 
     44 H44         4.4906   54.2465   19.7936 H         1 UNK         0.0000 
     45 H45         3.8268   53.6899   22.0668 H         1 UNK         0.0000 
     46 H46         7.4990   55.3635   23.5426 H         1 UNK         0.0000 
     47 H47         8.1579   55.9376   21.3234 H         1 UNK         0.0000 
     48 H48         6.0480   54.9785   28.0719 H         1 UNK         0.0000 
     49 H49         4.7047   54.2458   29.9804 H         1 UNK         0.0000 
     50 H50         1.6620   52.8031   27.3228 H         1 UNK         0.0000 
     51 H51         2.9709   53.5452   25.3990 H         1 UNK         0.0000 
     52 H52         1.6255   53.7748   30.3267 H         1 UNK         0.0000 
     53 H53         1.6898   52.1160   29.7068 H         1 UNK         0.0000 
     54 H54         2.9430   52.6795   30.7863 H         1 UNK         0.0000 
     55 H55        10.6136   55.6963   18.9868 H         1 UNK         0.0000 
     56 H56         8.7592   49.9842   15.7801 H         1 UNK         0.0000 
     57 H57         8.5911   50.7905   14.1855 H         1 UNK         0.0000 
     58 H58        10.7720   51.6462   14.3527 H         1 UNK         0.0000 
@<TRIPOS>BOND
     1    1    2 1    
     2    1   34 1    
     3    1   35 1    
     4    1   36 1    
     5    2    3 1    
     6    2   37 1    
     7    2   38 1    
     8    3   33 1    
     9    3    4 1    
    10    3   58 1    
    11    4    5 1    
    12    4   39 1    
    13    4   40 1    
    14    5    6 1    
    15    5   41 1    
    16    5   42 1    
    17    6   10 1    
    18    6    7 2    
    19    7    8 1    
    20    7   33 1    
    21    8    9 1    
    22    9   15 1    
    23    9   10 2    
    24   10   11 1    
    25   11   12 2    
    26   11   32 1    
    27   12   13 1    
    28   13   14 1    
    29   13   15 1    
    30   13   16 1    
    31   15   43 1    
    32   16   21 ar   
    33   16   17 ar   
    34   17   18 ar   
    35   17   44 1    
    36   18   19 ar   
    37   18   45 1    
    38   19   20 ar   
    39   19   22 1    
    40   20   21 ar   
    41   20   46 1    
    42   21   47 1    
    43   22   23 1    
    44   23   24 2    
    45   23   25 1    
    46   25   30 ar   
    47   25   26 ar   
    48   26   27 ar   
    49   26   48 1    
    50   27   28 ar   
    51   27   49 1    
    52   28   29 ar   
    53   28   31 1    
    54   29   30 ar   
    55   29   50 1    
    56   30   51 1    
    57   31   52 1    
    58   31   53 1    
    59   31   54 1    
    60   32   55 1    
    61   33   56 1    
    62   33   57 1    
@<TRIPOS>SUBSTRUCTURE
     1 UNK         1 GROUP             0       ****    0 ROOT    
