ZINC35352455_6000
                    3D
 Schrodinger Suite 2024-2.
 72 76  0  0  1  0            999 V2000
    4.6110   57.3063   17.3426 C   0  0  0  0  0  0
    4.6118   55.9495   18.0686 C   0  0  0  0  0  0
    5.5964   55.5420   18.9204 C   0  0  0  0  0  0
    5.5512   54.1529   19.5866 C   0  0  2  0  0  0
    6.5682   53.7693   19.6815 H   0  0  0  0  0  0
    4.7710   53.2973   18.6529 N   0  0  0  0  0  0
    3.7084   53.7064   17.8911 C   0  0  0  0  0  0
    2.6943   52.4984   17.3284 S   0  0  0  0  0  0
    3.5852   55.0828   17.7073 N   0  0  0  0  0  0
    2.3047   55.5710   17.1407 C   0  0  0  0  0  0
    5.0383   54.1745   21.0435 C   0  0  0  0  0  0
    3.7244   53.8062   21.3457 C   0  0  0  0  0  0
    3.2766   53.7756   22.6579 C   0  0  0  0  0  0
    4.1399   54.0981   23.7024 C   0  0  0  0  0  0
    5.4668   54.4557   23.4201 C   0  0  0  0  0  0
    5.9048   54.4970   22.0965 C   0  0  0  0  0  0
    3.5798   53.9928   24.9833 N   0  0  0  0  0  0
    4.0768   54.3054   26.1996 C   0  0  0  0  0  0
    5.1445   54.8955   26.3696 O   0  0  0  0  0  0
    3.2460   53.8450   27.4420 C   0  0  0  0  0  0
    1.9347   53.0764   27.0341 C   0  0  0  0  0  0
    1.1677   52.6003   28.2876 C   0  0  1  0  0  0
    2.0763   51.6407   29.0899 C   0  0  0  0  0  0
    3.3736   52.3747   29.5238 C   0  0  1  0  0  0
    4.1511   52.9073   28.2956 C   0  0  0  0  0  0
    2.9866   53.5815   30.4035 C   0  0  0  0  0  0
    2.0877   54.5655   29.5996 C   0  0  2  0  0  0
    0.7963   53.8253   29.1634 C   0  0  0  0  0  0
    2.8487   55.0586   28.3378 C   0  0  0  0  0  0
    6.6994   56.4083   19.3242 C   0  0  0  0  0  0
    6.7054   57.0411   20.3825 O   0  0  0  0  0  0
    7.6892   56.4018   18.4101 O   0  0  0  0  0  0
    8.8903   57.1358   18.6118 C   0  0  0  0  0  0
    9.8025   57.0189   17.3721 C   0  0  0  0  0  0
   11.0571   57.8939   17.5329 C   0  0  0  0  0  0
   10.1876   55.5597   17.0608 C   0  0  0  0  0  0
    5.5298   57.8773   17.4805 H   0  0  0  0  0  0
    4.5041   57.1606   16.2662 H   0  0  0  0  0  0
    3.7994   57.9468   17.6800 H   0  0  0  0  0  0
    4.8778   52.2880   18.6904 H   0  0  0  0  0  0
    2.2321   55.3243   16.0804 H   0  0  0  0  0  0
    1.4567   55.1202   17.6578 H   0  0  0  0  0  0
    2.1613   56.6430   17.2464 H   0  0  0  0  0  0
    3.0217   53.5597   20.5662 H   0  0  0  0  0  0
    2.2501   53.4950   22.8464 H   0  0  0  0  0  0
    6.1688   54.6966   24.2030 H   0  0  0  0  0  0
    6.9301   54.7717   21.8943 H   0  0  0  0  0  0
    2.6655   53.5697   24.9918 H   0  0  0  0  0  0
    1.2782   53.7083   26.4341 H   0  0  0  0  0  0
    2.1648   52.2089   26.4145 H   0  0  0  0  0  0
    0.2587   52.0765   27.9854 H   0  0  0  0  0  0
    1.5369   51.2909   29.9693 H   0  0  0  0  0  0
    2.3035   50.7529   28.4995 H   0  0  0  0  0  0
    4.0122   51.6985   30.0931 H   0  0  0  0  0  0
    4.5270   52.0970   27.6887 H   0  0  0  0  0  0
    5.0439   53.4342   28.6407 H   0  0  0  0  0  0
    2.4528   53.2158   31.2827 H   0  0  0  0  0  0
    3.8969   54.0793   30.7456 H   0  0  0  0  0  0
    1.8229   55.4198   30.2247 H   0  0  0  0  0  0
    0.1408   54.4945   28.6051 H   0  0  0  0  0  0
    0.2275   53.5065   30.0389 H   0  0  0  0  0  0
    3.7393   55.5987   28.6551 H   0  0  0  0  0  0
    2.2300   55.7660   27.7851 H   0  0  0  0  0  0
    9.4127   56.7685   19.4994 H   0  0  0  0  0  0
    8.6441   58.1846   18.7863 H   0  0  0  0  0  0
    9.2399   57.4091   16.5196 H   0  0  0  0  0  0
   11.6849   57.5446   18.3553 H   0  0  0  0  0  0
   10.7914   58.9328   17.7359 H   0  0  0  0  0  0
   11.6631   57.8876   16.6242 H   0  0  0  0  0  0
   10.7393   55.1043   17.8858 H   0  0  0  0  0  0
    9.3069   54.9462   16.8705 H   0  0  0  0  0  0
   10.8132   55.5029   16.1682 H   0  0  0  0  0  0
  1  2  1  0  0  0
  1 37  1  0  0  0
  1 38  1  0  0  0
  1 39  1  0  0  0
  2  9  1  0  0  0
  2  3  2  0  0  0
  3  4  1  0  0  0
  3 30  1  0  0  0
  4  5  1  0  0  0
  4  6  1  0  0  0
  4 11  1  0  0  0
  6  7  1  0  0  0
  6 40  1  0  0  0
  7  8  2  0  0  0
  7  9  1  0  0  0
  9 10  1  0  0  0
 10 41  1  0  0  0
 10 42  1  0  0  0
 10 43  1  0  0  0
 11 16  2  0  0  0
 11 12  1  0  0  0
 12 13  2  0  0  0
 12 44  1  0  0  0
 13 14  1  0  0  0
 13 45  1  0  0  0
 14 15  2  0  0  0
 14 17  1  0  0  0
 15 16  1  0  0  0
 15 46  1  0  0  0
 16 47  1  0  0  0
 17 18  1  0  0  0
 17 48  1  0  0  0
 18 19  2  0  0  0
 18 20  1  0  0  0
 20 25  1  0  0  0
 20 29  1  0  0  0
 20 21  1  0  0  0
 21 22  1  0  0  0
 21 49  1  0  0  0
 21 50  1  0  0  0
 22 28  1  0  0  0
 22 23  1  0  0  0
 22 51  1  0  0  0
 23 24  1  0  0  0
 23 52  1  0  0  0
 23 53  1  0  0  0
 24 25  1  0  0  0
 24 26  1  0  0  0
 24 54  1  0  0  0
 25 55  1  0  0  0
 25 56  1  0  0  0
 26 27  1  0  0  0
 26 57  1  0  0  0
 26 58  1  0  0  0
 27 28  1  0  0  0
 27 29  1  0  0  0
 27 59  1  0  0  0
 28 60  1  0  0  0
 28 61  1  0  0  0
 29 62  1  0  0  0
 29 63  1  0  0  0
 30 31  2  0  0  0
 30 32  1  0  0  0
 32 33  1  0  0  0
 33 34  1  0  0  0
 33 64  1  0  0  0
 33 65  1  0  0  0
 34 35  1  0  0  0
 34 36  1  0  0  0
 34 66  1  0  0  0
 35 67  1  0  0  0
 35 68  1  0  0  0
 35 69  1  0  0  0
 36 70  1  0  0  0
 36 71  1  0  0  0
 36 72  1  0  0  0
M  END
> <i_i_glide_confnum>
72

> <i_i_glide_lignum>
6001

> <i_i_glide_posenum>
75

> <i_i_glide_rotatable_bonds>
8

> <i_m_Source_File_Index>
523

> <b_m_subgroup_collapsed>
0

> <r_i_docking_score>
-6.11785

> <r_i_glide_ecoul>
-5.26847

> <r_i_glide_eff_state_penalty>
0

> <r_i_glide_einternal>
5.38871

> <r_i_glide_emodel>
-57.6998

> <r_i_glide_energy>
-45.6707

> <r_i_glide_erotb>
0.580836

> <r_i_glide_esite>
-0.134045

> <r_i_glide_evdw>
-40.4022

> <r_i_glide_gscore>
-6.11785

> <r_i_glide_hbond>
-0.446419

> <r_i_glide_ligand_efficiency>
-0.174796

> <r_i_glide_ligand_efficiency_ln>
-1.343

> <r_i_glide_ligand_efficiency_sa>
-0.571768

> <r_i_glide_lipo>
-2.85717

> <r_i_glide_metal>
0

> <r_i_glide_rewards>
-0.450674

> <s_i_glide_gridfile>
wee1_glide-grid

> <s_m_Source_File>
wee1_decoys_glide_SP.sdf

> <s_m_Source_Path>
/Users/zhangxujun/Desktop

> <s_m_entry_id>
798

> <s_m_entry_name>
wee1_decoys_glide_SP.523

> <s_m_subgroup_title>
wee1_decoys_glide_SP

> <s_m_subgroupid>
wee1_decoys_glide_SP


$$$$
