@<TRIPOS>MOLECULE
ZINC20386448_2191
62   65    1
SMALL
USER_CHARGES


@<TRIPOS>ATOM
      1 C1          3.6928   54.1043   15.2398 C.3       1 UNK         0.0000 
      2 C2          4.4923   52.9669   15.9089 C.3       1 UNK         0.0000 
      3 N3          4.3090   52.8967   17.4457 N.4       1 UNK         0.0000 
      4 C4          2.8294   52.7402   17.8541 C.3       1 UNK         0.0000 
      5 C5          2.7932   52.2466   19.3180 C.3       1 UNK         0.0000 
      6 C6          3.7139   53.0847   20.2115 C.2       1 UNK         0.0000 
      7 C7          4.6940   53.9164   19.6515 C.2       1 UNK         0.0000 
      8 S8          5.5656   54.7904   20.8515 S.3       1 UNK         0.0000 
      9 C9          4.6896   53.9911   22.1085 C.2       1 UNK         0.0000 
     10 C10         3.6730   53.1436   21.6288 C.2       1 UNK         0.0000 
     11 C11         2.7181   52.3499   22.5246 C.3       1 UNK         0.0000 
     12 H12         3.0926   52.4333   23.5421 H         1 UNK         0.0000 
     13 C13         2.7049   50.8409   22.2296 C.3       1 UNK         0.0000 
     14 N14         1.3670   52.9063   22.4944 N.am      1 UNK         0.0000 
     15 C15         0.5660   52.8966   23.5707 C.2       1 UNK         0.0000 
     16 O16         0.9654   53.1748   24.7015 O.2       1 UNK         0.0000 
     17 N17        -0.6819   52.4973   23.2704 N.am      1 UNK         0.0000 
     18 C18        -1.6774   52.2134   24.2161 C.ar      1 UNK         0.0000 
     19 C19        -2.8897   52.8970   24.0928 C.ar      1 UNK         0.0000 
     20 C20        -3.9207   52.6696   25.0046 C.ar      1 UNK         0.0000 
     21 C21        -3.7365   51.7470   26.0369 C.ar      1 UNK         0.0000 
     22 C22        -2.5367   51.0424   26.1482 C.ar      1 UNK         0.0000 
     23 C23        -1.4918   51.2559   25.2341 C.ar      1 UNK         0.0000 
     24 O24        -0.2956   50.5590   25.2595 O.3       1 UNK         0.0000 
     25 C25        -0.0469   49.6235   26.2993 C.3       1 UNK         0.0000 
     26 C26        -5.2235   53.4357   24.8813 C.3       1 UNK         0.0000 
     27 N27         5.0441   54.2016   23.4281 N.pl3     1 UNK         0.0000 
     28 C28         4.2055   54.4967   24.4817 C.ar      1 UNK         0.0000 
     29 C29         4.9469   54.6310   25.6428 C.ar      1 UNK         0.0000 
     30 C30         6.2830   54.4281   25.3018 C.ar      1 UNK         0.0000 
     31 C31         6.3237   54.1665   23.9401 C.ar      1 UNK         0.0000 
     32 C32         4.9497   54.1110   18.1641 C.3       1 UNK         0.0000 
     33 H33         3.8738   54.1078   14.1643 H         1 UNK         0.0000 
     34 H34         2.6185   53.9862   15.3770 H         1 UNK         0.0000 
     35 H35         3.9769   55.0885   15.6099 H         1 UNK         0.0000 
     36 H36         5.5695   53.0586   15.7466 H         1 UNK         0.0000 
     37 H37         4.1873   51.9784   15.5526 H         1 UNK         0.0000 
     38 H38         2.3407   53.7069   17.7136 H         1 UNK         0.0000 
     39 H39         2.3857   51.9912   17.1946 H         1 UNK         0.0000 
     40 H40         3.1362   51.2112   19.3430 H         1 UNK         0.0000 
     41 H41         1.7659   52.2514   19.6767 H         1 UNK         0.0000 
     42 H42         3.7194   50.4967   22.0515 H         1 UNK         0.0000 
     43 H43         2.3005   50.2762   23.0703 H         1 UNK         0.0000 
     44 H44         2.1075   50.5818   21.3573 H         1 UNK         0.0000 
     45 H45         0.9634   53.0434   21.5808 H         1 UNK         0.0000 
     46 H46        -0.9547   52.4577   22.3010 H         1 UNK         0.0000 
     47 H47        -3.0258   53.6220   23.3064 H         1 UNK         0.0000 
     48 H48        -4.5247   51.5603   26.7521 H         1 UNK         0.0000 
     49 H49        -2.4394   50.3224   26.9491 H         1 UNK         0.0000 
     50 H50         0.9625   49.2270   26.1990 H         1 UNK         0.0000 
     51 H51        -0.1221   50.0917   27.2827 H         1 UNK         0.0000 
     52 H52        -0.7344   48.7796   26.2361 H         1 UNK         0.0000 
     53 H53        -5.7544   53.4824   25.8344 H         1 UNK         0.0000 
     54 H54        -5.8695   52.9730   24.1363 H         1 UNK         0.0000 
     55 H55        -5.0361   54.4661   24.5745 H         1 UNK         0.0000 
     56 H56         3.1411   54.5928   24.3160 H         1 UNK         0.0000 
     57 H57         4.5619   54.8522   26.6286 H         1 UNK         0.0000 
     58 H58         7.1242   54.4593   25.9768 H         1 UNK         0.0000 
     59 H59         7.1650   53.9576   23.2937 H         1 UNK         0.0000 
     60 H60         4.4827   55.0212   17.7909 H         1 UNK         0.0000 
     61 H61         6.0095   54.0858   17.9049 H         1 UNK         0.0000 
     62 H62         4.7708   52.0247   17.7247 H         1 UNK         0.0000 
@<TRIPOS>BOND
     1    1    2 1    
     2    1   33 1    
     3    1   34 1    
     4    1   35 1    
     5    2    3 1    
     6    2   36 1    
     7    2   37 1    
     8    3   32 1    
     9    3    4 1    
    10    3   62 1    
    11    4    5 1    
    12    4   38 1    
    13    4   39 1    
    14    5    6 1    
    15    5   40 1    
    16    5   41 1    
    17    6   10 1    
    18    6    7 2    
    19    7    8 1    
    20    7   32 1    
    21    8    9 1    
    22    9   10 2    
    23    9   27 1    
    24   10   11 1    
    25   11   12 1    
    26   11   13 1    
    27   11   14 1    
    28   13   42 1    
    29   13   43 1    
    30   13   44 1    
    31   14   15 am   BACKBONE|DICT|INTERRES
    32   14   45 1    
    33   15   16 2    
    34   15   17 am   BACKBONE|DICT|INTERRES
    35   17   18 1    
    36   17   46 1    
    37   18   23 ar   
    38   18   19 ar   
    39   19   20 ar   
    40   19   47 1    
    41   20   21 ar   
    42   20   26 1    
    43   21   22 ar   
    44   21   48 1    
    45   22   23 ar   
    46   22   49 1    
    47   23   24 1    
    48   24   25 1    
    49   25   50 1    
    50   25   51 1    
    51   25   52 1    
    52   26   53 1    
    53   26   54 1    
    54   26   55 1    
    55   27   31 ar   
    56   27   28 ar   
    57   28   29 ar   
    58   28   56 1    
    59   29   30 ar   
    60   29   57 1    
    61   30   31 ar   
    62   30   58 1    
    63   31   59 1    
    64   32   60 1    
    65   32   61 1    
@<TRIPOS>SUBSTRUCTURE
     1 UNK         1 GROUP             0       ****    0 ROOT    
