@<TRIPOS>MOLECULE
ZINC21002258_21
58   61    1
SMALL
USER_CHARGES


@<TRIPOS>ATOM
      1 C1         -1.7908   52.5092   23.8288 C.3       1 UNK         0.0000 
      2 O2         -1.3489   52.4979   25.1820 O.3       1 UNK         0.0000 
      3 C3         -2.1480   51.9488   26.1725 C.ar      1 UNK         0.0000 
      4 C4         -3.4737   51.5462   25.9221 C.ar      1 UNK         0.0000 
      5 C5         -4.2694   51.0221   26.9369 C.ar      1 UNK         0.0000 
      6 C6         -3.7560   50.8981   28.2216 C.ar      1 UNK         0.0000 
      7 C7         -2.4516   51.2967   28.4870 C.ar      1 UNK         0.0000 
      8 C8         -1.6242   51.8133   27.4836 C.ar      1 UNK         0.0000 
      9 N9         -0.3432   52.2286   27.8532 N.pl3     1 UNK         0.0000 
     10 C10         0.8002   52.1232   26.9435 C.3       1 UNK         0.0000 
     11 C11         2.1770   52.0886   27.6213 C.3       1 UNK         0.0000 
     12 N12         2.2775   53.1840   28.5892 N.am      1 UNK         0.0000 
     13 C13         1.2677   53.1329   29.6496 C.3       1 UNK         0.0000 
     14 C14        -0.1292   53.1571   28.9818 C.3       1 UNK         0.0000 
     15 C15         3.3996   53.9434   28.7024 C.2       1 UNK         0.0000 
     16 O16         3.7172   54.4967   29.7573 O.2       1 UNK         0.0000 
     17 C17         4.2569   54.1558   27.4698 C.ar      1 UNK         0.0000 
     18 C18         3.6665   54.3560   26.2141 C.ar      1 UNK         0.0000 
     19 C19         4.4463   54.5278   25.0785 C.ar      1 UNK         0.0000 
     20 C20         5.8419   54.5353   25.1795 C.ar      1 UNK         0.0000 
     21 C21         6.4349   54.3738   26.4366 C.ar      1 UNK         0.0000 
     22 C22         5.6520   54.1934   27.5750 C.ar      1 UNK         0.0000 
     23 N23         6.7079   54.7557   24.0893 N.am      1 UNK         0.0000 
     24 C24         6.4354   54.8093   22.7698 C.2       1 UNK         0.0000 
     25 O25         5.3622   54.4968   22.2545 O.2       1 UNK         0.0000 
     26 N26         7.4870   55.3000   22.0819 N.am      1 UNK         0.0000 
     27 C27         7.4804   55.8077   20.7704 C.ar      1 UNK         0.0000 
     28 C28         6.3842   56.4953   20.2383 C.ar      1 UNK         0.0000 
     29 C29         6.4455   57.0377   18.9576 C.ar      1 UNK         0.0000 
     30 C30         7.6103   56.8982   18.2083 C.ar      1 UNK         0.0000 
     31 C31         8.7145   56.2292   18.7337 C.ar      1 UNK         0.0000 
     32 C32         8.6485   55.6956   20.0182 C.ar      1 UNK         0.0000 
     33 H33        -0.9915   52.8955   23.1968 H         1 UNK         0.0000 
     34 H34        -2.0297   51.5051   23.4751 H         1 UNK         0.0000 
     35 H35        -2.6593   53.1566   23.6945 H         1 UNK         0.0000 
     36 H36        -3.9113   51.6311   24.9399 H         1 UNK         0.0000 
     37 H37        -5.2810   50.7060   26.7262 H         1 UNK         0.0000 
     38 H38        -4.3603   50.4751   29.0113 H         1 UNK         0.0000 
     39 H39        -2.0733   51.1603   29.4903 H         1 UNK         0.0000 
     40 H40         0.6864   51.2605   26.2835 H         1 UNK         0.0000 
     41 H41         0.7714   53.0252   26.3329 H         1 UNK         0.0000 
     42 H42         2.2704   51.1417   28.1550 H         1 UNK         0.0000 
     43 H43         2.9678   52.0970   26.8811 H         1 UNK         0.0000 
     44 H44         1.3579   53.9527   30.3647 H         1 UNK         0.0000 
     45 H45         1.3710   52.2005   30.2061 H         1 UNK         0.0000 
     46 H46        -0.2487   54.1470   28.5401 H         1 UNK         0.0000 
     47 H47        -0.8946   53.0459   29.7473 H         1 UNK         0.0000 
     48 H48         2.5926   54.3751   26.1030 H         1 UNK         0.0000 
     49 H49         3.9407   54.6825   24.1383 H         1 UNK         0.0000 
     50 H50         7.5069   54.3828   26.5475 H         1 UNK         0.0000 
     51 H51         6.1362   54.0705   28.5360 H         1 UNK         0.0000 
     52 H52         7.6781   54.8966   24.3331 H         1 UNK         0.0000 
     53 H53         8.3864   55.2976   22.5514 H         1 UNK         0.0000 
     54 H54         5.5046   56.6336   20.8358 H         1 UNK         0.0000 
     55 H55         5.5984   57.5733   18.5509 H         1 UNK         0.0000 
     56 H56         7.6610   57.3214   17.2153 H         1 UNK         0.0000 
     57 H57         9.6212   56.1322   18.1547 H         1 UNK         0.0000 
     58 H58         9.5047   55.1844   20.4222 H         1 UNK         0.0000 
@<TRIPOS>BOND
     1    1    2 1    
     2    1   33 1    
     3    1   34 1    
     4    1   35 1    
     5    2    3 1    
     6    3    8 ar   
     7    3    4 ar   
     8    4    5 ar   
     9    4   36 1    
    10    5    6 ar   
    11    5   37 1    
    12    6    7 ar   
    13    6   38 1    
    14    7    8 ar   
    15    7   39 1    
    16    8    9 1    
    17    9   14 1    
    18    9   10 1    
    19   10   11 1    
    20   10   40 1    
    21   10   41 1    
    22   11   12 1    
    23   11   42 1    
    24   11   43 1    
    25   12   13 1    
    26   12   15 am   BACKBONE|DICT|INTERRES
    27   13   14 1    
    28   13   44 1    
    29   13   45 1    
    30   14   46 1    
    31   14   47 1    
    32   15   16 2    
    33   15   17 1    
    34   17   22 ar   
    35   17   18 ar   
    36   18   19 ar   
    37   18   48 1    
    38   19   20 ar   
    39   19   49 1    
    40   20   21 ar   
    41   20   23 1    
    42   21   22 ar   
    43   21   50 1    
    44   22   51 1    
    45   23   24 am   BACKBONE|DICT|INTERRES
    46   23   52 1    
    47   24   25 2    
    48   24   26 am   BACKBONE|DICT|INTERRES
    49   26   27 1    
    50   26   53 1    
    51   27   32 ar   
    52   27   28 ar   
    53   28   29 ar   
    54   28   54 1    
    55   29   30 ar   
    56   29   55 1    
    57   30   31 ar   
    58   30   56 1    
    59   31   32 ar   
    60   31   57 1    
    61   32   58 1    
@<TRIPOS>SUBSTRUCTURE
     1 UNK         1 GROUP             0       ****    0 ROOT    
