ZINC00681693_4409
                    3D
 Schrodinger Suite 2024-2.
 47 50  0  0  1  0            999 V2000
    5.6506   55.8949   18.4789 C   0  0  0  0  0  0
    4.7562   54.6867   18.2837 C   0  0  0  0  0  0
    4.4187   54.2276   17.0085 C   0  0  0  0  0  0
    3.5856   53.1130   16.9035 C   0  0  0  0  0  0
    3.1129   52.4921   18.0612 C   0  0  0  0  0  0
    3.5051   53.0023   19.3100 C   0  0  0  0  0  0
    4.3109   54.0913   19.4202 N   0  0  0  0  0  0
    3.0827   52.4911   20.5438 N   0  0  0  0  0  0
    2.4182   51.3486   20.8281 C   0  0  0  0  0  0
    2.2041   50.4268   20.0399 O   0  0  0  0  0  0
    1.9294   51.2914   22.1882 C   0  0  0  0  0  0
    1.6431   52.4006   23.0070 C   0  0  0  0  0  0
    1.1062   51.8971   24.1684 C   0  0  0  0  0  0
    1.0975   50.5286   24.0120 N   0  0  0  0  0  0
    1.5743   50.1773   22.8031 N   0  0  0  0  0  0
    0.4783   49.5602   24.9212 C   0  0  1  0  0  0
    1.1043   48.6677   24.9432 H   0  0  0  0  0  0
    0.4637   50.2058   26.3346 C   0  0  0  0  0  0
    0.0340   51.7002   26.3748 C   0  0  2  0  0  0
   -1.0315   51.7797   26.1515 H   0  0  0  0  0  0
    0.7050   52.4974   25.3385 N   0  0  0  0  0  0
    0.1658   52.2759   27.7901 C   0  0  0  0  0  0
   -0.5895   51.6967   28.8105 C   0  0  0  0  0  0
   -0.4956   52.1718   30.1094 C   0  0  0  0  0  0
    0.3045   53.2723   30.3922 C   0  0  0  0  0  0
    1.0710   53.8610   29.3901 C   0  0  0  0  0  0
    1.0150   53.3531   28.0937 C   0  0  0  0  0  0
    0.3042   53.9963   32.1498 Br  0  0  0  0  0  0
   -0.9218   49.0972   24.4395 C   0  0  0  0  0  0
   -1.7788   50.1145   24.3331 F   0  0  0  0  0  0
   -0.8609   48.4997   23.2487 F   0  0  0  0  0  0
   -1.4609   48.2172   25.2825 F   0  0  0  0  0  0
    6.0298   56.2718   17.5286 H   0  0  0  0  0  0
    6.5066   55.6373   19.1032 H   0  0  0  0  0  0
    5.1010   56.7007   18.9645 H   0  0  0  0  0  0
    4.7922   54.7157   16.1205 H   0  0  0  0  0  0
    3.3114   52.7258   15.9337 H   0  0  0  0  0  0
    2.4743   51.6281   17.9650 H   0  0  0  0  0  0
    3.2676   53.1086   21.3168 H   0  0  0  0  0  0
    1.7945   53.4457   22.7789 H   0  0  0  0  0  0
   -0.2270   49.6316   26.9457 H   0  0  0  0  0  0
    1.4085   50.0533   26.8611 H   0  0  0  0  0  0
    0.3437   53.4390   25.3035 H   0  0  0  0  0  0
   -1.2544   50.8699   28.6051 H   0  0  0  0  0  0
   -1.0866   51.7042   30.8828 H   0  0  0  0  0  0
    1.6967   54.7126   29.6128 H   0  0  0  0  0  0
    1.6225   53.8178   27.3316 H   0  0  0  0  0  0
  1  2  1  0  0  0
  1 33  1  0  0  0
  1 34  1  0  0  0
  1 35  1  0  0  0
  2  7  2  0  0  0
  2  3  1  0  0  0
  3  4  2  0  0  0
  3 36  1  0  0  0
  4  5  1  0  0  0
  4 37  1  0  0  0
  5  6  2  0  0  0
  5 38  1  0  0  0
  6  7  1  0  0  0
  6  8  1  0  0  0
  8  9  1  0  0  0
  8 39  1  0  0  0
  9 10  2  0  0  0
  9 11  1  0  0  0
 11 15  2  0  0  0
 11 12  1  0  0  0
 12 13  2  0  0  0
 12 40  1  0  0  0
 13 21  1  0  0  0
 13 14  1  0  0  0
 14 15  1  0  0  0
 14 16  1  0  0  0
 16 17  1  0  0  0
 16 18  1  0  0  0
 16 29  1  0  0  0
 18 19  1  0  0  0
 18 41  1  0  0  0
 18 42  1  0  0  0
 19 20  1  0  0  0
 19 21  1  0  0  0
 19 22  1  0  0  0
 21 43  1  0  0  0
 22 27  2  0  0  0
 22 23  1  0  0  0
 23 24  2  0  0  0
 23 44  1  0  0  0
 24 25  1  0  0  0
 24 45  1  0  0  0
 25 26  2  0  0  0
 25 28  1  0  0  0
 26 27  1  0  0  0
 26 46  1  0  0  0
 27 47  1  0  0  0
 29 30  1  0  0  0
 29 31  1  0  0  0
 29 32  1  0  0  0
M  END
> <i_i_glide_confnum>
35

> <i_i_glide_lignum>
4410

> <i_i_glide_posenum>
353

> <i_i_glide_rotatable_bonds>
5

> <i_m_Source_File_Index>
1210

> <b_m_subgroup_collapsed>
0

> <r_i_docking_score>
-2.79958

> <r_i_glide_ecoul>
-1.28067

> <r_i_glide_eff_state_penalty>
0

> <r_i_glide_einternal>
7.1888

> <r_i_glide_emodel>
-39.7839

> <r_i_glide_energy>
-36.8528

> <r_i_glide_erotb>
0.351635

> <r_i_glide_esite>
-0.126768

> <r_i_glide_evdw>
-35.5721

> <r_i_glide_gscore>
-2.79958

> <r_i_glide_hbond>
0

> <r_i_glide_ligand_efficiency>
-0.0933194

> <r_i_glide_ligand_efficiency_ln>
-0.636095

> <r_i_glide_ligand_efficiency_sa>
-0.289965

> <r_i_glide_lipo>
-0.87984

> <r_i_glide_metal>
0

> <r_i_glide_rewards>
-0.173902

> <s_i_glide_gridfile>
wee1_glide-grid

> <s_m_Source_File>
wee1_decoys_glide_SP.sdf

> <s_m_Source_Path>
/Users/zhangxujun/Desktop

> <s_m_entry_id>
1485

> <s_m_entry_name>
wee1_decoys_glide_SP.1210

> <s_m_subgroup_title>
wee1_decoys_glide_SP

> <s_m_subgroupid>
wee1_decoys_glide_SP


$$$$
