ZINC32189088_3537
                    3D
 Schrodinger Suite 2024-2.
 57 61  0  0  1  0            999 V2000
    7.1044   54.0587   23.6061 C   0  0  0  0  0  0
    5.6474   54.0977   23.9333 C   0  0  0  0  0  0
    5.0546   54.1031   25.1713 C   0  0  0  0  0  0
    3.6708   54.0194   25.0466 C   0  0  0  0  0  0
    3.4395   54.1072   23.6640 C   0  0  0  0  0  0
    4.6549   54.1484   22.9795 N   0  0  0  0  0  0
    4.8729   54.2983   21.6012 C   0  0  0  0  0  0
    4.4229   53.4822   20.5443 C   0  0  0  0  0  0
    4.7116   54.0433   19.2704 C   0  0  0  0  0  0
    5.5388   55.1692   19.3617 C   0  0  0  0  0  0
    5.9046   55.5699   20.9953 S   0  0  0  0  0  0
    6.1371   55.9315   18.1876 C   0  0  0  0  0  0
    5.3863   55.5522   16.8957 C   0  0  0  0  0  0
    5.1817   54.0324   16.7791 C   0  0  0  0  0  0
    4.2828   53.4845   17.9077 C   0  0  0  0  0  0
    3.7402   52.2334   20.7201 C   0  0  0  0  0  0
    4.3040   51.2968   21.2817 O   0  0  0  0  0  0
    2.4847   52.2230   20.2275 N   0  0  0  0  0  0
    1.6069   51.1298   20.1886 C   0  0  0  0  0  0
    0.2430   51.4043   20.3065 C   0  0  0  0  0  0
   -0.6804   50.3623   20.2689 C   0  0  0  0  0  0
   -0.2376   49.0512   20.0986 C   0  0  0  0  0  0
    1.1204   48.7713   19.9585 C   0  0  0  0  0  0
    2.0453   49.8105   19.9988 C   0  0  0  0  0  0
    2.1105   54.1640   22.9414 C   0  0  0  0  0  0
    2.6494   53.8940   26.0899 C   0  0  0  0  0  0
    2.6662   53.5993   27.4137 C   0  0  0  0  0  0
    3.7951   53.3166   28.2760 C   0  0  0  0  0  0
    5.0082   53.2815   28.1052 O   0  0  0  0  0  0
    3.1551   53.0391   29.5513 N   0  0  0  0  0  0
    1.8455   53.1559   29.4268 C   0  0  0  0  0  0
    0.7043   52.8985   30.6921 S   0  5  0  0  0  0
    1.5383   53.4907   28.1865 N   0  3  0  0  0  0
    7.7010   53.8220   24.4821 H   0  0  0  0  0  0
    7.3362   53.2841   22.8818 H   0  0  0  0  0  0
    7.4843   55.0064   23.2267 H   0  0  0  0  0  0
    5.6264   54.1172   26.0804 H   0  0  0  0  0  0
    6.0922   57.0099   18.3446 H   0  0  0  0  0  0
    7.1902   55.6689   18.0800 H   0  0  0  0  0  0
    4.4165   56.0526   16.8721 H   0  0  0  0  0  0
    5.9361   55.9235   16.0298 H   0  0  0  0  0  0
    4.7425   53.7860   15.8116 H   0  0  0  0  0  0
    6.1493   53.5281   16.8047 H   0  0  0  0  0  0
    4.3052   52.3966   17.8931 H   0  0  0  0  0  0
    3.2451   53.7602   17.7161 H   0  0  0  0  0  0
    2.1191   53.1026   19.8902 H   0  0  0  0  0  0
   -0.1020   52.4194   20.4387 H   0  0  0  0  0  0
   -1.7351   50.5674   20.3694 H   0  0  0  0  0  0
   -0.9547   48.2446   20.0662 H   0  0  0  0  0  0
    1.4574   47.7559   19.8113 H   0  0  0  0  0  0
    3.0945   49.5854   19.8639 H   0  0  0  0  0  0
    1.3160   54.5727   23.5629 H   0  0  0  0  0  0
    2.1686   54.8263   22.0817 H   0  0  0  0  0  0
    1.7729   53.1830   22.6131 H   0  0  0  0  0  0
    1.6636   54.0479   25.6778 H   0  0  0  0  0  0
    3.6459   52.7822   30.3929 H   0  0  0  0  0  0
    0.5898   53.6171   27.8651 H   0  0  0  0  0  0
  1  2  1  0  0  0
  1 34  1  0  0  0
  1 35  1  0  0  0
  1 36  1  0  0  0
  2  6  1  0  0  0
  2  3  2  0  0  0
  3  4  1  0  0  0
  3 37  1  0  0  0
  4  5  2  0  0  0
  4 26  1  0  0  0
  5  6  1  0  0  0
  5 25  1  0  0  0
  6  7  1  0  0  0
  7 11  1  0  0  0
  7  8  2  0  0  0
  8  9  1  0  0  0
  8 16  1  0  0  0
  9 15  1  0  0  0
  9 10  2  0  0  0
 10 11  1  0  0  0
 10 12  1  0  0  0
 12 13  1  0  0  0
 12 38  1  0  0  0
 12 39  1  0  0  0
 13 14  1  0  0  0
 13 40  1  0  0  0
 13 41  1  0  0  0
 14 15  1  0  0  0
 14 42  1  0  0  0
 14 43  1  0  0  0
 15 44  1  0  0  0
 15 45  1  0  0  0
 16 17  2  0  0  0
 16 18  1  0  0  0
 18 19  1  0  0  0
 18 46  1  0  0  0
 19 24  2  0  0  0
 19 20  1  0  0  0
 20 21  2  0  0  0
 20 47  1  0  0  0
 21 22  1  0  0  0
 21 48  1  0  0  0
 22 23  2  0  0  0
 22 49  1  0  0  0
 23 24  1  0  0  0
 23 50  1  0  0  0
 24 51  1  0  0  0
 25 52  1  0  0  0
 25 53  1  0  0  0
 25 54  1  0  0  0
 26 27  2  0  0  0
 26 55  1  0  0  0
 27 33  1  0  0  0
 27 28  1  0  0  0
 28 29  2  0  0  0
 28 30  1  0  0  0
 30 31  1  0  0  0
 30 56  1  0  0  0
 31 32  1  0  0  0
 31 33  2  0  0  0
 33 57  1  0  0  0
M  CHG  2  32  -1  33   1
M  END
> <i_i_glide_confnum>
39

> <i_i_glide_lignum>
3538

> <i_i_glide_posenum>
304

> <i_i_glide_rotatable_bonds>
5

> <i_m_Source_File_Index>
1205

> <b_m_subgroup_collapsed>
0

> <r_i_docking_score>
-4.61314

> <r_i_glide_ecoul>
0.44033

> <r_i_glide_eff_state_penalty>
0

> <r_i_glide_einternal>
3.82017

> <r_i_glide_emodel>
-53.2825

> <r_i_glide_energy>
-41.5936

> <r_i_glide_erotb>
0.44574

> <r_i_glide_esite>
-0.0320505

> <r_i_glide_evdw>
-42.0339

> <r_i_glide_gscore>
-4.61314

> <r_i_glide_hbond>
-0.135985

> <r_i_glide_ligand_efficiency>
-0.139792

> <r_i_glide_ligand_efficiency_ln>
-1.02594

> <r_i_glide_ligand_efficiency_sa>
-0.448388

> <r_i_glide_lipo>
-1.99391

> <r_i_glide_metal>
0

> <r_i_glide_rewards>
-0.861286

> <s_i_glide_gridfile>
wee1_glide-grid

> <s_m_Source_File>
wee1_decoys_glide_SP.sdf

> <s_m_Source_Path>
/Users/zhangxujun/Desktop

> <s_m_entry_id>
1480

> <s_m_entry_name>
wee1_decoys_glide_SP.1205

> <s_m_subgroup_title>
wee1_decoys_glide_SP

> <s_m_subgroupid>
wee1_decoys_glide_SP


$$$$
