@<TRIPOS>MOLECULE
ZINC38737054_3439
64   68    1
SMALL
USER_CHARGES


@<TRIPOS>ATOM
      1 C1          0.8655   55.2246   30.9897 C.3       1 UNK         0.0000 
      2 C2          1.4027   54.5898   29.6772 C.3       1 UNK         0.0000 
      3 C3          0.5599   53.3422   29.2557 C.3       1 UNK         0.0000 
      4 H4         -0.4945   53.3374   29.5296 H         1 UNK         0.0000 
      5 C5          0.7393   52.8174   27.8053 C.3       1 UNK         0.0000 
      6 C6          2.2074   52.9182   27.3098 C.3       1 UNK         0.0000 
      7 C7          3.2595   53.1792   28.4527 C.3       1 UNK         0.0000 
      8 H8          3.6487   52.1772   28.6550 H         1 UNK         0.0000 
      9 C9          2.5768   53.5621   29.8119 C.3       1 UNK         0.0000 
     10 H10         3.3407   53.7420   30.5641 H         1 UNK         0.0000 
     11 C11         1.4968   52.5137   30.1588 C.3       1 UNK         0.0000 
     12 C12         4.5415   53.9471   28.0311 C.3       1 UNK         0.0000 
     13 N13         4.8326   53.8922   26.5996 N.am      1 UNK         0.0000 
     14 C14         5.7578   54.6307   25.9638 C.2       1 UNK         0.0000 
     15 O15         6.6084   55.2952   26.5620 O.2       1 UNK         0.0000 
     16 C16         5.6895   54.6423   24.4494 C.ar      1 UNK         0.0000 
     17 C17         4.6236   54.0683   23.7382 C.ar      1 UNK         0.0000 
     18 C18         4.6033   54.0965   22.3453 C.ar      1 UNK         0.0000 
     19 C19         5.6472   54.7061   21.6394 C.ar      1 UNK         0.0000 
     20 C20         6.7040   55.2972   22.3387 C.ar      1 UNK         0.0000 
     21 C21         6.7045   55.2771   23.7292 C.ar      1 UNK         0.0000 
     22 N22         5.6236   54.7461   20.2223 N.pl3     1 UNK         0.0000 
     23 C23         5.2482   53.7581   19.3302 C.ar      1 UNK         0.0000 
     24 C24         5.4293   54.3147   18.0831 C.ar      1 UNK         0.0000 
     25 C25         5.9127   55.6162   18.2848 C.ar      1 UNK         0.0000 
     26 N26         6.0369   55.8566   19.5764 N.2       1 UNK         0.0000 
     27 C27         6.2708   56.6358   17.2434 C.ar      1 UNK         0.0000 
     28 C28         6.7434   57.9097   17.5911 C.ar      1 UNK         0.0000 
     29 C29         7.0806   58.8357   16.6058 C.ar      1 UNK         0.0000 
     30 C30         6.9384   58.5103   15.2598 C.ar      1 UNK         0.0000 
     31 C31         6.4638   57.2492   14.8850 C.ar      1 UNK         0.0000 
     32 C32         6.1357   56.3231   15.8827 C.ar      1 UNK         0.0000 
     33 C33         6.3083   56.8874   13.4088 C.3       1 UNK         0.0000 
     34 F34         5.0744   57.2012   13.0141 F         1 UNK         0.0000 
     35 F35         7.1788   57.5556   12.6481 F         1 UNK         0.0000 
     36 F36         6.4989   55.5813   13.2082 F         1 UNK         0.0000 
     37 N37         4.8597   52.4984   19.6819 N.pl3     1 UNK         0.0000 
     38 C38         1.6281   55.7650   28.6891 C.3       1 UNK         0.0000 
     39 H39         0.7041   54.5135   31.7987 H         1 UNK         0.0000 
     40 H40        -0.0955   55.6943   30.8265 H         1 UNK         0.0000 
     41 H41         1.5044   56.0228   31.3628 H         1 UNK         0.0000 
     42 H42         0.4463   51.7657   27.7897 H         1 UNK         0.0000 
     43 H43         0.0477   53.2965   27.1172 H         1 UNK         0.0000 
     44 H44         2.4885   52.0967   26.6575 H         1 UNK         0.0000 
     45 H45         2.1829   53.7775   26.6443 H         1 UNK         0.0000 
     46 H46         1.6786   51.4771   29.8763 H         1 UNK         0.0000 
     47 H47         1.2101   52.4565   31.2101 H         1 UNK         0.0000 
     48 H48         4.4209   54.9953   28.3112 H         1 UNK         0.0000 
     49 H49         5.4012   53.5928   28.6042 H         1 UNK         0.0000 
     50 H50         4.3085   53.2193   26.0644 H         1 UNK         0.0000 
     51 H51         3.7943   53.5974   24.2476 H         1 UNK         0.0000 
     52 H52         3.7587   53.6677   21.8252 H         1 UNK         0.0000 
     53 H53         7.5223   55.7765   21.8184 H         1 UNK         0.0000 
     54 H54         7.5087   55.7707   24.2488 H         1 UNK         0.0000 
     55 H55         5.2403   53.8184   17.1436 H         1 UNK         0.0000 
     56 H56         6.8497   58.1918   18.6278 H         1 UNK         0.0000 
     57 H57         7.4379   59.8161   16.8861 H         1 UNK         0.0000 
     58 H58         7.1883   59.2482   14.5122 H         1 UNK         0.0000 
     59 H59         5.7685   55.3512   15.5884 H         1 UNK         0.0000 
     60 H60         4.9128   51.7376   18.9980 H         1 UNK         0.0000 
     61 H61         4.7084   52.2241   20.6416 H         1 UNK         0.0000 
     62 H62         2.0556   55.5035   27.7326 H         1 UNK         0.0000 
     63 H63         0.7045   56.2964   28.4822 H         1 UNK         0.0000 
     64 H64         2.3148   56.4934   29.1183 H         1 UNK         0.0000 
@<TRIPOS>BOND
     1    1    2 1    
     2    1   39 1    
     3    1   40 1    
     4    1   41 1    
     5    2    9 1    
     6    2    3 1    
     7    2   38 1    
     8    3    4 1    
     9    3   11 1    
    10    3    5 1    
    11    5    6 1    
    12    5   42 1    
    13    5   43 1    
    14    6    7 1    
    15    6   44 1    
    16    6   45 1    
    17    7    8 1    
    18    7    9 1    
    19    7   12 1    
    20    9   10 1    
    21    9   11 1    
    22   11   46 1    
    23   11   47 1    
    24   12   13 1    
    25   12   48 1    
    26   12   49 1    
    27   13   14 am   BACKBONE|DICT|INTERRES
    28   13   50 1    
    29   14   15 2    
    30   14   16 1    
    31   16   21 ar   
    32   16   17 ar   
    33   17   18 ar   
    34   17   51 1    
    35   18   19 ar   
    36   18   52 1    
    37   19   20 ar   
    38   19   22 1    
    39   20   21 ar   
    40   20   53 1    
    41   21   54 1    
    42   22   26 ar   
    43   22   23 ar   
    44   23   24 ar   
    45   23   37 1    
    46   24   25 ar   
    47   24   55 1    
    48   25   26 ar   
    49   25   27 1    
    50   27   32 ar   
    51   27   28 ar   
    52   28   29 ar   
    53   28   56 1    
    54   29   30 ar   
    55   29   57 1    
    56   30   31 ar   
    57   30   58 1    
    58   31   32 ar   
    59   31   33 1    
    60   32   59 1    
    61   33   34 1    
    62   33   35 1    
    63   33   36 1    
    64   37   60 1    
    65   37   61 1    
    66   38   62 1    
    67   38   63 1    
    68   38   64 1    
@<TRIPOS>SUBSTRUCTURE
     1 UNK         1 GROUP             0       ****    0 ROOT    
