@<TRIPOS>MOLECULE
ZINC08652381_1727
31   32    1
SMALL
USER_CHARGES


@<TRIPOS>ATOM
      1 C1          6.7044   54.5909   26.8435 C.ar      1 UNK         0.0000 
      2 C2          6.6708   54.8602   25.4788 C.ar      1 UNK         0.0000 
      3 C3          5.4915   54.6705   24.7689 C.ar      1 UNK         0.0000 
      4 C4          4.3281   54.2144   25.3973 C.ar      1 UNK         0.0000 
      5 C5          4.3728   53.9100   26.7825 C.ar      1 UNK         0.0000 
      6 C6          5.5649   54.1179   27.4838 C.ar      1 UNK         0.0000 
      7 C7          3.1743   53.2966   27.5105 C.3       1 UNK         0.0000 
      8 C8          1.8706   53.4952   26.7308 C.3       1 UNK         0.0000 
      9 C9          2.0402   53.1106   25.2455 C.3       1 UNK         0.0000 
     10 H10         2.4647   52.1112   25.1714 H         1 UNK         0.0000 
     11 C11         3.0342   54.0890   24.5847 C.3       1 UNK         0.0000 
     12 C12         0.6859   53.1195   24.5101 C.2       1 UNK         0.0000 
     13 N13        -0.1546   52.1652   24.3914 N.2       1 UNK         0.0000 
     14 N14         0.1918   50.9913   24.9692 N.am      1 UNK         0.0000 
     15 C15        -0.6234   49.9234   25.0041 C.2       1 UNK         0.0000 
     16 O16        -1.7519   49.8646   24.5184 O.2       1 UNK         0.0000 
     17 N17        -0.0966   48.9078   25.6817 N.am      1 UNK         0.0000 
     18 H18         7.6092   54.7330   27.4150 H         1 UNK         0.0000 
     19 H19         7.5449   55.2158   24.9552 H         1 UNK         0.0000 
     20 H20         5.4766   54.8969   23.7127 H         1 UNK         0.0000 
     21 H21         5.6159   53.8904   28.5388 H         1 UNK         0.0000 
     22 H22         3.0766   53.7241   28.5092 H         1 UNK         0.0000 
     23 H23         3.3563   52.2314   27.6543 H         1 UNK         0.0000 
     24 H24         1.4680   54.4967   26.8490 H         1 UNK         0.0000 
     25 H25         1.1035   52.8655   27.1861 H         1 UNK         0.0000 
     26 H26         3.2659   53.7580   23.5701 H         1 UNK         0.0000 
     27 H27         2.6008   55.0847   24.4813 H         1 UNK         0.0000 
     28 H28         0.4585   54.0905   24.0791 H         1 UNK         0.0000 
     29 H29         1.0913   50.9738   25.4221 H         1 UNK         0.0000 
     30 H30         0.8907   48.8372   25.8691 H         1 UNK         0.0000 
     31 H31        -0.7093   48.1873   26.0413 H         1 UNK         0.0000 
@<TRIPOS>BOND
     1    1    6 ar   
     2    1    2 ar   
     3    1   18 1    
     4    2    3 ar   
     5    2   19 1    
     6    3    4 ar   
     7    3   20 1    
     8    4   11 1    
     9    4    5 ar   
    10    5    6 ar   
    11    5    7 1    
    12    6   21 1    
    13    7    8 1    
    14    7   22 1    
    15    7   23 1    
    16    8    9 1    
    17    8   24 1    
    18    8   25 1    
    19    9   10 1    
    20    9   11 1    
    21    9   12 1    
    22   11   26 1    
    23   11   27 1    
    24   12   13 2    
    25   12   28 1    
    26   13   14 1    
    27   14   15 am   BACKBONE|DICT|INTERRES
    28   14   29 1    
    29   15   16 2    
    30   15   17 am   BACKBONE|DICT|INTERRES
    31   17   30 1    
    32   17   31 1    
@<TRIPOS>SUBSTRUCTURE
     1 UNK         1 GROUP             0       ****    0 ROOT    
