@<TRIPOS>MOLECULE
ZINC51632525_4805
39   41    1
SMALL
USER_CHARGES


@<TRIPOS>ATOM
      1 C1          3.7779   53.9429   28.5957 C.ar      1 UNK         0.0000 
      2 C2          5.1106   54.3211   28.4821 C.ar      1 UNK         0.0000 
      3 C3          5.6743   54.4966   27.2232 C.ar      1 UNK         0.0000 
      4 C4          4.9223   54.3088   26.0580 C.ar      1 UNK         0.0000 
      5 C5          3.5715   53.8975   26.1700 C.ar      1 UNK         0.0000 
      6 C6          3.0202   53.7319   27.4466 C.ar      1 UNK         0.0000 
      7 C7          2.7291   53.5779   24.9302 C.3       1 UNK         0.0000 
      8 C8          3.2849   54.2352   23.6576 C.3       1 UNK         0.0000 
      9 C9          4.8006   53.9591   23.5257 C.3       1 UNK         0.0000 
     10 H10         4.9960   52.8967   23.5230 H         1 UNK         0.0000 
     11 C11         5.5527   54.6154   24.6993 C.3       1 UNK         0.0000 
     12 N12         5.3697   54.4967   22.2936 N.pl3     1 UNK         0.0000 
     13 C13         5.1056   54.0568   20.9852 C.ar      1 UNK         0.0000 
     14 C14         4.1448   53.0776   20.6981 C.ar      1 UNK         0.0000 
     15 C15         3.8773   52.7088   19.3823 C.ar      1 UNK         0.0000 
     16 C16         4.5807   53.2984   18.3370 C.ar      1 UNK         0.0000 
     17 C17         5.5737   54.2356   18.6075 C.ar      1 UNK         0.0000 
     18 C18         5.8592   54.6038   19.9268 C.ar      1 UNK         0.0000 
     19 S19         7.2251   55.7442   20.2186 S.o2      1 UNK         0.0000 
     20 O20         6.7043   57.1070   20.0818 O.2       1 UNK         0.0000 
     21 O21         7.9041   55.3209   21.4449 O.2       1 UNK         0.0000 
     22 N22         8.3610   55.4978   18.9215 N.pl3     1 UNK         0.0000 
     23 H23         3.3331   53.8052   29.5697 H         1 UNK         0.0000 
     24 H24         5.7096   54.4970   29.3624 H         1 UNK         0.0000 
     25 H25         6.7045   54.8143   27.1553 H         1 UNK         0.0000 
     26 H26         1.9919   53.4164   27.5481 H         1 UNK         0.0000 
     27 H27         2.7053   52.4967   24.7957 H         1 UNK         0.0000 
     28 H28         1.6939   53.8859   25.0857 H         1 UNK         0.0000 
     29 H29         2.7019   53.9066   22.8012 H         1 UNK         0.0000 
     30 H30         3.1051   55.2969   23.7282 H         1 UNK         0.0000 
     31 H31         5.5506   55.6992   24.5801 H         1 UNK         0.0000 
     32 H32         6.6002   54.3076   24.6923 H         1 UNK         0.0000 
     33 H33         6.3413   54.7750   22.3843 H         1 UNK         0.0000 
     34 H34         3.6041   52.5722   21.4798 H         1 UNK         0.0000 
     35 H35         3.1404   51.9484   19.1688 H         1 UNK         0.0000 
     36 H36         4.3806   52.9965   17.3191 H         1 UNK         0.0000 
     37 H37         6.1319   54.6560   17.7836 H         1 UNK         0.0000 
     38 H38         8.4431   56.2887   18.2792 H         1 UNK         0.0000 
     39 H39         9.2633   55.1254   19.2327 H         1 UNK         0.0000 
@<TRIPOS>BOND
     1    1    6 ar   
     2    1    2 ar   
     3    1   23 1    
     4    2    3 ar   
     5    2   24 1    
     6    3    4 ar   
     7    3   25 1    
     8    4   11 1    
     9    4    5 ar   
    10    5    6 ar   
    11    5    7 1    
    12    6   26 1    
    13    7    8 1    
    14    7   27 1    
    15    7   28 1    
    16    8    9 1    
    17    8   29 1    
    18    8   30 1    
    19    9   10 1    
    20    9   11 1    
    21    9   12 1    
    22   11   31 1    
    23   11   32 1    
    24   12   13 1    
    25   12   33 1    
    26   13   18 ar   
    27   13   14 ar   
    28   14   15 ar   
    29   14   34 1    
    30   15   16 ar   
    31   15   35 1    
    32   16   17 ar   
    33   16   36 1    
    34   17   18 ar   
    35   17   37 1    
    36   18   19 1    
    37   19   20 2    
    38   19   21 2    
    39   19   22 1    
    40   22   38 1    
    41   22   39 1    
@<TRIPOS>SUBSTRUCTURE
     1 UNK         1 GROUP             0       ****    0 ROOT    
