@<TRIPOS>MOLECULE
ZINC64965867_2333
51   55    1
SMALL
USER_CHARGES


@<TRIPOS>ATOM
      1 C1          3.1322   52.0968   30.9046 C.ar      1 UNK         0.0000 
      2 C2          3.9672   52.2582   29.8024 C.ar      1 UNK         0.0000 
      3 C3          3.4552   52.7759   28.6168 C.ar      1 UNK         0.0000 
      4 C4          2.1043   53.1289   28.5291 C.ar      1 UNK         0.0000 
      5 C5          1.2683   52.9405   29.6333 C.ar      1 UNK         0.0000 
      6 C6          1.7823   52.4344   30.8241 C.ar      1 UNK         0.0000 
      7 C7          1.5186   53.7924   27.2828 C.3       1 UNK         0.0000 
      8 N8          2.0539   53.4255   25.9557 N.pl3     1 UNK         0.0000 
      9 C9          1.5453   52.5540   24.9882 C.ar      1 UNK         0.0000 
     10 C10         0.6000   51.5017   24.9184 C.ar      1 UNK         0.0000 
     11 N11         0.4171   50.8354   23.7339 N.ar      1 UNK         0.0000 
     12 C12         1.1810   51.1852   22.6591 C.ar      1 UNK         0.0000 
     13 N13         2.1459   52.1407   22.6841 N.ar      1 UNK         0.0000 
     14 C14         2.3030   52.7877   23.8655 C.ar      1 UNK         0.0000 
     15 N15         3.2680   53.7265   24.1736 N.pl3     1 UNK         0.0000 
     16 C16         3.1379   54.0979   25.4749 C.ar      1 UNK         0.0000 
     17 O17         3.8519   54.8974   26.0881 O.2       1 UNK         0.0000 
     18 C18         4.3337   54.0968   23.3197 C.ar      1 UNK         0.0000 
     19 C19         4.0654   54.4818   22.0003 C.ar      1 UNK         0.0000 
     20 C20         5.1049   54.8707   21.1586 C.ar      1 UNK         0.0000 
     21 C21         6.4087   54.8972   21.6402 C.ar      1 UNK         0.0000 
     22 C22         6.6879   54.4982   22.9423 C.ar      1 UNK         0.0000 
     23 C23         5.6568   54.0951   23.7818 C.ar      1 UNK         0.0000 
     24 F24         7.4139   55.3053   20.8340 F         1 UNK         0.0000 
     25 C25         0.9546   50.4646   21.3636 C.ar      1 UNK         0.0000 
     26 C26         0.2618   49.2430   21.3215 C.ar      1 UNK         0.0000 
     27 C27         0.0515   48.5689   20.1184 C.ar      1 UNK         0.0000 
     28 C28         0.5223   49.1093   18.9248 C.ar      1 UNK         0.0000 
     29 C29         1.2051   50.3245   18.9376 C.ar      1 UNK         0.0000 
     30 C30         1.4230   50.9884   20.1448 C.ar      1 UNK         0.0000 
     31 F31         1.6454   50.8711   17.7821 F         1 UNK         0.0000 
     32 F32         0.3042   48.4566   17.7604 F         1 UNK         0.0000 
     33 C33        -0.2203   50.9836   26.0805 C.2       1 UNK         0.0000 
     34 O34        -0.6123   51.7044   26.9901 O.2       1 UNK         0.0000 
     35 N35        -0.5003   49.6771   26.0829 N.am      1 UNK         0.0000 
     36 H36         3.5328   51.7107   31.8316 H         1 UNK         0.0000 
     37 H37         5.0157   52.0008   29.8666 H         1 UNK         0.0000 
     38 H38         4.1237   52.9128   27.7810 H         1 UNK         0.0000 
     39 H39         0.2217   53.2039   29.5774 H         1 UNK         0.0000 
     40 H40         1.1345   52.2997   31.6796 H         1 UNK         0.0000 
     41 H41         1.6604   54.8644   27.4294 H         1 UNK         0.0000 
     42 H42         0.4403   53.6830   27.2851 H         1 UNK         0.0000 
     43 H43         3.0525   54.4945   21.6259 H         1 UNK         0.0000 
     44 H44         4.8988   55.1679   20.1407 H         1 UNK         0.0000 
     45 H45         7.7022   54.4909   23.2975 H         1 UNK         0.0000 
     46 H46         5.8906   53.7856   24.7909 H         1 UNK         0.0000 
     47 H47        -0.1163   48.7974   22.2299 H         1 UNK         0.0000 
     48 H48        -0.4796   47.6289   20.1088 H         1 UNK         0.0000 
     49 H49         1.9547   51.9286   20.1165 H         1 UNK         0.0000 
     50 H50        -0.1248   49.0641   25.3778 H         1 UNK         0.0000 
     51 H51        -0.9617   49.2723   26.9019 H         1 UNK         0.0000 
@<TRIPOS>BOND
     1    1    6 ar   
     2    1    2 ar   
     3    1   36 1    
     4    2    3 ar   
     5    2   37 1    
     6    3    4 ar   
     7    3   38 1    
     8    4    5 ar   
     9    4    7 1    
    10    5    6 ar   
    11    5   39 1    
    12    6   40 1    
    13    7    8 1    
    14    7   41 1    
    15    7   42 1    
    16    8   16 ar   
    17    8    9 ar   
    18    9   14 ar   
    19    9   10 ar   
    20   10   11 ar   
    21   10   33 1    
    22   11   12 ar   
    23   12   13 ar   
    24   12   25 1    
    25   13   14 ar   
    26   14   15 ar   
    27   15   16 ar   
    28   15   18 1    
    29   16   17 2    
    30   18   23 ar   
    31   18   19 ar   
    32   19   20 ar   
    33   19   43 1    
    34   20   21 ar   
    35   20   44 1    
    36   21   22 ar   
    37   21   24 1    
    38   22   23 ar   
    39   22   45 1    
    40   23   46 1    
    41   25   30 ar   
    42   25   26 ar   
    43   26   27 ar   
    44   26   47 1    
    45   27   28 ar   
    46   27   48 1    
    47   28   29 ar   
    48   28   32 1    
    49   29   30 ar   
    50   29   31 1    
    51   30   49 1    
    52   33   34 2    
    53   33   35 am   BACKBONE|DICT|INTERRES
    54   35   50 1    
    55   35   51 1    
@<TRIPOS>SUBSTRUCTURE
     1 UNK         1 GROUP             0       ****    0 ROOT    
