@<TRIPOS>MOLECULE
ZINC55084881_4817
48   51    1
SMALL
USER_CHARGES


@<TRIPOS>ATOM
      1 C1          1.4566   44.1007   14.6838 C.ar      1 UNK         0.0000 
      2 C2          1.8352   45.3520   14.2055 C.ar      1 UNK         0.0000 
      3 C3          1.8659   46.4426   15.0702 C.ar      1 UNK         0.0000 
      4 C4          1.4920   46.2905   16.4080 C.ar      1 UNK         0.0000 
      5 C5          1.1040   45.0256   16.8802 C.ar      1 UNK         0.0000 
      6 C6          1.0963   43.9323   16.0177 C.ar      1 UNK         0.0000 
      7 N7          1.5045   47.4666   17.1804 N.am      1 UNK         0.0000 
      8 C8          1.1425   47.6584   18.4625 C.2       1 UNK         0.0000 
      9 O9          0.8726   46.7809   19.2816 O.2       1 UNK         0.0000 
     10 N10         1.0886   48.9685   18.7421 N.am      1 UNK         0.0000 
     11 C11         0.7629   49.5610   20.0471 C.3       1 UNK         0.0000 
     12 C12         0.2391   51.0135   19.9489 C.3       1 UNK         0.0000 
     13 C13        -0.3053   51.4705   21.3317 C.3       1 UNK         0.0000 
     14 C14         0.7384   51.3681   22.4683 C.3       1 UNK         0.0000 
     15 C15         1.4592   49.9998   22.4620 C.3       1 UNK         0.0000 
     16 C16         1.9400   49.5670   21.0497 C.3       1 UNK         0.0000 
     17 C17         3.1044   50.4155   20.4811 C.3       1 UNK         0.0000 
     18 N18         2.6583   51.8500   20.1115 N.4       1 UNK         0.0000 
     19 C19         1.3198   51.9495   19.3369 C.3       1 UNK         0.0000 
     20 C20         3.7935   52.5471   19.3413 C.3       1 UNK         0.0000 
     21 C21         4.1006   54.0028   19.5982 C.3       1 UNK         0.0000 
     22 C22         5.0496   52.9370   20.0831 C.3       1 UNK         0.0000 
     23 H23         1.4385   43.2546   14.0121 H         1 UNK         0.0000 
     24 H24         2.0963   45.4753   13.1654 H         1 UNK         0.0000 
     25 H25         2.1645   47.4099   14.6899 H         1 UNK         0.0000 
     26 H26         0.8030   44.8630   17.9021 H         1 UNK         0.0000 
     27 H27         0.8010   42.9589   16.3800 H         1 UNK         0.0000 
     28 H28         1.8509   48.2795   16.6919 H         1 UNK         0.0000 
     29 H29         1.0856   49.6031   17.9587 H         1 UNK         0.0000 
     30 H30        -0.0431   48.9453   20.4589 H         1 UNK         0.0000 
     31 H31        -0.6079   50.9993   19.2595 H         1 UNK         0.0000 
     32 H32        -0.6625   52.4973   21.2722 H         1 UNK         0.0000 
     33 H33        -1.1727   50.8628   21.5963 H         1 UNK         0.0000 
     34 H34         1.4613   52.1798   22.3956 H         1 UNK         0.0000 
     35 H35         0.2466   51.5157   23.4311 H         1 UNK         0.0000 
     36 H36         0.7819   49.2410   22.8582 H         1 UNK         0.0000 
     37 H37         2.3039   50.0361   23.1524 H         1 UNK         0.0000 
     38 H38         2.2989   48.5383   21.1335 H         1 UNK         0.0000 
     39 H39         3.9016   50.5318   21.2161 H         1 UNK         0.0000 
     40 H40         3.5045   49.9728   19.5659 H         1 UNK         0.0000 
     41 H41         1.5362   51.6977   18.2968 H         1 UNK         0.0000 
     42 H42         1.0230   52.9962   19.4009 H         1 UNK         0.0000 
     43 H43         3.9037   52.1053   18.3455 H         1 UNK         0.0000 
     44 H44         4.3820   54.6282   18.7503 H         1 UNK         0.0000 
     45 H45         3.5048   54.5438   20.3319 H         1 UNK         0.0000 
     46 H46         5.1220   52.7325   21.1515 H         1 UNK         0.0000 
     47 H47         5.9935   52.7814   19.5613 H         1 UNK         0.0000 
     48 H48         2.4910   52.3109   20.9946 H         1 UNK         0.0000 
@<TRIPOS>BOND
     1    1    6 ar   
     2    1    2 ar   
     3    1   23 1    
     4    2    3 ar   
     5    2   24 1    
     6    3    4 ar   
     7    3   25 1    
     8    4    5 ar   
     9    4    7 1    
    10    5    6 ar   
    11    5   26 1    
    12    6   27 1    
    13    7    8 am   BACKBONE|DICT|INTERRES
    14    7   28 1    
    15    8    9 2    
    16    8   10 am   BACKBONE|DICT|INTERRES
    17   10   11 1    
    18   10   29 1    
    19   11   16 1    
    20   11   12 1    
    21   11   30 1    
    22   12   19 1    
    23   12   13 1    
    24   12   31 1    
    25   13   14 1    
    26   13   32 1    
    27   13   33 1    
    28   14   15 1    
    29   14   34 1    
    30   14   35 1    
    31   15   16 1    
    32   15   36 1    
    33   15   37 1    
    34   16   17 1    
    35   16   38 1    
    36   17   18 1    
    37   17   39 1    
    38   17   40 1    
    39   18   19 1    
    40   18   20 1    
    41   18   48 1    
    42   19   41 1    
    43   19   42 1    
    44   20   22 1    
    45   20   21 1    
    46   20   43 1    
    47   21   22 1    
    48   21   44 1    
    49   21   45 1    
    50   22   46 1    
    51   22   47 1    
@<TRIPOS>SUBSTRUCTURE
     1 UNK         1 GROUP             0       ****    0 ROOT    
