@<TRIPOS>MOLECULE
ZINC14944236_2598
51   55    1
SMALL
USER_CHARGES


@<TRIPOS>ATOM
      1 C1          2.4149   53.4454   26.0667 C.ar      1 UNK         0.0000 
      2 C2          1.5048   52.4965   25.6127 C.ar      1 UNK         0.0000 
      3 C3          0.4323   52.0759   26.4101 C.ar      1 UNK         0.0000 
      4 C4          0.3022   52.6419   27.6908 C.ar      1 UNK         0.0000 
      5 C5          1.2265   53.5852   28.1774 C.ar      1 UNK         0.0000 
      6 C6          2.2819   53.9805   27.3441 C.ar      1 UNK         0.0000 
      7 C7          1.1049   54.1412   29.5632 C.2       1 UNK         0.0000 
      8 O8          2.1354   54.6369   30.0813 O.co2     1 UNK         0.0000 
      9 C9         -0.5066   50.9494   25.9145 C.3       1 UNK         0.0000 
     10 H10         0.1505   50.0958   25.7386 H         1 UNK         0.0000 
     11 C11        -1.2894   51.2551   24.6062 C.3       1 UNK         0.0000 
     12 H12        -1.8557   50.3335   24.4221 H         1 UNK         0.0000 
     13 C13        -0.6610   51.5290   23.2415 C.3       1 UNK         0.0000 
     14 C14        -1.8556   52.1432   22.5260 C.2       1 UNK         0.0000 
     15 C15        -2.7737   52.5857   23.4097 C.2       1 UNK         0.0000 
     16 C16        -2.2733   52.3889   24.8225 C.3       1 UNK         0.0000 
     17 H17        -1.7715   53.2957   25.1647 H         1 UNK         0.0000 
     18 C18        -3.2463   51.9869   25.9252 C.ar      1 UNK         0.0000 
     19 C19        -4.5435   52.5072   26.0071 C.ar      1 UNK         0.0000 
     20 C20        -5.4026   52.1471   27.0456 C.ar      1 UNK         0.0000 
     21 C21        -4.9598   51.2781   28.0433 C.ar      1 UNK         0.0000 
     22 C22        -3.6717   50.7483   27.9785 C.ar      1 UNK         0.0000 
     23 C23        -2.8227   51.0784   26.9211 C.ar      1 UNK         0.0000 
     24 N24        -1.5315   50.4971   26.8815 N.pl3     1 UNK         0.0000 
     25 S25        -7.0451   52.8481   27.0670 S.o2      1 UNK         0.0000 
     26 O26        -6.9479   54.1767   27.6810 O.2       1 UNK         0.0000 
     27 O27        -7.5690   52.7021   25.7059 O.2       1 UNK         0.0000 
     28 N28        -8.0651   51.8147   28.0887 N.pl3     1 UNK         0.0000 
     29 C29        -8.1726   51.8819   29.4828 C.ar      1 UNK         0.0000 
     30 N30        -8.9536   50.9198   30.0396 N.ar      1 UNK         0.0000 
     31 C31        -9.1212   50.9633   31.3870 C.ar      1 UNK         0.0000 
     32 C32        -8.5326   51.9491   32.1805 C.ar      1 UNK         0.0000 
     33 C33        -7.7499   52.8971   31.5208 C.ar      1 UNK         0.0000 
     34 N34        -7.5473   52.8736   30.1765 N.ar      1 UNK         0.0000 
     35 H35         3.2434   53.7421   25.4406 H         1 UNK         0.0000 
     36 H36         1.6862   52.0424   24.6526 H         1 UNK         0.0000 
     37 H37        -0.5048   52.3230   28.3372 H         1 UNK         0.0000 
     38 H38         3.0138   54.7002   27.6881 H         1 UNK         0.0000 
     39 H39         0.1754   52.2219   23.2543 H         1 UNK         0.0000 
     40 H40        -0.3216   50.6055   22.7721 H         1 UNK         0.0000 
     41 H41        -1.9160   52.2012   21.4498 H         1 UNK         0.0000 
     42 H42        -3.6954   53.0982   23.1940 H         1 UNK         0.0000 
     43 H43        -4.8878   53.2020   25.2549 H         1 UNK         0.0000 
     44 H44        -5.6013   50.9971   28.8644 H         1 UNK         0.0000 
     45 H45        -3.3319   50.0644   28.7463 H         1 UNK         0.0000 
     46 H46        -1.2956   49.7222   27.5081 H         1 UNK         0.0000 
     47 H47        -8.5757   51.0833   27.6218 H         1 UNK         0.0000 
     48 H48        -9.7469   50.1972   31.8210 H         1 UNK         0.0000 
     49 H49        -8.6853   51.9810   33.2499 H         1 UNK         0.0000 
     50 H50        -7.2954   53.7101   32.0682 H         1 UNK         0.0000 
     51 O51        -0.0125   54.0809   30.1231 O.co2     1 UNK         0.0000 
@<TRIPOS>BOND
     1    1    6 ar   
     2    1    2 ar   
     3    1   35 1    
     4    2    3 ar   
     5    2   36 1    
     6    3    4 ar   
     7    3    9 1    
     8    4    5 ar   
     9    4   37 1    
    10    5    6 ar   
    11    5    7 1    
    12    6   38 1    
    13    7    8 2    
    14    7   51 1    
    15    9   10 1    
    16    9   24 1    
    17    9   11 1    
    18   11   12 1    
    19   11   16 1    
    20   11   13 1    
    21   13   14 1    
    22   13   39 1    
    23   13   40 1    
    24   14   15 2    
    25   14   41 1    
    26   15   16 1    
    27   15   42 1    
    28   16   17 1    
    29   16   18 1    
    30   18   23 ar   
    31   18   19 ar   
    32   19   20 ar   
    33   19   43 1    
    34   20   21 ar   
    35   20   25 1    
    36   21   22 ar   
    37   21   44 1    
    38   22   23 ar   
    39   22   45 1    
    40   23   24 1    
    41   24   46 1    
    42   25   26 2    
    43   25   27 2    
    44   25   28 1    
    45   28   29 1    
    46   28   47 1    
    47   29   34 ar   
    48   29   30 ar   
    49   30   31 ar   
    50   31   32 ar   
    51   31   48 1    
    52   32   33 ar   
    53   32   49 1    
    54   33   34 ar   
    55   33   50 1    
@<TRIPOS>SUBSTRUCTURE
     1 UNK         1 GROUP             0       ****    0 ROOT    
