@<TRIPOS>MOLECULE
ZINC08385057_3480
77   81    1
SMALL
USER_CHARGES


@<TRIPOS>ATOM
      1 C1          2.2808   58.0535   13.2927 C.3       1 UNK         0.0000 
      2 C2          1.8193   56.8719   14.1834 C.3       1 UNK         0.0000 
      3 C3          2.1408   55.5449   13.4443 C.3       1 UNK         0.0000 
      4 C4          2.1732   54.2994   14.3445 C.2       1 UNK         0.0000 
      5 C5          2.3187   54.3811   15.7034 C.2       1 UNK         0.0000 
      6 C6          2.4060   53.0901   16.5610 C.3       1 UNK         0.0000 
      7 H7          1.4501   52.9774   17.0731 H         1 UNK         0.0000 
      8 C8          2.7288   51.8339   15.7173 C.3       1 UNK         0.0000 
      9 C9          1.8801   51.7262   14.4402 C.3       1 UNK         0.0000 
     10 C10         2.2583   52.9657   13.5834 C.3       1 UNK         0.0000 
     11 C11         2.3323   50.4626   13.6741 C.3       1 UNK         0.0000 
     12 C12         0.3700   51.6792   14.7766 C.3       1 UNK         0.0000 
     13 N13         3.4382   53.1718   17.6018 N.pl3     1 UNK         0.0000 
     14 C14         3.3859   52.6880   18.8429 C.cat     1 UNK         0.0000 
     15 N15         4.3148   53.0275   19.7507 N.pl3     1 UNK         0.0000 
     16 C16         5.4299   53.8879   19.5615 C.ar      1 UNK         0.0000 
     17 C17         6.3042   53.6958   18.4898 C.ar      1 UNK         0.0000 
     18 C18         7.4199   54.5177   18.3572 C.ar      1 UNK         0.0000 
     19 C19         7.6555   55.5225   19.2948 C.ar      1 UNK         0.0000 
     20 C20         6.7817   55.7161   20.3642 C.ar      1 UNK         0.0000 
     21 C21         5.6645   54.8965   20.4978 C.ar      1 UNK         0.0000 
     22 N22         2.3891   51.8622   19.1853 N.pl3     1 UNK         0.0000 
     23 C23         2.1991   51.2942   20.4654 C.ar      1 UNK         0.0000 
     24 C24         2.4398   49.9315   20.6360 C.ar      1 UNK         0.0000 
     25 C25         2.3029   49.3678   21.8993 C.ar      1 UNK         0.0000 
     26 C26         1.8994   50.1608   22.9710 C.ar      1 UNK         0.0000 
     27 C27         1.6384   51.5212   22.7943 C.ar      1 UNK         0.0000 
     28 C28         1.7926   52.0927   21.5353 C.ar      1 UNK         0.0000 
     29 C29         2.2113   55.7647   16.4124 C.3       1 UNK         0.0000 
     30 C30         2.6451   56.8982   15.4735 C.3       1 UNK         0.0000 
     31 C31         0.7546   56.0004   16.8820 C.3       1 UNK         0.0000 
     32 C32        -0.3151   56.4217   15.8196 C.3       1 UNK         0.0000 
     33 C33         0.2901   56.9806   14.4831 C.3       1 UNK         0.0000 
     34 C34        -1.1060   55.1559   15.4222 C.3       1 UNK         0.0000 
     35 C35        -1.2870   57.4485   16.4578 C.3       1 UNK         0.0000 
     36 O36         3.0851   55.8691   17.5219 O.3       1 UNK         0.0000 
     37 H37         3.3419   57.9827   13.0440 H         1 UNK         0.0000 
     38 H38         1.7278   58.0827   12.3532 H         1 UNK         0.0000 
     39 H39         2.1355   59.0154   13.7880 H         1 UNK         0.0000 
     40 H40         1.5026   55.3981   12.5731 H         1 UNK         0.0000 
     41 H41         3.1587   55.5893   13.0533 H         1 UNK         0.0000 
     42 H42         3.7934   51.8131   15.4605 H         1 UNK         0.0000 
     43 H43         2.5770   50.9442   16.3328 H         1 UNK         0.0000 
     44 H44         1.6756   52.9985   12.6606 H         1 UNK         0.0000 
     45 H45         3.3019   52.8965   13.2731 H         1 UNK         0.0000 
     46 H46         2.1461   49.5619   14.2581 H         1 UNK         0.0000 
     47 H47         1.7918   50.3588   12.7350 H         1 UNK         0.0000 
     48 H48         3.3962   50.4802   13.4404 H         1 UNK         0.0000 
     49 H49         0.0444   52.5047   15.4030 H         1 UNK         0.0000 
     50 H50        -0.2343   51.6965   13.8702 H         1 UNK         0.0000 
     51 H51         0.1214   50.7641   15.3141 H         1 UNK         0.0000 
     52 H52         4.1437   52.6833   20.6827 H         1 UNK         0.0000 
     53 H53         6.1433   52.8929   17.7824 H         1 UNK         0.0000 
     54 H54         8.1103   54.3686   17.5398 H         1 UNK         0.0000 
     55 H55         8.5294   56.1500   19.1968 H         1 UNK         0.0000 
     56 H56         6.9710   56.4926   21.0884 H         1 UNK         0.0000 
     57 H57         4.9900   55.0431   21.3310 H         1 UNK         0.0000 
     58 H58         1.8493   51.4843   18.4201 H         1 UNK         0.0000 
     59 H59         2.7698   49.3241   19.8044 H         1 UNK         0.0000 
     60 H60         2.5260   48.3237   22.0477 H         1 UNK         0.0000 
     61 H61         1.7957   49.7146   23.9497 H         1 UNK         0.0000 
     62 H62         1.3276   52.1259   23.6329 H         1 UNK         0.0000 
     63 H63         1.6025   53.1477   21.3912 H         1 UNK         0.0000 
     64 H64         3.7104   56.8096   15.2467 H         1 UNK         0.0000 
     65 H65         2.5335   57.8627   15.9753 H         1 UNK         0.0000 
     66 H66         0.3892   55.2727   17.6069 H         1 UNK         0.0000 
     67 H67         0.8746   56.8964   17.4901 H         1 UNK         0.0000 
     68 H68         0.2475   58.0518   14.6777 H         1 UNK         0.0000 
     69 H69        -0.3655   56.9005   13.6128 H         1 UNK         0.0000 
     70 H70        -1.4307   54.5754   16.2882 H         1 UNK         0.0000 
     71 H71        -2.0048   55.4100   14.8575 H         1 UNK         0.0000 
     72 H72        -0.5236   54.5009   14.7774 H         1 UNK         0.0000 
     73 H73        -0.7703   58.3611   16.7570 H         1 UNK         0.0000 
     74 H74        -2.0780   57.7354   15.7646 H         1 UNK         0.0000 
     75 H75        -1.7644   57.0416   17.3514 H         1 UNK         0.0000 
     76 H76         2.7212   55.3340   18.2358 H         1 UNK         0.0000 
     77 H77         4.2393   53.7484   17.3810 H         1 UNK         0.0000 
@<TRIPOS>BOND
     1    1    2 1    
     2    1   37 1    
     3    1   38 1    
     4    1   39 1    
     5    2   30 1    
     6    2   33 1    
     7    2    3 1    
     8    3    4 1    
     9    3   40 1    
    10    3   41 1    
    11    4   10 1    
    12    4    5 2    
    13    5    6 1    
    14    5   29 1    
    15    6    7 1    
    16    6    8 1    
    17    6   13 1    
    18    8    9 1    
    19    8   42 1    
    20    8   43 1    
    21    9   10 1    
    22    9   11 1    
    23    9   12 1    
    24   10   44 1    
    25   10   45 1    
    26   11   46 1    
    27   11   47 1    
    28   11   48 1    
    29   12   49 1    
    30   12   50 1    
    31   12   51 1    
    32   13   14 ar   
    33   13   77 1    
    34   14   15 ar   
    35   14   22 ar   
    36   15   16 1    
    37   15   52 1    
    38   16   21 ar   
    39   16   17 ar   
    40   17   18 ar   
    41   17   53 1    
    42   18   19 ar   
    43   18   54 1    
    44   19   20 ar   
    45   19   55 1    
    46   20   21 ar   
    47   20   56 1    
    48   21   57 1    
    49   22   23 1    
    50   22   58 1    
    51   23   28 ar   
    52   23   24 ar   
    53   24   25 ar   
    54   24   59 1    
    55   25   26 ar   
    56   25   60 1    
    57   26   27 ar   
    58   26   61 1    
    59   27   28 ar   
    60   27   62 1    
    61   28   63 1    
    62   29   30 1    
    63   29   31 1    
    64   29   36 1    
    65   30   64 1    
    66   30   65 1    
    67   31   32 1    
    68   31   66 1    
    69   31   67 1    
    70   32   33 1    
    71   32   34 1    
    72   32   35 1    
    73   33   68 1    
    74   33   69 1    
    75   34   70 1    
    76   34   71 1    
    77   34   72 1    
    78   35   73 1    
    79   35   74 1    
    80   35   75 1    
    81   36   76 1    
@<TRIPOS>SUBSTRUCTURE
     1 UNK         1 GROUP             0       ****    0 ROOT    
