ZINC35455854_1581
                    3D
 Schrodinger Suite 2024-2.
 53 54  0  0  1  0            999 V2000
    5.8244   54.2310   28.7114 C   0  0  0  0  0  0
    4.6358   53.6630   29.5050 C   0  0  0  0  0  0
    3.2599   53.9119   28.8531 C   0  0  2  0  0  0
    3.4522   53.8349   27.7839 H   0  0  0  0  0  0
    2.7649   55.3554   29.1251 C   0  0  0  0  0  0
    2.2245   52.7970   29.2296 C   0  0  2  0  0  0
    2.7149   51.8430   29.0221 H   0  0  0  0  0  0
    0.8799   52.7741   28.4235 C   0  0  1  0  0  0
   -0.0956   53.8952   28.8028 C   0  0  0  0  0  0
    1.1294   52.8019   26.9151 C   0  0  0  0  0  0
    0.7090   51.9282   25.9725 C   0  0  0  0  0  0
    1.0870   51.9651   24.5649 C   0  0  0  0  0  0
    1.8449   52.9474   24.0219 C   0  0  0  0  0  0
    2.4051   52.8543   22.6941 C   0  0  0  0  0  0
    3.2009   53.8332   22.2140 C   0  0  0  0  0  0
    3.9045   53.7657   20.9401 C   0  0  0  0  0  0
    4.7356   54.6300   20.6581 O   0  0  0  0  0  0
    3.5460   52.5905   19.9899 C   0  0  1  0  0  0
    2.2199   51.8468   20.3820 C   0  0  1  0  0  0
    2.2019   50.8827   19.8691 H   0  0  0  0  0  0
    2.1249   51.5743   21.9091 C   0  0  2  0  0  0
    2.9143   50.8681   22.1718 H   0  0  0  0  0  0
    0.7815   50.9803   22.4122 C   0  0  0  0  0  0
    0.7216   50.8613   23.8454 O   0  0  0  0  0  0
    1.0472   52.4967   19.9115 O   0  0  0  0  0  0
    3.5640   53.0631   18.5138 C   0  0  0  0  0  0
    4.6265   51.6967   20.0817 O   0  0  0  0  0  0
    0.1857   51.5762   28.7402 O   0  0  0  0  0  0
    1.9974   52.8061   30.6347 O   0  0  0  0  0  0
    5.9314   53.7297   27.7491 H   0  0  0  0  0  0
    5.7117   55.2963   28.5206 H   0  0  0  0  0  0
    6.7596   54.0960   29.2572 H   0  0  0  0  0  0
    4.8032   52.5933   29.6428 H   0  0  0  0  0  0
    4.6252   54.0964   30.5043 H   0  0  0  0  0  0
    2.1482   55.4140   30.0229 H   0  0  0  0  0  0
    3.5691   56.0629   29.2820 H   0  0  0  0  0  0
    2.1945   55.7435   28.2817 H   0  0  0  0  0  0
    0.3079   54.8947   28.7255 H   0  0  0  0  0  0
   -0.8956   53.8905   28.0819 H   0  0  0  0  0  0
   -0.4973   53.7901   29.8111 H   0  0  0  0  0  0
    1.7267   53.6409   26.6076 H   0  0  0  0  0  0
    0.0734   51.1086   26.2786 H   0  0  0  0  0  0
    2.1304   53.8041   24.6096 H   0  0  0  0  0  0
    3.3812   54.6983   22.8350 H   0  0  0  0  0  0
   -0.0517   51.6116   22.0971 H   0  0  0  0  0  0
    0.6187   49.9964   21.9716 H   0  0  0  0  0  0
    1.1299   53.4467   20.0822 H   0  0  0  0  0  0
    4.5255   53.4910   18.2239 H   0  0  0  0  0  0
    3.3635   52.2362   17.8302 H   0  0  0  0  0  0
    2.8062   53.8248   18.3269 H   0  0  0  0  0  0
    4.7046   51.2185   19.2250 H   0  0  0  0  0  0
   -0.2764   51.6783   29.5757 H   0  0  0  0  0  0
    1.3857   52.0973   30.8515 H   0  0  0  0  0  0
  1  2  1  0  0  0
  1 30  1  0  0  0
  1 31  1  0  0  0
  1 32  1  0  0  0
  2  3  1  0  0  0
  2 33  1  0  0  0
  2 34  1  0  0  0
  3  4  1  0  0  0
  3  5  1  0  0  0
  3  6  1  0  0  0
  5 35  1  0  0  0
  5 36  1  0  0  0
  5 37  1  0  0  0
  6  7  1  0  0  0
  6  8  1  0  0  0
  6 29  1  0  0  0
  8  9  1  0  0  0
  8 10  1  0  0  0
  8 28  1  0  0  0
  9 38  1  0  0  0
  9 39  1  0  0  0
  9 40  1  0  0  0
 10 11  2  0  0  0
 10 41  1  0  0  0
 11 12  1  0  0  0
 11 42  1  0  0  0
 12 24  1  0  0  0
 12 13  2  0  0  0
 13 14  1  0  0  0
 13 43  1  0  0  0
 14 21  1  0  0  0
 14 15  2  0  0  0
 15 16  1  0  0  0
 15 44  1  0  0  0
 16 17  2  0  0  0
 16 18  1  0  0  0
 18 19  1  0  0  0
 18 26  1  0  0  0
 18 27  1  0  0  0
 19 20  1  0  0  0
 19 21  1  0  0  0
 19 25  1  0  0  0
 21 22  1  0  0  0
 21 23  1  0  0  0
 23 24  1  0  0  0
 23 45  1  0  0  0
 23 46  1  0  0  0
 25 47  1  0  0  0
 26 48  1  0  0  0
 26 49  1  0  0  0
 26 50  1  0  0  0
 27 51  1  0  0  0
 28 52  1  0  0  0
 29 53  1  0  0  0
M  END
> <i_i_glide_confnum>
8

> <i_i_glide_lignum>
1582

> <i_i_glide_posenum>
76

> <i_i_glide_rotatable_bonds>
9

> <i_m_Source_File_Index>
2796

> <b_m_subgroup_collapsed>
0

> <r_i_docking_score>
-5.74942

> <r_i_glide_ecoul>
-12.2906

> <r_i_glide_eff_state_penalty>
0

> <r_i_glide_einternal>
10.7546

> <r_i_glide_emodel>
-44.233

> <r_i_glide_energy>
-37.1923

> <r_i_glide_erotb>
0.614638

> <r_i_glide_esite>
-0.0069048

> <r_i_glide_evdw>
-24.9017

> <r_i_glide_gscore>
-5.74942

> <r_i_glide_hbond>
-0.299632

> <r_i_glide_ligand_efficiency>
-0.229977

> <r_i_glide_ligand_efficiency_ln>
-1.36279

> <r_i_glide_ligand_efficiency_sa>
-0.672457

> <r_i_glide_lipo>
-1.96264

> <r_i_glide_metal>
0

> <r_i_glide_rewards>
-1.00621

> <s_i_glide_gridfile>
wee1_glide-grid

> <s_m_Source_File>
wee1_decoys_glide_SP.sdf

> <s_m_Source_Path>
/Users/zhangxujun/Desktop

> <s_m_entry_id>
3071

> <s_m_entry_name>
wee1_decoys_glide_SP.2796

> <s_m_subgroup_title>
wee1_decoys_glide_SP

> <s_m_subgroupid>
wee1_decoys_glide_SP


$$$$
