@<TRIPOS>MOLECULE
ZINC44792805_1694
46   48    1
SMALL
USER_CHARGES


@<TRIPOS>ATOM
      1 C1          3.5300   54.1181   27.8773 C.3       1 UNK         0.0000 
      2 C2          2.6639   54.8152   28.9425 C.3       1 UNK         0.0000 
      3 C3          1.6231   53.8476   29.5371 C.3       1 UNK         0.0000 
      4 C4          0.7362   53.2457   28.4295 C.3       1 UNK         0.0000 
      5 H5          0.1672   54.0581   27.9747 H         1 UNK         0.0000 
      6 C6          1.5843   52.5123   27.3404 C.3       1 UNK         0.0000 
      7 H7          2.1365   51.7075   27.8276 H         1 UNK         0.0000 
      8 C8          2.6735   53.4671   26.7716 C.3       1 UNK         0.0000 
      9 N9          0.6207   51.8357   26.4102 N.am      1 UNK         0.0000 
     10 C10        -0.2642   50.9032   27.1388 C.3       1 UNK         0.0000 
     11 C11        -1.0577   51.6966   28.1898 C.3       1 UNK         0.0000 
     12 O12        -0.1647   52.3539   29.0812 O.3       1 UNK         0.0000 
     13 C13         0.4929   52.0574   25.0604 C.2       1 UNK         0.0000 
     14 O14         1.2301   52.8517   24.4750 O.2       1 UNK         0.0000 
     15 C15        -0.5803   51.2812   24.1822 C.3       1 UNK         0.0000 
     16 C16        -1.9922   51.7757   24.6775 C.3       1 UNK         0.0000 
     17 C17        -2.8962   51.9963   23.4496 C.3       1 UNK         0.0000 
     18 C18        -2.0442   51.6658   22.2258 C.3       1 UNK         0.0000 
     19 C19        -0.6085   51.8352   22.7171 C.3       1 UNK         0.0000 
     20 C20        -0.2359   49.7282   24.1363 C.2       1 UNK         0.0000 
     21 N21        -1.0498   48.7442   24.2044 N.2       1 UNK         0.0000 
     22 O22        -2.4238   49.0270   24.1696 O.3       1 UNK         0.0000 
     23 N23         1.1045   49.4823   23.9549 N.pl3     1 UNK         0.0000 
     24 H24         4.2243   54.8344   27.4355 H         1 UNK         0.0000 
     25 H25         4.1468   53.3528   28.3516 H         1 UNK         0.0000 
     26 H26         2.1565   55.6740   28.4999 H         1 UNK         0.0000 
     27 H27         3.3022   55.2160   29.7285 H         1 UNK         0.0000 
     28 H28         1.0079   54.3833   30.2611 H         1 UNK         0.0000 
     29 H29         2.1525   53.0480   30.0581 H         1 UNK         0.0000 
     30 H30         3.3229   52.9286   26.0804 H         1 UNK         0.0000 
     31 H31         2.2048   54.2748   26.2115 H         1 UNK         0.0000 
     32 H32        -0.8308   50.1544   26.5926 H         1 UNK         0.0000 
     33 H33         0.4338   50.2703   27.6815 H         1 UNK         0.0000 
     34 H34        -1.6954   52.4207   27.6808 H         1 UNK         0.0000 
     35 H35        -1.7288   51.0338   28.7384 H         1 UNK         0.0000 
     36 H36        -1.9292   52.7447   25.1820 H         1 UNK         0.0000 
     37 H37        -2.4561   51.1327   25.4264 H         1 UNK         0.0000 
     38 H38        -3.2286   53.0359   23.4067 H         1 UNK         0.0000 
     39 H39        -3.7973   51.3829   23.4868 H         1 UNK         0.0000 
     40 H40        -2.2686   52.3136   21.3780 H         1 UNK         0.0000 
     41 H41        -2.2145   50.6380   21.9033 H         1 UNK         0.0000 
     42 H42         0.1055   51.3493   22.0494 H         1 UNK         0.0000 
     43 H43        -0.3759   52.8967   22.6716 H         1 UNK         0.0000 
     44 H44        -2.4403   49.9836   24.0699 H         1 UNK         0.0000 
     45 H45         1.4567   48.5327   23.9926 H         1 UNK         0.0000 
     46 H46         1.7677   50.2429   23.9107 H         1 UNK         0.0000 
@<TRIPOS>BOND
     1    1    8 1    
     2    1    2 1    
     3    1   24 1    
     4    1   25 1    
     5    2    3 1    
     6    2   26 1    
     7    2   27 1    
     8    3    4 1    
     9    3   28 1    
    10    3   29 1    
    11    4    5 1    
    12    4   12 1    
    13    4    6 1    
    14    6    7 1    
    15    6    8 1    
    16    6    9 1    
    17    8   30 1    
    18    8   31 1    
    19    9   10 1    
    20    9   13 am   BACKBONE|DICT|INTERRES
    21   10   11 1    
    22   10   32 1    
    23   10   33 1    
    24   11   12 1    
    25   11   34 1    
    26   11   35 1    
    27   13   14 2    
    28   13   15 1    
    29   15   19 1    
    30   15   16 1    
    31   15   20 1    
    32   16   17 1    
    33   16   36 1    
    34   16   37 1    
    35   17   18 1    
    36   17   38 1    
    37   17   39 1    
    38   18   19 1    
    39   18   40 1    
    40   18   41 1    
    41   19   42 1    
    42   19   43 1    
    43   20   21 2    
    44   20   23 1    
    45   21   22 1    
    46   22   44 1    
    47   23   45 1    
    48   23   46 1    
@<TRIPOS>SUBSTRUCTURE
     1 UNK         1 GROUP             0       ****    0 ROOT    
