ZINC39634496_374
                    3D
 Schrodinger Suite 2024-2.
 70 73  0  0  1  0            999 V2000
    5.3450   54.4035   28.2923 C   0  0  0  0  0  0
    5.8279   54.3115   26.9579 O   0  0  0  0  0  0
    4.9315   54.2149   25.9063 C   0  0  0  0  0  0
    3.5365   54.1893   26.0671 C   0  0  0  0  0  0
    2.6950   54.0966   24.9589 C   0  0  0  0  0  0
    3.2184   54.0339   23.6672 C   0  0  0  0  0  0
    4.6063   54.0573   23.5058 C   0  0  0  0  0  0
    5.4695   54.1248   24.6150 C   0  0  0  0  0  0
    6.8485   54.0970   24.5099 O   0  0  0  0  0  0
    7.4337   53.6616   23.2891 C   0  0  0  0  0  0
    2.3101   54.0328   22.4332 C   0  0  0  0  0  0
    1.3689   52.8338   22.2081 C   0  0  0  0  0  0
    0.4359   52.6688   23.3114 N   0  0  0  0  0  0
   -0.8949   52.5002   23.2816 C   0  0  0  0  0  0
   -1.5699   52.4906   22.2522 O   0  0  0  0  0  0
   -1.5057   52.2725   24.6797 C   0  0  1  0  0  0
   -1.1872   53.0975   25.3167 H   0  0  0  0  0  0
   -3.0496   52.2858   24.6518 C   0  0  0  0  0  0
   -3.4005   51.4549   25.8159 N   0  0  0  0  0  0
   -2.2371   50.7247   26.3385 C   0  0  0  0  0  0
   -1.1386   50.8975   25.2713 C   0  0  0  0  0  0
    0.3096   50.8775   25.8519 C   0  0  0  0  0  0
    0.6128   49.5271   26.4815 C   0  0  0  0  0  0
    0.4932   48.4965   25.3465 N   0  3  0  0  0  0
   -0.9252   48.3768   24.7752 C   0  0  0  0  0  0
   -1.2536   49.7508   24.2021 C   0  0  0  0  0  0
   -4.5822   51.6057   26.4714 C   0  0  0  0  0  0
   -5.3894   52.4849   26.1613 O   0  0  0  0  0  0
   -4.9364   50.6632   27.6042 C   0  0  0  0  0  0
   -5.5605   51.1625   28.7539 C   0  0  0  0  0  0
   -5.9277   50.3046   29.7884 C   0  0  0  0  0  0
   -5.6976   48.9286   29.6813 C   0  0  0  0  0  0
   -5.0835   48.4249   28.5320 C   0  0  0  0  0  0
   -4.7253   49.2811   27.4951 C   0  0  0  0  0  0
   -6.1083   47.9820   30.8109 C   0  0  0  0  0  0
   -6.0956   48.5974   31.9947 F   0  0  0  0  0  0
   -7.3453   47.5448   30.5770 F   0  0  0  0  0  0
   -5.2985   46.9228   30.8811 F   0  0  0  0  0  0
    6.1934   54.4873   28.9720 H   0  0  0  0  0  0
    4.7778   53.5140   28.5752 H   0  0  0  0  0  0
    4.7229   55.2903   28.4318 H   0  0  0  0  0  0
    3.0875   54.2542   27.0451 H   0  0  0  0  0  0
    1.6287   54.1193   25.1193 H   0  0  0  0  0  0
    5.0084   54.0274   22.5053 H   0  0  0  0  0  0
    8.4421   53.2965   23.4753 H   0  0  0  0  0  0
    6.8858   52.8140   22.8817 H   0  0  0  0  0  0
    7.4824   54.4677   22.5561 H   0  0  0  0  0  0
    1.6768   54.9091   22.4818 H   0  0  0  0  0  0
    2.9182   54.1687   21.5382 H   0  0  0  0  0  0
    0.8846   52.8900   21.2304 H   0  0  0  0  0  0
    1.9664   51.9213   22.2015 H   0  0  0  0  0  0
    0.8733   52.6294   24.2184 H   0  0  0  0  0  0
   -3.4136   53.3145   24.7028 H   0  0  0  0  0  0
   -3.3992   51.7476   23.7689 H   0  0  0  0  0  0
   -2.3807   49.7013   26.6741 H   0  0  0  0  0  0
   -1.9200   51.2639   27.2332 H   0  0  0  0  0  0
    1.0911   51.0927   25.1216 H   0  0  0  0  0  0
    0.4124   51.6505   26.6162 H   0  0  0  0  0  0
    1.6137   49.4142   26.8819 H   0  0  0  0  0  0
   -0.0956   49.2965   27.2665 H   0  0  0  0  0  0
    1.1622   48.7123   24.6177 H   0  0  0  0  0  0
   -0.8897   47.6017   24.0086 H   0  0  0  0  0  0
   -1.5724   48.0507   25.5910 H   0  0  0  0  0  0
   -2.2606   49.7194   23.7822 H   0  0  0  0  0  0
   -0.6002   49.9180   23.3453 H   0  0  0  0  0  0
   -5.7687   52.2183   28.8498 H   0  0  0  0  0  0
   -6.4046   50.7105   30.6700 H   0  0  0  0  0  0
   -4.8931   47.3666   28.4296 H   0  0  0  0  0  0
   -4.2983   48.8497   26.6020 H   0  0  0  0  0  0
    0.7577   47.5762   25.6820 H   0  0  0  0  0  0
  1  2  1  0  0  0
  1 39  1  0  0  0
  1 40  1  0  0  0
  1 41  1  0  0  0
  2  3  1  0  0  0
  3  8  2  0  0  0
  3  4  1  0  0  0
  4  5  2  0  0  0
  4 42  1  0  0  0
  5  6  1  0  0  0
  5 43  1  0  0  0
  6  7  2  0  0  0
  6 11  1  0  0  0
  7  8  1  0  0  0
  7 44  1  0  0  0
  8  9  1  0  0  0
  9 10  1  0  0  0
 10 45  1  0  0  0
 10 46  1  0  0  0
 10 47  1  0  0  0
 11 12  1  0  0  0
 11 48  1  0  0  0
 11 49  1  0  0  0
 12 13  1  0  0  0
 12 50  1  0  0  0
 12 51  1  0  0  0
 13 14  1  0  0  0
 13 52  1  0  0  0
 14 15  2  0  0  0
 14 16  1  0  0  0
 16 17  1  0  0  0
 16 21  1  0  0  0
 16 18  1  0  0  0
 18 19  1  0  0  0
 18 53  1  0  0  0
 18 54  1  0  0  0
 19 20  1  0  0  0
 19 27  1  0  0  0
 20 21  1  0  0  0
 20 55  1  0  0  0
 20 56  1  0  0  0
 21 26  1  0  0  0
 21 22  1  0  0  0
 22 23  1  0  0  0
 22 57  1  0  0  0
 22 58  1  0  0  0
 23 24  1  0  0  0
 23 59  1  0  0  0
 23 60  1  0  0  0
 24 25  1  0  0  0
 24 61  1  0  0  0
 24 70  1  0  0  0
 25 26  1  0  0  0
 25 62  1  0  0  0
 25 63  1  0  0  0
 26 64  1  0  0  0
 26 65  1  0  0  0
 27 28  2  0  0  0
 27 29  1  0  0  0
 29 34  2  0  0  0
 29 30  1  0  0  0
 30 31  2  0  0  0
 30 66  1  0  0  0
 31 32  1  0  0  0
 31 67  1  0  0  0
 32 33  2  0  0  0
 32 35  1  0  0  0
 33 34  1  0  0  0
 33 68  1  0  0  0
 34 69  1  0  0  0
 35 36  1  0  0  0
 35 37  1  0  0  0
 35 38  1  0  0  0
M  CHG  1  24   1
M  END
> <i_i_glide_confnum>
40

> <i_i_glide_lignum>
375

> <i_i_glide_posenum>
84

> <i_i_glide_rotatable_bonds>
10

> <i_m_Source_File_Index>
91

> <b_m_subgroup_collapsed>
0

> <r_i_docking_score>
-4.53568

> <r_i_glide_ecoul>
-8.2626

> <r_i_glide_eff_state_penalty>
0

> <r_i_glide_einternal>
2.18156

> <r_i_glide_emodel>
-56.4056

> <r_i_glide_energy>
-44.1084

> <r_i_glide_erotb>
0.530889

> <r_i_glide_esite>
-0.0833768

> <r_i_glide_evdw>
-35.8458

> <r_i_glide_gscore>
-4.53568

> <r_i_glide_hbond>
0

> <r_i_glide_ligand_efficiency>
-0.122586

> <r_i_glide_ligand_efficiency_ln>
-0.983682

> <r_i_glide_ligand_efficiency_sa>
-0.408483

> <r_i_glide_lipo>
-1.81437

> <r_i_glide_metal>
0

> <r_i_glide_rewards>
-0.137142

> <s_i_glide_gridfile>
wee1_glide-grid

> <s_m_Source_File>
wee1_decoys_glide_SP.sdf

> <s_m_Source_Path>
/Users/zhangxujun/Desktop

> <s_m_entry_id>
366

> <s_m_entry_name>
wee1_decoys_glide_SP.91

> <s_m_subgroup_title>
wee1_decoys_glide_SP

> <s_m_subgroupid>
wee1_decoys_glide_SP


$$$$
