@<TRIPOS>MOLECULE
ZINC36648091_5716
67   70    1
SMALL
USER_CHARGES


@<TRIPOS>ATOM
      1 C1          5.5257   54.3702   20.7228 C.3       1 UNK         0.0000 
      2 C2          5.5140   54.4491   22.2436 C.ar      1 UNK         0.0000 
      3 C3          6.6530   54.9007   22.9174 C.ar      1 UNK         0.0000 
      4 C4          6.6872   55.0128   24.3075 C.ar      1 UNK         0.0000 
      5 C5          5.5980   54.6660   25.1073 C.ar      1 UNK         0.0000 
      6 C6          4.4508   54.2100   24.4455 C.ar      1 UNK         0.0000 
      7 C7          4.3995   54.0967   23.0315 C.ar      1 UNK         0.0000 
      8 N8          3.2244   53.6215   22.5368 N.2       1 UNK         0.0000 
      9 C9          2.3706   53.2892   23.4707 C.2       1 UNK         0.0000 
     10 S10         2.9104   53.6964   25.1060 S.3       1 UNK         0.0000 
     11 N11         1.1411   52.6438   23.1664 N.am      1 UNK         0.0000 
     12 C12         0.7006   52.7021   21.7505 C.3       1 UNK         0.0000 
     13 C13         1.0658   51.5079   20.8351 C.3       1 UNK         0.0000 
     14 C14         2.5213   51.5052   20.3122 C.3       1 UNK         0.0000 
     15 N15         2.7035   50.5846   19.0758 N.4       1 UNK         0.0000 
     16 C16         2.2703   49.1224   19.3146 C.3       1 UNK         0.0000 
     17 C17         2.0827   51.1667   17.7871 C.3       1 UNK         0.0000 
     18 C18         0.3994   51.9483   24.0986 C.2       1 UNK         0.0000 
     19 O19         0.7276   51.8592   25.2841 O.2       1 UNK         0.0000 
     20 C20        -0.9227   51.2118   23.6839 C.3       1 UNK         0.0000 
     21 H21        -0.8733   50.9970   22.6226 H         1 UNK         0.0000 
     22 C22        -2.1841   52.0642   23.9842 C.3       1 UNK         0.0000 
     23 C23        -2.4636   52.2363   25.4868 C.3       1 UNK         0.0000 
     24 C24        -2.6130   50.8463   26.1439 C.3       1 UNK         0.0000 
     25 C25        -1.4521   49.8726   25.8252 C.3       1 UNK         0.0000 
     26 N26        -1.0044   49.8893   24.3965 N.pl3     1 UNK         0.0000 
     27 S27        -1.2059   48.4054   23.4449 S.o2      1 UNK         0.0000 
     28 O28        -0.5946   48.5768   22.1209 O.2       1 UNK         0.0000 
     29 O29        -0.8958   47.2445   24.2873 O.2       1 UNK         0.0000 
     30 C30        -2.9931   48.4150   23.1987 C.2       1 UNK         0.0000 
     31 C31        -3.6502   48.8925   22.0723 C.2       1 UNK         0.0000 
     32 C32        -5.0412   48.7567   22.1673 C.2       1 UNK         0.0000 
     33 C33        -5.4365   48.1596   23.3555 C.2       1 UNK         0.0000 
     34 S34        -4.0881   47.7464   24.3678 S.3       1 UNK         0.0000 
     35 C35         5.6934   54.7830   26.6172 C.3       1 UNK         0.0000 
     36 H36         5.4648   53.3335   20.3916 H         1 UNK         0.0000 
     37 H37         6.4192   54.8212   20.2907 H         1 UNK         0.0000 
     38 H38         4.6611   54.8939   20.3120 H         1 UNK         0.0000 
     39 H39         7.5333   55.1836   22.3581 H         1 UNK         0.0000 
     40 H40         7.5873   55.3801   24.7668 H         1 UNK         0.0000 
     41 H41        -0.3713   52.8898   21.7113 H         1 UNK         0.0000 
     42 H42         1.1092   53.6013   21.2905 H         1 UNK         0.0000 
     43 H43         0.8679   50.5656   21.3409 H         1 UNK         0.0000 
     44 H44         0.3794   51.5456   19.9922 H         1 UNK         0.0000 
     45 H45         2.8534   52.4919   19.9796 H         1 UNK         0.0000 
     46 H46         3.2258   51.1376   21.0611 H         1 UNK         0.0000 
     47 H47         1.1805   49.0853   19.3540 H         1 UNK         0.0000 
     48 H48         2.6645   48.5363   18.4795 H         1 UNK         0.0000 
     49 H49         2.7029   48.7953   20.2590 H         1 UNK         0.0000 
     50 H50         0.9997   51.2284   17.8982 H         1 UNK         0.0000 
     51 H51         2.5279   52.1518   17.6282 H         1 UNK         0.0000 
     52 H52         2.3407   50.4997   16.9632 H         1 UNK         0.0000 
     53 H53        -2.1995   52.9910   23.4095 H         1 UNK         0.0000 
     54 H54        -3.0429   51.5111   23.5967 H         1 UNK         0.0000 
     55 H55        -1.6650   52.8025   25.9699 H         1 UNK         0.0000 
     56 H56        -3.3752   52.8162   25.6332 H         1 UNK         0.0000 
     57 H57        -2.7154   50.9453   27.2266 H         1 UNK         0.0000 
     58 H58        -3.5475   50.3939   25.8077 H         1 UNK         0.0000 
     59 H59        -0.5838   50.0495   26.4596 H         1 UNK         0.0000 
     60 H60        -1.7557   48.8560   26.0824 H         1 UNK         0.0000 
     61 H61        -3.1440   49.3261   21.2213 H         1 UNK         0.0000 
     62 H62        -5.7304   49.0773   21.3965 H         1 UNK         0.0000 
     63 H63        -6.4426   47.9331   23.6821 H         1 UNK         0.0000 
     64 H64         5.7074   53.7907   27.0692 H         1 UNK         0.0000 
     65 H65         6.5767   55.3349   26.9424 H         1 UNK         0.0000 
     66 H66         4.8121   55.2955   27.0039 H         1 UNK         0.0000 
     67 H67         3.7024   50.5406   18.8678 H         1 UNK         0.0000 
@<TRIPOS>BOND
     1    1    2 1    
     2    1   36 1    
     3    1   37 1    
     4    1   38 1    
     5    2    7 ar   
     6    2    3 ar   
     7    3    4 ar   
     8    3   39 1    
     9    4    5 ar   
    10    4   40 1    
    11    5    6 ar   
    12    5   35 1    
    13    6   10 1    
    14    6    7 ar   
    15    7    8 1    
    16    8    9 2    
    17    9   10 1    
    18    9   11 am   BACKBONE|DICT|INTERRES
    19   11   12 1    
    20   11   18 am   BACKBONE|DICT|INTERRES
    21   12   13 1    
    22   12   41 1    
    23   12   42 1    
    24   13   14 1    
    25   13   43 1    
    26   13   44 1    
    27   14   15 1    
    28   14   45 1    
    29   14   46 1    
    30   15   16 1    
    31   15   17 1    
    32   15   67 1    
    33   16   47 1    
    34   16   48 1    
    35   16   49 1    
    36   17   50 1    
    37   17   51 1    
    38   17   52 1    
    39   18   19 2    
    40   18   20 1    
    41   20   21 1    
    42   20   26 1    
    43   20   22 1    
    44   22   23 1    
    45   22   53 1    
    46   22   54 1    
    47   23   24 1    
    48   23   55 1    
    49   23   56 1    
    50   24   25 1    
    51   24   57 1    
    52   24   58 1    
    53   25   26 1    
    54   25   59 1    
    55   25   60 1    
    56   26   27 1    
    57   27   28 2    
    58   27   29 2    
    59   27   30 1    
    60   30   34 1    
    61   30   31 2    
    62   31   32 1    
    63   31   61 1    
    64   32   33 2    
    65   32   62 1    
    66   33   34 1    
    67   33   63 1    
    68   35   64 1    
    69   35   65 1    
    70   35   66 1    
@<TRIPOS>SUBSTRUCTURE
     1 UNK         1 GROUP             0       ****    0 ROOT    
