ZINC64416857_911
                    3D
 Schrodinger Suite 2024-2.
 67 71  0  0  1  0            999 V2000
    4.8474   55.6177   25.4052 C   0  0  0  0  0  0
    5.6215   54.4434   26.0334 C   0  0  0  0  0  0
    6.3839   54.9167   27.2824 C   0  0  0  0  0  0
    4.6663   53.3112   26.4471 C   0  0  0  0  0  0
    6.6748   53.9697   25.1786 O   0  0  0  0  0  0
    6.6610   53.6968   23.8333 C   0  0  0  0  0  0
    7.6738   53.2967   23.2817 O   0  0  0  0  0  0
    5.4240   53.8708   23.2122 N   0  0  0  0  0  0
    5.2207   53.8552   21.7454 C   0  0  1  0  0  0
    5.5070   52.8700   21.3721 H   0  0  0  0  0  0
    3.7190   54.0518   21.3926 C   0  0  0  0  0  0
    2.8712   52.8928   21.8901 C   0  0  0  0  0  0
    2.6169   51.7006   21.3248 C   0  0  0  0  0  0
    3.0958   51.1201   20.0634 C   0  0  0  0  0  0
    2.7044   49.8890   19.6817 C   0  0  0  0  0  0
    1.8223   49.1438   20.5676 C   0  0  0  0  0  0
    1.3760   49.6635   21.7423 C   0  0  0  0  0  0
    1.7539   50.9549   22.1326 C   0  0  0  0  0  0
    1.4176   51.6396   23.1991 N   0  3  0  0  0  0
    2.0439   52.9736   23.1576 C   0  0  0  0  0  0
    6.0455   54.9612   21.0654 C   0  0  0  0  0  0
    6.6464   55.8559   21.6752 O   0  0  0  0  0  0
    6.0397   54.8193   19.7084 O   0  0  0  0  0  0
    6.7951   55.6862   18.9515 C   0  0  0  0  0  0
    6.3052   56.9541   18.6167 C   0  0  0  0  0  0
    7.0880   57.8389   17.8759 C   0  0  0  0  0  0
    8.3559   57.4489   17.4431 C   0  0  0  0  0  0
    8.8677   56.1873   17.7945 C   0  0  0  0  0  0
    8.0664   55.2969   18.5198 C   0  0  0  0  0  0
   10.2091   55.7076   17.2820 C   0  0  0  0  0  0
   10.5760   54.5307   17.2803 O   0  0  0  0  0  0
   10.9729   56.7037   16.7572 N   0  0  0  0  0  0
   12.2733   56.5147   16.1092 C   0  0  0  0  0  0
   12.7520   57.9523   15.8751 C   0  0  0  0  0  0
   11.4808   58.7929   15.8540 C   0  0  0  0  0  0
   10.6100   58.1307   16.9198 C   0  0  1  0  0  0
   10.9409   58.4579   17.9092 H   0  0  0  0  0  0
    9.1714   58.3587   16.7513 N   0  0  0  0  0  0
    5.5223   56.3722   24.9997 H   0  0  0  0  0  0
    4.1656   55.2967   24.6228 H   0  0  0  0  0  0
    4.1693   56.0967   26.0817 H   0  0  0  0  0  0
    5.7107   55.2968   28.0505 H   0  0  0  0  0  0
    6.9537   54.1031   27.7348 H   0  0  0  0  0  0
    7.1025   55.6967   27.0424 H   0  0  0  0  0  0
    4.1277   52.8970   25.6014 H   0  0  0  0  0  0
    5.2148   52.4969   26.9188 H   0  0  0  0  0  0
    3.9230   53.6586   27.1655 H   0  0  0  0  0  0
    4.6114   53.7454   23.7920 H   0  0  0  0  0  0
    3.3222   54.9824   21.7982 H   0  0  0  0  0  0
    3.5756   54.1055   20.3109 H   0  0  0  0  0  0
    3.7686   51.6539   19.4038 H   0  0  0  0  0  0
    3.0643   49.4628   18.7528 H   0  0  0  0  0  0
    1.5272   48.1442   20.2826 H   0  0  0  0  0  0
    0.7300   49.0618   22.3653 H   0  0  0  0  0  0
    2.6207   53.1037   24.0695 H   0  0  0  0  0  0
    1.2511   53.7218   23.1106 H   0  0  0  0  0  0
    5.3217   57.2581   18.9431 H   0  0  0  0  0  0
    6.7044   58.8223   17.6385 H   0  0  0  0  0  0
    8.4296   54.3092   18.7725 H   0  0  0  0  0  0
   12.9789   55.9815   16.7487 H   0  0  0  0  0  0
   12.1492   56.0037   15.1533 H   0  0  0  0  0  0
   13.3806   58.2666   16.7103 H   0  0  0  0  0  0
   13.3516   58.0500   14.9694 H   0  0  0  0  0  0
   11.6690   59.8465   16.0632 H   0  0  0  0  0  0
   11.0100   58.7282   14.8706 H   0  0  0  0  0  0
    8.8407   59.2837   16.5169 H   0  0  0  0  0  0
    0.8007   51.3142   23.9395 H   0  0  0  0  0  0
  1  2  1  0  0  0
  1 39  1  0  0  0
  1 40  1  0  0  0
  1 41  1  0  0  0
  2  3  1  0  0  0
  2  4  1  0  0  0
  2  5  1  0  0  0
  3 42  1  0  0  0
  3 43  1  0  0  0
  3 44  1  0  0  0
  4 45  1  0  0  0
  4 46  1  0  0  0
  4 47  1  0  0  0
  5  6  1  0  0  0
  6  7  2  0  0  0
  6  8  1  0  0  0
  8  9  1  0  0  0
  8 48  1  0  0  0
  9 10  1  0  0  0
  9 11  1  0  0  0
  9 21  1  0  0  0
 11 12  1  0  0  0
 11 49  1  0  0  0
 11 50  1  0  0  0
 12 20  1  0  0  0
 12 13  2  0  0  0
 13 18  1  0  0  0
 13 14  1  0  0  0
 14 15  2  0  0  0
 14 51  1  0  0  0
 15 16  1  0  0  0
 15 52  1  0  0  0
 16 17  2  0  0  0
 16 53  1  0  0  0
 17 18  1  0  0  0
 17 54  1  0  0  0
 18 19  2  0  0  0
 19 20  1  0  0  0
 19 67  1  0  0  0
 20 55  1  0  0  0
 20 56  1  0  0  0
 21 22  2  0  0  0
 21 23  1  0  0  0
 23 24  1  0  0  0
 24 29  2  0  0  0
 24 25  1  0  0  0
 25 26  2  0  0  0
 25 57  1  0  0  0
 26 27  1  0  0  0
 26 58  1  0  0  0
 27 38  1  0  0  0
 27 28  2  0  0  0
 28 29  1  0  0  0
 28 30  1  0  0  0
 29 59  1  0  0  0
 30 31  2  0  0  0
 30 32  1  0  0  0
 32 36  1  0  0  0
 32 33  1  0  0  0
 33 34  1  0  0  0
 33 60  1  0  0  0
 33 61  1  0  0  0
 34 35  1  0  0  0
 34 62  1  0  0  0
 34 63  1  0  0  0
 35 36  1  0  0  0
 35 64  1  0  0  0
 35 65  1  0  0  0
 36 37  1  0  0  0
 36 38  1  0  0  0
 38 66  1  0  0  0
M  CHG  1  19   1
M  END
> <i_i_glide_confnum>
84

> <i_i_glide_lignum>
912

> <i_i_glide_posenum>
143

> <i_i_glide_rotatable_bonds>
9

> <i_m_Source_File_Index>
3985

> <b_m_subgroup_collapsed>
0

> <r_i_docking_score>
-1.25895

> <r_i_glide_ecoul>
-3.2257

> <r_i_glide_eff_state_penalty>
0

> <r_i_glide_einternal>
4.27377

> <r_i_glide_emodel>
-29.9889

> <r_i_glide_energy>
-36.5937

> <r_i_glide_erotb>
0.505526

> <r_i_glide_esite>
-0.0129982

> <r_i_glide_evdw>
-33.368

> <r_i_glide_gscore>
-1.25895

> <r_i_glide_hbond>
0

> <r_i_glide_ligand_efficiency>
-0.034971

> <r_i_glide_ligand_efficiency_ln>
-0.27467

> <r_i_glide_ligand_efficiency_sa>
-0.115472

> <r_i_glide_lipo>
-1.64306

> <r_i_glide_metal>
0

> <r_i_glide_rewards>
2.04384

> <s_i_glide_gridfile>
wee1_glide-grid

> <s_m_Source_File>
wee1_decoys_glide_SP.sdf

> <s_m_Source_Path>
/Users/zhangxujun/Desktop

> <s_m_entry_id>
4260

> <s_m_entry_name>
wee1_decoys_glide_SP.3985

> <s_m_subgroup_title>
wee1_decoys_glide_SP

> <s_m_subgroupid>
wee1_decoys_glide_SP


$$$$
