ZINC23181319_5301
                    3D
 Schrodinger Suite 2024-2.
 63 66  0  0  1  0            999 V2000
    0.7044   48.9024   25.0300 C   0  0  0  0  0  0
   -0.6636   49.5703   25.2020 C   0  0  1  0  0  0
   -0.5772   50.2556   26.0460 H   0  0  0  0  0  0
   -1.1062   50.4146   23.9489 C   0  0  1  0  0  0
   -1.0534   49.7286   23.1020 H   0  0  0  0  0  0
   -2.5621   50.8656   24.0453 C   0  0  0  0  0  0
   -3.6640   50.3670   23.3458 C   0  0  0  0  0  0
   -4.8871   50.9458   23.6900 C   0  0  0  0  0  0
   -4.7556   51.9142   24.6655 C   0  0  0  0  0  0
   -3.1094   52.0914   25.1676 S   0  0  0  0  0  0
   -0.2609   51.5893   23.6237 N   0  0  0  0  0  0
    0.6262   51.3887   22.4662 C   0  0  0  0  0  0
    1.5915   52.5703   22.1313 C   0  0  0  0  0  0
    1.9807   53.4954   23.2173 N   0  0  0  0  0  0
    0.8604   53.6741   24.1489 C   0  0  0  0  0  0
    0.3802   52.3256   24.7140 C   0  0  0  0  0  0
    3.3121   53.8286   23.4937 C   0  0  0  0  0  0
    3.7499   54.0105   24.8189 C   0  0  0  0  0  0
    5.0751   54.3383   25.1118 C   0  0  0  0  0  0
    5.9969   54.4971   24.0809 C   0  0  0  0  0  0
    5.5832   54.3549   22.7598 C   0  0  0  0  0  0
    4.2551   54.0422   22.4645 C   0  0  0  0  0  0
    3.9047   53.9644   21.1594 F   0  0  0  0  0  0
   -1.6136   48.5574   25.6817 N   0  0  0  0  0  0
   -2.2214   47.5725   24.9741 C   0  0  0  0  0  0
   -2.0514   47.4269   23.7606 O   0  0  0  0  0  0
   -3.1314   46.6438   25.7364 C   0  0  0  0  0  0
   -3.6954   45.6967   25.1759 O   0  0  0  0  0  0
   -3.2956   46.8966   27.0545 N   0  0  0  0  0  0
   -4.0212   46.0627   28.0023 C   0  0  0  0  0  0
   -5.1001   46.8132   28.7651 C   0  0  0  0  0  0
   -6.4471   46.6450   28.4338 C   0  0  0  0  0  0
   -7.4295   47.2927   29.1802 C   0  0  0  0  0  0
   -7.0619   48.1010   30.2541 C   0  0  0  0  0  0
   -5.7206   48.2688   30.5884 C   0  0  0  0  0  0
   -4.7384   47.6179   29.8478 C   0  0  0  0  0  0
   -8.0142   48.7253   30.9814 F   0  0  0  0  0  0
    1.4619   49.5982   24.6808 H   0  0  0  0  0  0
    1.0772   48.4973   25.9719 H   0  0  0  0  0  0
    0.6718   48.0985   24.2945 H   0  0  0  0  0  0
   -3.5780   49.5797   22.6114 H   0  0  0  0  0  0
   -5.8304   50.6655   23.2437 H   0  0  0  0  0  0
   -5.5345   52.5170   25.1097 H   0  0  0  0  0  0
    1.3194   50.6073   22.7841 H   0  0  0  0  0  0
    0.0969   51.0520   21.5726 H   0  0  0  0  0  0
    1.0734   53.2225   21.4278 H   0  0  0  0  0  0
    2.4513   52.1768   21.5908 H   0  0  0  0  0  0
    0.0400   54.2157   23.6817 H   0  0  0  0  0  0
    1.1565   54.3103   24.9780 H   0  0  0  0  0  0
   -0.3459   52.5274   25.5006 H   0  0  0  0  0  0
    1.2226   51.7883   25.1516 H   0  0  0  0  0  0
    3.0787   53.8585   25.6486 H   0  0  0  0  0  0
    5.3877   54.4494   26.1398 H   0  0  0  0  0  0
    7.0270   54.7410   24.3015 H   0  0  0  0  0  0
    6.2885   54.5012   21.9541 H   0  0  0  0  0  0
   -1.6993   48.5362   26.6965 H   0  0  0  0  0  0
   -2.7460   47.6350   27.4982 H   0  0  0  0  0  0
   -3.2848   45.6971   28.7196 H   0  0  0  0  0  0
   -4.4437   45.1669   27.5415 H   0  0  0  0  0  0
   -6.7356   46.0177   27.6026 H   0  0  0  0  0  0
   -8.4729   47.1709   28.9316 H   0  0  0  0  0  0
   -5.4432   48.8966   31.4210 H   0  0  0  0  0  0
   -3.6958   47.7423   30.1079 H   0  0  0  0  0  0
  1  2  1  0  0  0
  1 38  1  0  0  0
  1 39  1  0  0  0
  1 40  1  0  0  0
  2  3  1  0  0  0
  2  4  1  0  0  0
  2 24  1  0  0  0
  4  5  1  0  0  0
  4  6  1  0  0  0
  4 11  1  0  0  0
  6 10  1  0  0  0
  6  7  2  0  0  0
  7  8  1  0  0  0
  7 41  1  0  0  0
  8  9  2  0  0  0
  8 42  1  0  0  0
  9 10  1  0  0  0
  9 43  1  0  0  0
 11 16  1  0  0  0
 11 12  1  0  0  0
 12 13  1  0  0  0
 12 44  1  0  0  0
 12 45  1  0  0  0
 13 14  1  0  0  0
 13 46  1  0  0  0
 13 47  1  0  0  0
 14 15  1  0  0  0
 14 17  1  0  0  0
 15 16  1  0  0  0
 15 48  1  0  0  0
 15 49  1  0  0  0
 16 50  1  0  0  0
 16 51  1  0  0  0
 17 22  2  0  0  0
 17 18  1  0  0  0
 18 19  2  0  0  0
 18 52  1  0  0  0
 19 20  1  0  0  0
 19 53  1  0  0  0
 20 21  2  0  0  0
 20 54  1  0  0  0
 21 22  1  0  0  0
 21 55  1  0  0  0
 22 23  1  0  0  0
 24 25  1  0  0  0
 24 56  1  0  0  0
 25 26  2  0  0  0
 25 27  1  0  0  0
 27 28  2  0  0  0
 27 29  1  0  0  0
 29 30  1  0  0  0
 29 57  1  0  0  0
 30 31  1  0  0  0
 30 58  1  0  0  0
 30 59  1  0  0  0
 31 36  2  0  0  0
 31 32  1  0  0  0
 32 33  2  0  0  0
 32 60  1  0  0  0
 33 34  1  0  0  0
 33 61  1  0  0  0
 34 35  2  0  0  0
 34 37  1  0  0  0
 35 36  1  0  0  0
 35 62  1  0  0  0
 36 63  1  0  0  0
M  END
> <i_i_glide_confnum>
106

> <i_i_glide_lignum>
5302

> <i_i_glide_posenum>
184

> <i_i_glide_rotatable_bonds>
10

> <i_m_Source_File_Index>
5194

> <b_m_subgroup_collapsed>
0

> <r_i_docking_score>
-6.32399

> <r_i_glide_ecoul>
-14.2263

> <r_i_glide_eff_state_penalty>
0

> <r_i_glide_einternal>
11.5237

> <r_i_glide_emodel>
-68.113

> <r_i_glide_energy>
-50.5244

> <r_i_glide_erotb>
0.738818

> <r_i_glide_esite>
-0.360245

> <r_i_glide_evdw>
-36.2981

> <r_i_glide_gscore>
-6.32399

> <r_i_glide_hbond>
-0.456

> <r_i_glide_ligand_efficiency>
-0.180686

> <r_i_glide_ligand_efficiency_ln>
-1.38826

> <r_i_glide_ligand_efficiency_sa>
-0.591034

> <r_i_glide_lipo>
-1.92511

> <r_i_glide_metal>
0

> <r_i_glide_rewards>
-0.372598

> <s_i_glide_gridfile>
wee1_glide-grid

> <s_m_Source_File>
wee1_decoys_glide_SP.sdf

> <s_m_Source_Path>
/Users/zhangxujun/Desktop

> <s_m_entry_id>
5469

> <s_m_entry_name>
wee1_decoys_glide_SP.5194

> <s_m_subgroup_title>
wee1_decoys_glide_SP

> <s_m_subgroupid>
wee1_decoys_glide_SP


$$$$
