@<TRIPOS>MOLECULE
ZINC39684221_2932
73   78    1
SMALL
USER_CHARGES


@<TRIPOS>ATOM
      1 C1          1.3612   45.4287   15.9891 C.3       1 UNK         0.0000 
      2 C2          0.7063   45.8878   17.2795 C.ar      1 UNK         0.0000 
      3 C3         -0.2756   45.0846   17.8718 C.ar      1 UNK         0.0000 
      4 C4         -0.9166   45.4378   19.0552 C.ar      1 UNK         0.0000 
      5 C5         -0.6018   46.6216   19.7168 C.ar      1 UNK         0.0000 
      6 C6          0.3809   47.4665   19.1783 C.ar      1 UNK         0.0000 
      7 C7          0.9531   48.7232   19.5973 C.ar      1 UNK         0.0000 
      8 C8          1.8964   49.0337   18.6349 C.ar      1 UNK         0.0000 
      9 N9          1.9044   48.0798   17.6580 N.pl3     1 UNK         0.0000 
     10 C10         1.0104   47.0790   17.9558 C.ar      1 UNK         0.0000 
     11 C11         0.6041   49.4896   20.8545 C.3       1 UNK         0.0000 
     12 C12         1.0926   50.9565   20.8631 C.3       1 UNK         0.0000 
     13 N13         0.8858   51.5804   22.1654 N.am      1 UNK         0.0000 
     14 C14        -0.2940   52.0294   22.6335 C.2       1 UNK         0.0000 
     15 O15        -1.3027   52.0968   21.9302 O.2       1 UNK         0.0000 
     16 C16        -0.4223   52.3537   24.1432 C.3       1 UNK         0.0000 
     17 H17        -1.1238   53.1854   24.2259 H         1 UNK         0.0000 
     18 C18         0.9117   52.8550   24.7314 C.3       1 UNK         0.0000 
     19 N19         0.8275   52.4971   26.1528 N.am      1 UNK         0.0000 
     20 C20        -0.3499   51.6622   26.4230 C.3       1 UNK         0.0000 
     21 C21        -0.8193   51.1495   25.0376 C.3       1 UNK         0.0000 
     22 C22        -0.0933   49.8181   24.6452 C.3       1 UNK         0.0000 
     23 C23        -0.3917   48.6630   25.6157 C.3       1 UNK         0.0000 
     24 N24        -1.9207   48.4562   25.6817 N.4       1 UNK         0.0000 
     25 C25        -2.7265   49.7430   25.9802 C.3       1 UNK         0.0000 
     26 C26        -2.3285   50.8198   24.9531 C.3       1 UNK         0.0000 
     27 C27         1.6660   52.8933   27.1530 C.2       1 UNK         0.0000 
     28 O28         1.4309   52.6435   28.3379 O.2       1 UNK         0.0000 
     29 C29         2.9145   53.5601   26.8205 C.2       1 UNK         0.0000 
     30 C30         3.9202   54.0607   27.6393 C.2       1 UNK         0.0000 
     31 C31         4.9514   54.4968   26.8026 C.2       1 UNK         0.0000 
     32 C32         4.5434   54.2718   25.4924 C.2       1 UNK         0.0000 
     33 O33         3.3139   53.6972   25.5301 O.3       1 UNK         0.0000 
     34 C34         5.1365   54.4940   24.1344 C.ar      1 UNK         0.0000 
     35 C35         4.4229   54.0965   22.9917 C.ar      1 UNK         0.0000 
     36 C36         4.9485   54.2925   21.7153 C.ar      1 UNK         0.0000 
     37 C37         6.1937   54.8968   21.5618 C.ar      1 UNK         0.0000 
     38 C38         6.9142   55.2953   22.6850 C.ar      1 UNK         0.0000 
     39 C39         6.3925   55.0949   23.9672 C.ar      1 UNK         0.0000 
     40 F40         7.1043   55.5067   25.0399 F         1 UNK         0.0000 
     41 H41         2.4372   45.3194   16.1310 H         1 UNK         0.0000 
     42 H42         0.9683   44.4733   15.6376 H         1 UNK         0.0000 
     43 H43         1.1980   46.1670   15.2041 H         1 UNK         0.0000 
     44 H44        -0.5567   44.1564   17.3971 H         1 UNK         0.0000 
     45 H45        -1.6752   44.7850   19.4644 H         1 UNK         0.0000 
     46 H46        -1.1039   46.8849   20.6356 H         1 UNK         0.0000 
     47 H47         2.5854   49.8650   18.5469 H         1 UNK         0.0000 
     48 H48         2.5577   48.1472   16.8821 H         1 UNK         0.0000 
     49 H49        -0.4787   49.4847   20.9909 H         1 UNK         0.0000 
     50 H50         1.0224   48.9608   21.7128 H         1 UNK         0.0000 
     51 H51         2.1635   50.9908   20.6572 H         1 UNK         0.0000 
     52 H52         0.6158   51.5309   20.0649 H         1 UNK         0.0000 
     53 H53         1.6786   51.5733   22.7860 H         1 UNK         0.0000 
     54 H54         1.7560   52.2821   24.3490 H         1 UNK         0.0000 
     55 H55         1.0340   53.9272   24.5644 H         1 UNK         0.0000 
     56 H56        -1.1201   52.3262   26.8185 H         1 UNK         0.0000 
     57 H57        -0.2140   50.8794   27.1691 H         1 UNK         0.0000 
     58 H58        -0.3422   49.5058   23.6312 H         1 UNK         0.0000 
     59 H59         0.9868   49.9686   24.6426 H         1 UNK         0.0000 
     60 H60         0.0322   47.7128   25.2813 H         1 UNK         0.0000 
     61 H61        -0.0556   48.8417   26.6365 H         1 UNK         0.0000 
     62 H62        -2.2527   48.0300   24.8300 H         1 UNK         0.0000 
     63 H63        -3.7810   49.4676   25.9171 H         1 UNK         0.0000 
     64 H64        -2.4971   50.0241   27.0108 H         1 UNK         0.0000 
     65 H65        -2.9040   51.7184   25.1795 H         1 UNK         0.0000 
     66 H66        -2.6218   50.5405   23.9383 H         1 UNK         0.0000 
     67 H67         3.9164   54.0816   28.7193 H         1 UNK         0.0000 
     68 H68         5.8887   54.9282   27.1240 H         1 UNK         0.0000 
     69 H69         3.4521   53.6330   23.0807 H         1 UNK         0.0000 
     70 H70         4.3853   53.9832   20.8461 H         1 UNK         0.0000 
     71 H71         6.6001   55.0502   20.5731 H         1 UNK         0.0000 
     72 H72         7.8873   55.7550   22.5615 H         1 UNK         0.0000 
     73 H73        -2.0907   47.8117   26.4460 H         1 UNK         0.0000 
@<TRIPOS>BOND
     1    1   41 1    
     2    1   42 1    
     3    1   43 1    
     4    1    2 1    
     5    2   10 ar   
     6    2    3 ar   
     7    3   44 1    
     8    3    4 ar   
     9    4   45 1    
    10    4    5 ar   
    11    5   46 1    
    12    5    6 ar   
    13    6   10 ar   
    14    6    7 ar   
    15    7   11 1    
    16    7    8 ar   
    17    8    9 ar   
    18    8   47 1    
    19    9   48 1    
    20    9   10 ar   
    21   11   12 1    
    22   11   49 1    
    23   11   50 1    
    24   12   13 1    
    25   12   51 1    
    26   12   52 1    
    27   13   14 am   BACKBONE|DICT|INTERRES
    28   13   53 1    
    29   14   15 2    
    30   14   16 1    
    31   16   17 1    
    32   16   21 1    
    33   16   18 1    
    34   18   19 1    
    35   18   54 1    
    36   18   55 1    
    37   19   20 1    
    38   19   27 am   BACKBONE|DICT|INTERRES
    39   20   21 1    
    40   20   56 1    
    41   20   57 1    
    42   21   26 1    
    43   21   22 1    
    44   22   23 1    
    45   22   58 1    
    46   22   59 1    
    47   23   24 1    
    48   23   60 1    
    49   23   61 1    
    50   24   25 1    
    51   24   62 1    
    52   24   73 1    
    53   25   26 1    
    54   25   63 1    
    55   25   64 1    
    56   26   65 1    
    57   26   66 1    
    58   27   28 2    
    59   27   29 1    
    60   29   33 1    
    61   29   30 2    
    62   30   31 1    
    63   30   67 1    
    64   31   32 2    
    65   31   68 1    
    66   32   33 1    
    67   32   34 1    
    68   34   39 ar   
    69   34   35 ar   
    70   35   36 ar   
    71   35   69 1    
    72   36   37 ar   
    73   36   70 1    
    74   37   38 ar   
    75   37   71 1    
    76   38   39 ar   
    77   38   72 1    
    78   39   40 1    
@<TRIPOS>SUBSTRUCTURE
     1 UNK         1 GROUP             0       ****    0 ROOT    
