ZINC10075313_5825
                    3D
 Schrodinger Suite 2024-2.
 61 65  0  0  1  0            999 V2000
    1.4758   48.8286   16.7782 C   0  0  0  0  0  0
    0.0852   48.7891   17.0876 O   0  0  0  0  0  0
   -0.3245   49.0800   18.3744 C   0  0  0  0  0  0
    0.5400   49.4591   19.4130 C   0  0  0  0  0  0
    0.0344   49.7215   20.6836 C   0  0  0  0  0  0
   -1.3376   49.6082   20.9354 C   0  0  0  0  0  0
   -2.1989   49.2320   19.9004 C   0  0  0  0  0  0
   -1.6922   48.9750   18.6292 C   0  0  0  0  0  0
   -1.8786   49.8516   22.3468 C   0  0  2  0  0  0
   -1.0235   50.2473   22.9032 H   0  0  0  0  0  0
   -2.2990   48.5326   23.0336 C   0  0  0  0  0  0
   -2.6333   48.9013   24.4718 C   0  0  0  0  0  0
   -3.2255   50.0615   24.8464 C   0  0  0  0  0  0
   -3.4912   50.4796   26.3067 C   0  0  2  0  0  0
   -3.4631   49.6060   26.9634 H   0  0  0  0  0  0
   -4.8937   51.1563   26.3655 C   0  0  0  0  0  0
   -5.0676   52.2600   25.2873 C   0  0  0  0  0  0
   -5.7770   53.2274   25.5586 O   0  0  0  0  0  0
   -4.4115   52.0175   24.0851 N   0  0  0  0  0  0
   -3.6025   51.0502   23.8428 C   0  0  0  0  0  0
   -3.0146   50.9189   22.4215 C   0  0  0  0  0  0
   -2.3748   51.4229   26.8476 C   0  0  0  0  0  0
   -2.3250   52.6027   26.4810 O   0  0  0  0  0  0
   -1.4567   50.8968   27.6784 N   0  0  0  0  0  0
   -0.2844   51.5748   28.0234 C   0  0  0  0  0  0
   -0.1070   52.0935   29.3068 C   0  0  0  0  0  0
    1.0628   52.7940   29.6056 C   0  0  0  0  0  0
    2.0561   52.9698   28.6362 C   0  0  0  0  0  0
    1.8671   52.4188   27.3608 C   0  0  0  0  0  0
    0.7056   51.7252   27.0544 C   0  0  0  0  0  0
    3.1966   53.6651   29.0024 O   0  0  0  0  0  0
    4.2097   53.9277   28.1014 C   0  0  0  0  0  0
    5.4897   53.4607   28.3832 C   0  0  0  0  0  0
    6.5375   53.6968   27.4980 C   0  0  0  0  0  0
    6.3029   54.4119   26.3261 C   0  0  0  0  0  0
    5.0291   54.8949   26.0377 C   0  0  0  0  0  0
    3.9862   54.6573   26.9304 C   0  0  0  0  0  0
   -2.2744   47.9708   25.2813 O   0  5  0  0  0  0
    2.0341   48.1075   17.3771 H   0  0  0  0  0  0
    1.6236   48.5672   15.7309 H   0  0  0  0  0  0
    1.8954   49.8247   16.9277 H   0  0  0  0  0  0
    1.6047   49.5495   19.2528 H   0  0  0  0  0  0
    0.7182   50.0016   21.4725 H   0  0  0  0  0  0
   -3.2590   49.1245   20.0787 H   0  0  0  0  0  0
   -2.3632   48.6817   17.8347 H   0  0  0  0  0  0
   -3.2026   48.1495   22.5576 H   0  0  0  0  0  0
   -1.5064   47.7859   22.9402 H   0  0  0  0  0  0
   -5.6728   50.4236   26.1560 H   0  0  0  0  0  0
   -5.1058   51.5595   27.3567 H   0  0  0  0  0  0
   -2.6206   51.8859   22.1075 H   0  0  0  0  0  0
   -3.8299   50.6701   21.7421 H   0  0  0  0  0  0
   -1.5424   49.9154   27.9664 H   0  0  0  0  0  0
   -0.8699   51.9590   30.0615 H   0  0  0  0  0  0
    1.1984   53.2015   30.5962 H   0  0  0  0  0  0
    2.6188   52.5024   26.5925 H   0  0  0  0  0  0
    0.5702   51.3112   26.0652 H   0  0  0  0  0  0
    5.6584   52.8982   29.2815 H   0  0  0  0  0  0
    7.5202   53.3112   27.7158 H   0  0  0  0  0  0
    7.1094   54.5821   25.6287 H   0  0  0  0  0  0
    4.8513   55.4432   25.1248 H   0  0  0  0  0  0
    2.9968   55.0230   26.7144 H   0  0  0  0  0  0
  1  2  1  0  0  0
  1 39  1  0  0  0
  1 40  1  0  0  0
  1 41  1  0  0  0
  2  3  1  0  0  0
  3  8  2  0  0  0
  3  4  1  0  0  0
  4  5  2  0  0  0
  4 42  1  0  0  0
  5  6  1  0  0  0
  5 43  1  0  0  0
  6  7  2  0  0  0
  6  9  1  0  0  0
  7  8  1  0  0  0
  7 44  1  0  0  0
  8 45  1  0  0  0
  9 10  1  0  0  0
  9 21  1  0  0  0
  9 11  1  0  0  0
 11 12  1  0  0  0
 11 46  1  0  0  0
 11 47  1  0  0  0
 12 13  2  0  0  0
 12 38  1  0  0  0
 13 20  1  0  0  0
 13 14  1  0  0  0
 14 15  1  0  0  0
 14 16  1  0  0  0
 14 22  1  0  0  0
 16 17  1  0  0  0
 16 48  1  0  0  0
 16 49  1  0  0  0
 17 18  2  0  0  0
 17 19  1  0  0  0
 19 20  2  0  0  0
 20 21  1  0  0  0
 21 50  1  0  0  0
 21 51  1  0  0  0
 22 23  2  0  0  0
 22 24  1  0  0  0
 24 25  1  0  0  0
 24 52  1  0  0  0
 25 30  2  0  0  0
 25 26  1  0  0  0
 26 27  2  0  0  0
 26 53  1  0  0  0
 27 28  1  0  0  0
 27 54  1  0  0  0
 28 29  2  0  0  0
 28 31  1  0  0  0
 29 30  1  0  0  0
 29 55  1  0  0  0
 30 56  1  0  0  0
 31 32  1  0  0  0
 32 37  2  0  0  0
 32 33  1  0  0  0
 33 34  2  0  0  0
 33 57  1  0  0  0
 34 35  1  0  0  0
 34 58  1  0  0  0
 35 36  2  0  0  0
 35 59  1  0  0  0
 36 37  1  0  0  0
 36 60  1  0  0  0
 37 61  1  0  0  0
M  CHG  1  38  -1
M  END
> <i_i_glide_confnum>
35

> <i_i_glide_lignum>
5826

> <i_i_glide_posenum>
66

> <i_i_glide_rotatable_bonds>
7

> <i_m_Source_File_Index>
932

> <b_m_subgroup_collapsed>
0

> <r_i_docking_score>
-3.69852

> <r_i_glide_ecoul>
-8.03355

> <r_i_glide_eff_state_penalty>
0

> <r_i_glide_einternal>
1.61529

> <r_i_glide_emodel>
-48.4493

> <r_i_glide_energy>
-42.9908

> <r_i_glide_erotb>
0.524976

> <r_i_glide_esite>
-0.153902

> <r_i_glide_evdw>
-34.9573

> <r_i_glide_gscore>
-3.69852

> <r_i_glide_hbond>
-0.16

> <r_i_glide_ligand_efficiency>
-0.102737

> <r_i_glide_ligand_efficiency_ln>
-0.806917

> <r_i_glide_ligand_efficiency_sa>
-0.339229

> <r_i_glide_lipo>
-2.20054

> <r_i_glide_metal>
0

> <r_i_glide_rewards>
1.24384

> <s_i_glide_gridfile>
wee1_glide-grid

> <s_m_Source_File>
wee1_decoys_glide_SP.sdf

> <s_m_Source_Path>
/Users/zhangxujun/Desktop

> <s_m_entry_id>
1207

> <s_m_entry_name>
wee1_decoys_glide_SP.932

> <s_m_subgroup_title>
wee1_decoys_glide_SP

> <s_m_subgroupid>
wee1_decoys_glide_SP


$$$$
