@<TRIPOS>MOLECULE
ZINC39657178_3681
59   62    1
SMALL
USER_CHARGES


@<TRIPOS>ATOM
      1 C1          1.5804   56.1243   29.4621 C.3       1 UNK         0.0000 
      2 C2          1.2241   54.6680   29.6857 C.2       1 UNK         0.0000 
      3 C3          0.6073   54.2196   30.8638 C.2       1 UNK         0.0000 
      4 C4          0.3506   52.8631   30.8893 C.2       1 UNK         0.0000 
      5 S5          0.8524   52.0965   29.4394 S.3       1 UNK         0.0000 
      6 C6          1.3451   53.6202   28.7460 C.2       1 UNK         0.0000 
      7 C7          1.9641   53.6990   27.4279 C.2       1 UNK         0.0000 
      8 O8          2.8497   54.5363   27.2539 O.2       1 UNK         0.0000 
      9 N9          1.5040   52.9327   26.3966 N.am      1 UNK         0.0000 
     10 C10         1.9884   53.1464   25.0305 C.3       1 UNK         0.0000 
     11 C11         1.5044   51.8941   24.2782 C.3       1 UNK         0.0000 
     12 H12         2.2396   51.1077   24.4052 H         1 UNK         0.0000 
     13 C13         0.1737   51.4959   24.9670 C.3       1 UNK         0.0000 
     14 C14         0.4963   51.8683   26.4365 C.3       1 UNK         0.0000 
     15 C15        -1.0767   52.2699   24.4424 C.3       1 UNK         0.0000 
     16 C16        -2.3455   51.9737   25.2755 C.3       1 UNK         0.0000 
     17 N17        -2.5837   50.4426   25.3167 N.4       1 UNK         0.0000 
     18 C18        -1.3468   49.5892   25.6814 C.3       1 UNK         0.0000 
     19 C19        -0.1777   50.0010   24.7689 C.3       1 UNK         0.0000 
     20 C20         1.4216   52.1864   22.7675 C.2       1 UNK         0.0000 
     21 O21         1.1048   53.2966   22.3532 O.2       1 UNK         0.0000 
     22 N22         1.7869   51.1810   21.9588 N.am      1 UNK         0.0000 
     23 C23         1.7952   51.2133   20.4945 C.3       1 UNK         0.0000 
     24 H24         0.9847   51.8624   20.1508 H         1 UNK         0.0000 
     25 C25         3.1033   51.8458   19.9713 C.3       1 UNK         0.0000 
     26 C26         1.4408   49.8295   19.9262 C.ar      1 UNK         0.0000 
     27 C27         0.3061   49.1618   20.4076 C.ar      1 UNK         0.0000 
     28 C28        -0.0215   47.8917   19.9420 C.ar      1 UNK         0.0000 
     29 C29         0.7869   47.2781   18.9892 C.ar      1 UNK         0.0000 
     30 C30         1.9044   47.9346   18.4849 C.ar      1 UNK         0.0000 
     31 C31         2.2283   49.2048   18.9512 C.ar      1 UNK         0.0000 
     32 Br32        0.3659   45.5224   18.3844 Br        1 UNK         0.0000 
     33 H33         1.1239   56.7953   30.1913 H         1 UNK         0.0000 
     34 H34         2.6608   56.2831   29.4738 H         1 UNK         0.0000 
     35 H35         1.2421   56.4641   28.4822 H         1 UNK         0.0000 
     36 H36         0.3671   54.8758   31.6885 H         1 UNK         0.0000 
     37 H37        -0.0957   52.2803   31.6818 H         1 UNK         0.0000 
     38 H38         3.0719   53.2632   24.9627 H         1 UNK         0.0000 
     39 H39         1.4845   54.0466   24.6720 H         1 UNK         0.0000 
     40 H40        -0.3869   52.0743   27.0361 H         1 UNK         0.0000 
     41 H41         0.9982   51.0024   26.8747 H         1 UNK         0.0000 
     42 H42        -0.8859   53.3416   24.5030 H         1 UNK         0.0000 
     43 H43        -1.2607   52.0728   23.3850 H         1 UNK         0.0000 
     44 H44        -2.2926   52.3132   26.3093 H         1 UNK         0.0000 
     45 H45        -3.2407   52.4057   24.8264 H         1 UNK         0.0000 
     46 H46        -3.3295   50.2293   25.9677 H         1 UNK         0.0000 
     47 H47        -1.1471   49.7613   26.7406 H         1 UNK         0.0000 
     48 H48        -1.6362   48.5441   25.5560 H         1 UNK         0.0000 
     49 H49        -0.3606   49.7571   23.7214 H         1 UNK         0.0000 
     50 H50         0.6757   49.3874   25.0636 H         1 UNK         0.0000 
     51 H51         2.1394   50.3316   22.3747 H         1 UNK         0.0000 
     52 H52         3.0904   51.9597   18.8870 H         1 UNK         0.0000 
     53 H53         3.2538   52.8410   20.3930 H         1 UNK         0.0000 
     54 H54         3.9733   51.2431   20.2332 H         1 UNK         0.0000 
     55 H55        -0.3221   49.6260   21.1534 H         1 UNK         0.0000 
     56 H56        -0.8925   47.3807   20.3240 H         1 UNK         0.0000 
     57 H57         2.5320   47.4693   17.7373 H         1 UNK         0.0000 
     58 H58         3.1040   49.6857   18.5414 H         1 UNK         0.0000 
     59 H59        -2.9081   50.1459   24.4071 H         1 UNK         0.0000 
@<TRIPOS>BOND
     1    1    2 1    
     2    1   33 1    
     3    1   34 1    
     4    1   35 1    
     5    2    6 2    
     6    2    3 1    
     7    3    4 2    
     8    3   36 1    
     9    4    5 1    
    10    4   37 1    
    11    5    6 1    
    12    6    7 1    
    13    7    8 2    
    14    7    9 am   BACKBONE|DICT|INTERRES
    15    9   14 1    
    16    9   10 1    
    17   10   11 1    
    18   10   38 1    
    19   10   39 1    
    20   11   12 1    
    21   11   13 1    
    22   11   20 1    
    23   13   19 1    
    24   13   14 1    
    25   13   15 1    
    26   14   40 1    
    27   14   41 1    
    28   15   16 1    
    29   15   42 1    
    30   15   43 1    
    31   16   17 1    
    32   16   44 1    
    33   16   45 1    
    34   17   18 1    
    35   17   46 1    
    36   17   59 1    
    37   18   19 1    
    38   18   47 1    
    39   18   48 1    
    40   19   49 1    
    41   19   50 1    
    42   20   21 2    
    43   20   22 am   BACKBONE|DICT|INTERRES
    44   22   23 1    
    45   22   51 1    
    46   23   24 1    
    47   23   25 1    
    48   23   26 1    
    49   25   52 1    
    50   25   53 1    
    51   25   54 1    
    52   26   31 ar   
    53   26   27 ar   
    54   27   28 ar   
    55   27   55 1    
    56   28   29 ar   
    57   28   56 1    
    58   29   30 ar   
    59   29   32 1    
    60   30   31 ar   
    61   30   57 1    
    62   31   58 1    
@<TRIPOS>SUBSTRUCTURE
     1 UNK         1 GROUP             0       ****    0 ROOT    
