@<TRIPOS>MOLECULE
ZINC39639315_2203
69   72    1
SMALL
USER_CHARGES


@<TRIPOS>ATOM
      1 C1         -9.4908   53.0094   27.3460 C.3       1 UNK         0.0000 
      2 C2         -8.4223   53.6510   28.2527 C.3       1 UNK         0.0000 
      3 O3         -7.1087   53.1564   27.9827 O.3       1 UNK         0.0000 
      4 C4         -6.8519   51.8122   28.1813 C.ar      1 UNK         0.0000 
      5 C5         -7.3971   51.1117   29.2725 C.ar      1 UNK         0.0000 
      6 C6         -7.1312   49.7571   29.4624 C.ar      1 UNK         0.0000 
      7 C7         -6.3185   49.0781   28.5611 C.ar      1 UNK         0.0000 
      8 C8         -5.7642   49.7573   27.4775 C.ar      1 UNK         0.0000 
      9 C9         -6.0017   51.1293   27.2895 C.ar      1 UNK         0.0000 
     10 C10        -5.3921   51.8334   26.0999 C.2       1 UNK         0.0000 
     11 O11        -6.1342   52.3760   25.2769 O.2       1 UNK         0.0000 
     12 N12        -4.0414   51.8171   25.9590 N.am      1 UNK         0.0000 
     13 C13        -3.3728   52.3082   24.7483 C.3       1 UNK         0.0000 
     14 C14        -1.8761   52.1436   25.0842 C.3       1 UNK         0.0000 
     15 H15        -1.5205   53.0625   25.5519 H         1 UNK         0.0000 
     16 C16        -1.8176   50.9845   26.1207 C.3       1 UNK         0.0000 
     17 C17        -3.0838   51.2951   26.9412 C.3       1 UNK         0.0000 
     18 C18        -0.5978   50.9772   27.0795 C.3       1 UNK         0.0000 
     19 C19         0.6867   50.3439   26.5146 C.3       1 UNK         0.0000 
     20 N20         0.3691   48.8977   26.0846 N.4       1 UNK         0.0000 
     21 C21        -0.7420   48.8251   25.0260 C.3       1 UNK         0.0000 
     22 C22        -2.0116   49.5310   25.5564 C.3       1 UNK         0.0000 
     23 C23        -1.0543   51.9124   23.7987 C.2       1 UNK         0.0000 
     24 O24        -1.4647   51.1647   22.9146 O.2       1 UNK         0.0000 
     25 N25         0.1048   52.5910   23.7254 N.am      1 UNK         0.0000 
     26 C26         1.2590   52.3303   22.8514 C.3       1 UNK         0.0000 
     27 H27         1.5638   51.3099   23.0931 H         1 UNK         0.0000 
     28 C28         0.9366   52.3133   21.3355 C.3       1 UNK         0.0000 
     29 C29         2.5005   53.1570   23.2633 C.ar      1 UNK         0.0000 
     30 C30         3.5122   53.4592   22.3404 C.ar      1 UNK         0.0000 
     31 C31         4.6833   54.0924   22.7482 C.ar      1 UNK         0.0000 
     32 C32         4.8493   54.4819   24.0745 C.ar      1 UNK         0.0000 
     33 C33         3.8345   54.2328   24.9964 C.ar      1 UNK         0.0000 
     34 C34         2.6735   53.5748   24.5942 C.ar      1 UNK         0.0000 
     35 C35         6.1490   55.1312   24.5149 C.3       1 UNK         0.0000 
     36 H36       -10.4635   53.4801   27.4927 H         1 UNK         0.0000 
     37 H37        -9.2234   53.1219   26.2924 H         1 UNK         0.0000 
     38 H38        -9.6036   51.9428   27.5503 H         1 UNK         0.0000 
     39 H39        -8.6899   53.5309   29.3052 H         1 UNK         0.0000 
     40 H40        -8.4079   54.7252   28.0730 H         1 UNK         0.0000 
     41 H41        -8.0324   51.6112   29.9881 H         1 UNK         0.0000 
     42 H42        -7.5595   49.2315   30.3058 H         1 UNK         0.0000 
     43 H43        -6.1175   48.0245   28.6961 H         1 UNK         0.0000 
     44 H44        -5.1474   49.2046   26.7820 H         1 UNK         0.0000 
     45 H45        -3.6264   53.3438   24.5162 H         1 UNK         0.0000 
     46 H46        -3.6753   51.6293   23.9475 H         1 UNK         0.0000 
     47 H47        -3.3823   50.4483   27.5543 H         1 UNK         0.0000 
     48 H48        -2.8577   52.1048   27.6369 H         1 UNK         0.0000 
     49 H49        -0.4123   51.9661   27.5009 H         1 UNK         0.0000 
     50 H50        -0.8799   50.3553   27.9287 H         1 UNK         0.0000 
     51 H51         1.0788   50.8600   25.6358 H         1 UNK         0.0000 
     52 H52         1.4624   50.2757   27.2796 H         1 UNK         0.0000 
     53 H53         1.1982   48.4178   25.7555 H         1 UNK         0.0000 
     54 H54        -0.3261   49.2666   24.1210 H         1 UNK         0.0000 
     55 H55        -0.9123   47.7618   24.8477 H         1 UNK         0.0000 
     56 H56        -2.3537   48.8970   26.3819 H         1 UNK         0.0000 
     57 H57        -2.8286   49.4831   24.8359 H         1 UNK         0.0000 
     58 H58         0.2796   53.2675   24.4482 H         1 UNK         0.0000 
     59 H59         1.7721   51.9351   20.7459 H         1 UNK         0.0000 
     60 H60         0.1025   51.6578   21.0934 H         1 UNK         0.0000 
     61 H61         0.6870   53.2973   20.9620 H         1 UNK         0.0000 
     62 H62         3.4328   53.1702   21.3051 H         1 UNK         0.0000 
     63 H63         5.4621   54.2791   22.0262 H         1 UNK         0.0000 
     64 H64         3.9543   54.5227   26.0288 H         1 UNK         0.0000 
     65 H65         1.9300   53.3601   25.3454 H         1 UNK         0.0000 
     66 H66         6.9888   54.4649   24.3079 H         1 UNK         0.0000 
     67 H67         6.3211   56.0535   23.9607 H         1 UNK         0.0000 
     68 H68         6.1526   55.3662   25.5831 H         1 UNK         0.0000 
     69 H69         0.0481   48.3753   26.8963 H         1 UNK         0.0000 
@<TRIPOS>BOND
     1    1    2 1    
     2    1   36 1    
     3    1   37 1    
     4    1   38 1    
     5    2    3 1    
     6    2   39 1    
     7    2   40 1    
     8    3    4 1    
     9    4    9 ar   
    10    4    5 ar   
    11    5    6 ar   
    12    5   41 1    
    13    6    7 ar   
    14    6   42 1    
    15    7    8 ar   
    16    7   43 1    
    17    8    9 ar   
    18    8   44 1    
    19    9   10 1    
    20   10   11 2    
    21   10   12 am   BACKBONE|DICT|INTERRES
    22   12   17 1    
    23   12   13 1    
    24   13   14 1    
    25   13   45 1    
    26   13   46 1    
    27   14   15 1    
    28   14   16 1    
    29   14   23 1    
    30   16   22 1    
    31   16   17 1    
    32   16   18 1    
    33   17   47 1    
    34   17   48 1    
    35   18   19 1    
    36   18   49 1    
    37   18   50 1    
    38   19   20 1    
    39   19   51 1    
    40   19   52 1    
    41   20   21 1    
    42   20   53 1    
    43   20   69 1    
    44   21   22 1    
    45   21   54 1    
    46   21   55 1    
    47   22   56 1    
    48   22   57 1    
    49   23   24 2    
    50   23   25 am   BACKBONE|DICT|INTERRES
    51   25   26 1    
    52   25   58 1    
    53   26   27 1    
    54   26   28 1    
    55   26   29 1    
    56   28   59 1    
    57   28   60 1    
    58   28   61 1    
    59   29   34 ar   
    60   29   30 ar   
    61   30   31 ar   
    62   30   62 1    
    63   31   32 ar   
    64   31   63 1    
    65   32   33 ar   
    66   32   35 1    
    67   33   34 ar   
    68   33   64 1    
    69   34   65 1    
    70   35   66 1    
    71   35   67 1    
    72   35   68 1    
@<TRIPOS>SUBSTRUCTURE
     1 UNK         1 GROUP             0       ****    0 ROOT    
