@<TRIPOS>MOLECULE
ZINC02884095_2680
41   44    1
SMALL
USER_CHARGES


@<TRIPOS>ATOM
      1 C1          3.4714   52.1765   30.6996 C.2       1 UNK         0.0000 
      2 C2          3.3481   52.3356   29.3188 C.2       1 UNK         0.0000 
      3 C3          1.9884   52.3578   29.0241 C.2       1 UNK         0.0000 
      4 O4          1.2845   52.2240   30.1805 O.3       1 UNK         0.0000 
      5 C5          2.1786   52.1177   31.1965 C.2       1 UNK         0.0000 
      6 C6          1.1684   52.4363   27.7470 C.3       1 UNK         0.0000 
      7 H7          0.3803   53.1730   27.9061 H         1 UNK         0.0000 
      8 C8          0.5188   51.0708   27.4082 C.3       1 UNK         0.0000 
      9 C9         -0.3666   51.0983   26.1375 C.3       1 UNK         0.0000 
     10 H10        -0.4989   50.0740   25.7824 H         1 UNK         0.0000 
     11 N11         0.3958   51.8300   25.1157 N.pl3     1 UNK         0.0000 
     12 C12         1.4729   52.6774   25.3299 C.ar      1 UNK         0.0000 
     13 C13         1.9314   53.0285   24.0630 C.ar      1 UNK         0.0000 
     14 C14         0.9713   52.4851   23.1928 C.ar      1 UNK         0.0000 
     15 N15         0.0754   51.7586   23.8146 N.2       1 UNK         0.0000 
     16 C16         3.0981   53.8114   23.7478 C.2       1 UNK         0.0000 
     17 O17         3.6502   54.4961   24.6116 O.2       1 UNK         0.0000 
     18 N18         3.5352   53.6556   22.4779 N.am      1 UNK         0.0000 
     19 C19         4.7007   54.1876   21.9074 C.ar      1 UNK         0.0000 
     20 C20         4.7047   54.3698   20.5202 C.ar      1 UNK         0.0000 
     21 C21         5.8201   54.9566   19.9178 C.ar      1 UNK         0.0000 
     22 C22         6.9024   55.3429   20.7102 C.ar      1 UNK         0.0000 
     23 C23         6.8432   55.1007   22.0821 C.ar      1 UNK         0.0000 
     24 N24         5.7796   54.5079   22.6786 N.ar      1 UNK         0.0000 
     25 Cl25        8.2889   56.0938   20.0111 Cl        1 UNK         0.0000 
     26 N26         1.9694   52.8959   26.6064 N.pl3     1 UNK         0.0000 
     27 C27        -1.7854   51.6600   26.3837 C.3       1 UNK         0.0000 
     28 F28        -2.4579   50.9268   27.2702 F         1 UNK         0.0000 
     29 F29        -1.7322   52.8967   26.8685 F         1 UNK         0.0000 
     30 F30        -2.5170   51.6981   25.2697 F         1 UNK         0.0000 
     31 H31         4.3878   52.1119   31.2692 H         1 UNK         0.0000 
     32 H32         4.1540   52.4081   28.6022 H         1 UNK         0.0000 
     33 H33         1.7574   52.0051   32.1869 H         1 UNK         0.0000 
     34 H34        -0.0780   50.7223   28.2546 H         1 UNK         0.0000 
     35 H35         1.2842   50.3023   27.2833 H         1 UNK         0.0000 
     36 H36         0.9476   52.5829   22.1167 H         1 UNK         0.0000 
     37 H37         2.9355   53.1547   21.8425 H         1 UNK         0.0000 
     38 H38         3.8520   54.0970   19.9138 H         1 UNK         0.0000 
     39 H39         5.8359   55.1223   18.8501 H         1 UNK         0.0000 
     40 H40         7.6613   55.3783   22.7278 H         1 UNK         0.0000 
     41 H41         2.5036   53.7341   26.7935 H         1 UNK         0.0000 
@<TRIPOS>BOND
     1    1    5 2    
     2    1    2 1    
     3    1   31 1    
     4    2    3 2    
     5    2   32 1    
     6    3    4 1    
     7    3    6 1    
     8    4    5 1    
     9    5   33 1    
    10    6    7 1    
    11    6   26 1    
    12    6    8 1    
    13    8    9 1    
    14    8   34 1    
    15    8   35 1    
    16    9   10 1    
    17    9   11 1    
    18    9   27 1    
    19   11   15 ar   
    20   11   12 ar   
    21   12   13 ar   
    22   12   26 1    
    23   13   14 ar   
    24   13   16 1    
    25   14   15 ar   
    26   14   36 1    
    27   16   17 2    
    28   16   18 am   BACKBONE|DICT|INTERRES
    29   18   19 1    
    30   18   37 1    
    31   19   24 ar   
    32   19   20 ar   
    33   20   21 ar   
    34   20   38 1    
    35   21   22 ar   
    36   21   39 1    
    37   22   23 ar   
    38   22   25 1    
    39   23   24 ar   
    40   23   40 1    
    41   26   41 1    
    42   27   28 1    
    43   27   29 1    
    44   27   30 1    
@<TRIPOS>SUBSTRUCTURE
     1 UNK         1 GROUP             0       ****    0 ROOT    
