@<TRIPOS>MOLECULE
ZINC58949384_1611
40   41    1
SMALL
USER_CHARGES


@<TRIPOS>ATOM
      1 C1          1.9046   50.8692   22.8201 C.3       1 UNK         0.0000 
      2 C2          0.5408   51.2539   23.4123 C.3       1 UNK         0.0000 
      3 O3          0.6118   51.4435   24.8237 O.3       1 UNK         0.0000 
      4 C4          1.0434   52.6082   25.3790 C.2       1 UNK         0.0000 
      5 O5          1.3978   53.5739   24.6981 O.2       1 UNK         0.0000 
      6 C6          1.0574   52.6340   26.8740 C.2       1 UNK         0.0000 
      7 C7          0.5393   51.6514   27.6552 C.2       1 UNK         0.0000 
      8 O8          0.4973   51.7211   29.0086 O.3       1 UNK         0.0000 
      9 C9          0.7487   52.8915   29.6550 C.2       1 UNK         0.0000 
     10 C10         1.2790   53.9807   29.0285 C.2       1 UNK         0.0000 
     11 C11         1.6942   53.8776   27.5384 C.3       1 UNK         0.0000 
     12 H12         1.2783   54.7450   27.0361 H         1 UNK         0.0000 
     13 C13         3.2044   53.9308   27.3198 C.2       1 UNK         0.0000 
     14 C14         3.9034   54.4979   26.2591 C.2       1 UNK         0.0000 
     15 C15         5.2859   54.4671   26.3945 C.2       1 UNK         0.0000 
     16 C16         5.7127   53.8742   27.5682 C.2       1 UNK         0.0000 
     17 S17         4.3496   53.3003   28.4719 S.3       1 UNK         0.0000 
     18 C18         7.1044   53.6967   28.0817 C.3       1 UNK         0.0000 
     19 C19         1.5043   55.2809   29.6588 C.2       1 UNK         0.0000 
     20 O20         2.3573   56.0765   29.2817 O.2       1 UNK         0.0000 
     21 N21         0.7045   55.6265   30.6628 N.am      1 UNK         0.0000 
     22 C22         0.4030   52.7043   31.1257 C.3       1 UNK         0.0000 
     23 N23        -0.0956   50.4968   27.2815 N.pl3     1 UNK         0.0000 
     24 H24         1.8162   50.6458   21.7572 H         1 UNK         0.0000 
     25 H25         2.6243   51.6812   22.9244 H         1 UNK         0.0000 
     26 H26         2.3134   49.9864   23.3133 H         1 UNK         0.0000 
     27 H27        -0.1689   50.4484   23.2228 H         1 UNK         0.0000 
     28 H28         0.1399   52.1410   22.9187 H         1 UNK         0.0000 
     29 H29         3.4163   54.9514   25.4091 H         1 UNK         0.0000 
     30 H30         5.9605   54.8830   25.6613 H         1 UNK         0.0000 
     31 H31         7.8276   54.2395   27.4744 H         1 UNK         0.0000 
     32 H32         7.4039   52.6489   28.0809 H         1 UNK         0.0000 
     33 H33         7.2081   54.0667   29.1013 H         1 UNK         0.0000 
     34 H34        -0.0096   54.9970   30.9928 H         1 UNK         0.0000 
     35 H35         0.8379   56.5259   31.1006 H         1 UNK         0.0000 
     36 H36         0.9527   53.3694   31.7879 H         1 UNK         0.0000 
     37 H37        -0.6649   52.8552   31.2808 H         1 UNK         0.0000 
     38 H38         0.6394   51.6967   31.4593 H         1 UNK         0.0000 
     39 H39        -0.1851   50.2645   26.3032 H         1 UNK         0.0000 
     40 H40        -0.5380   49.8650   27.9456 H         1 UNK         0.0000 
@<TRIPOS>BOND
     1    1    2 1    
     2    1   24 1    
     3    1   25 1    
     4    1   26 1    
     5    2    3 1    
     6    2   27 1    
     7    2   28 1    
     8    3    4 1    
     9    4    5 2    
    10    4    6 1    
    11    6   11 1    
    12    6    7 2    
    13    7    8 1    
    14    7   23 1    
    15    8    9 1    
    16    9   10 2    
    17    9   22 1    
    18   10   11 1    
    19   10   19 1    
    20   11   12 1    
    21   11   13 1    
    22   13   17 1    
    23   13   14 2    
    24   14   15 1    
    25   14   29 1    
    26   15   16 2    
    27   15   30 1    
    28   16   17 1    
    29   16   18 1    
    30   18   31 1    
    31   18   32 1    
    32   18   33 1    
    33   19   20 2    
    34   19   21 am   BACKBONE|DICT|INTERRES
    35   21   34 1    
    36   21   35 1    
    37   22   36 1    
    38   22   37 1    
    39   22   38 1    
    40   23   39 1    
    41   23   40 1    
@<TRIPOS>SUBSTRUCTURE
     1 UNK         1 GROUP             0       ****    0 ROOT    
