@<TRIPOS>MOLECULE
ZINC23011588_3932
42   44    1
SMALL
USER_CHARGES


@<TRIPOS>ATOM
      1 C1         -6.7397   51.1743   31.3261 C.ar      1 UNK         0.0000 
      2 C2         -5.5839   50.4850   31.6849 C.ar      1 UNK         0.0000 
      3 C3         -4.5936   50.2507   30.7364 C.ar      1 UNK         0.0000 
      4 C4         -4.7532   50.7177   29.4298 C.ar      1 UNK         0.0000 
      5 C5         -5.9274   51.3979   29.0692 C.ar      1 UNK         0.0000 
      6 C6         -6.9171   51.6279   30.0215 C.ar      1 UNK         0.0000 
      7 N7         -3.6956   50.4470   28.5460 N.am      1 UNK         0.0000 
      8 C8         -3.3848   51.0546   27.3859 C.2       1 UNK         0.0000 
      9 O9         -4.0023   51.9974   26.8869 O.2       1 UNK         0.0000 
     10 N10        -2.2704   50.4967   26.8809 N.am      1 UNK         0.0000 
     11 C11        -1.4392   50.9285   25.8320 C.ar      1 UNK         0.0000 
     12 C12        -1.6105   52.1316   25.1328 C.ar      1 UNK         0.0000 
     13 C13        -0.6303   52.5647   24.2482 C.ar      1 UNK         0.0000 
     14 C14         0.5370   51.8108   24.0689 C.ar      1 UNK         0.0000 
     15 C15         0.6364   50.5454   24.6484 C.ar      1 UNK         0.0000 
     16 C16        -0.3412   50.1137   25.5433 C.ar      1 UNK         0.0000 
     17 N17         1.6742   52.3176   23.4103 N.am      1 UNK         0.0000 
     18 C18         2.1523   53.5683   23.5998 C.2       1 UNK         0.0000 
     19 O19         1.5066   54.4970   24.0804 O.2       1 UNK         0.0000 
     20 C20         3.6110   53.7801   23.3299 C.ar      1 UNK         0.0000 
     21 C21         4.4290   54.2150   24.3824 C.ar      1 UNK         0.0000 
     22 C22         5.7713   54.5151   24.1622 C.ar      1 UNK         0.0000 
     23 C23         6.3046   54.4091   22.8801 C.ar      1 UNK         0.0000 
     24 C24         5.4915   53.9975   21.8223 C.ar      1 UNK         0.0000 
     25 C25         4.1511   53.6745   22.0410 C.ar      1 UNK         0.0000 
     26 F26         3.3910   53.2766   20.9950 F         1 UNK         0.0000 
     27 Br27        6.8566   55.1086   25.6075 Br        1 UNK         0.0000 
     28 H28        -7.5074   51.3517   32.0653 H         1 UNK         0.0000 
     29 H29        -5.4458   50.1419   32.7008 H         1 UNK         0.0000 
     30 H30        -3.6956   49.7205   31.0277 H         1 UNK         0.0000 
     31 H31        -6.0940   51.7450   28.0612 H         1 UNK         0.0000 
     32 H32        -7.8223   52.1493   29.7465 H         1 UNK         0.0000 
     33 H33        -3.0424   49.7422   28.8700 H         1 UNK         0.0000 
     34 H34        -1.9503   49.6532   27.3573 H         1 UNK         0.0000 
     35 H35        -2.4519   52.7828   25.3036 H         1 UNK         0.0000 
     36 H36        -0.7506   53.5268   23.7728 H         1 UNK         0.0000 
     37 H37         1.5050   49.9252   24.4817 H         1 UNK         0.0000 
     38 H38        -0.2098   49.1691   26.0557 H         1 UNK         0.0000 
     39 H39         2.3111   51.6375   23.0258 H         1 UNK         0.0000 
     40 H40         4.0254   54.3317   25.3792 H         1 UNK         0.0000 
     41 H41         7.3428   54.6554   22.7066 H         1 UNK         0.0000 
     42 H42         5.9022   53.9272   20.8256 H         1 UNK         0.0000 
@<TRIPOS>BOND
     1    1    6 ar   
     2    1    2 ar   
     3    1   28 1    
     4    2    3 ar   
     5    2   29 1    
     6    3    4 ar   
     7    3   30 1    
     8    4    5 ar   
     9    4    7 1    
    10    5    6 ar   
    11    5   31 1    
    12    6   32 1    
    13    7    8 am   BACKBONE|DICT|INTERRES
    14    7   33 1    
    15    8    9 2    
    16    8   10 am   BACKBONE|DICT|INTERRES
    17   10   11 1    
    18   10   34 1    
    19   11   16 ar   
    20   11   12 ar   
    21   12   13 ar   
    22   12   35 1    
    23   13   14 ar   
    24   13   36 1    
    25   14   15 ar   
    26   14   17 1    
    27   15   16 ar   
    28   15   37 1    
    29   16   38 1    
    30   17   18 am   BACKBONE|DICT|INTERRES
    31   17   39 1    
    32   18   19 2    
    33   18   20 1    
    34   20   25 ar   
    35   20   21 ar   
    36   21   22 ar   
    37   21   40 1    
    38   22   23 ar   
    39   22   27 1    
    40   23   24 ar   
    41   23   41 1    
    42   24   25 ar   
    43   24   42 1    
    44   25   26 1    
@<TRIPOS>SUBSTRUCTURE
     1 UNK         1 GROUP             0       ****    0 ROOT    
