@<TRIPOS>MOLECULE
ZINC63514519_2172
54   57    1
SMALL
USER_CHARGES


@<TRIPOS>ATOM
      1 C1          1.1337   52.4968   30.5837 C.ar      1 UNK         0.0000 
      2 C2         -0.0938   52.0985   30.0581 C.ar      1 UNK         0.0000 
      3 C3         -0.2450   51.9483   28.6809 C.ar      1 UNK         0.0000 
      4 C4          0.8347   52.2058   27.8151 C.ar      1 UNK         0.0000 
      5 C5          2.0645   52.5922   28.3666 C.ar      1 UNK         0.0000 
      6 C6          2.2170   52.7335   29.7434 C.ar      1 UNK         0.0000 
      7 C7          0.7031   52.0967   26.3107 C.2       1 UNK         0.0000 
      8 O8          1.5376   52.6380   25.5809 O.2       1 UNK         0.0000 
      9 N9         -0.3547   51.3952   25.8376 N.am      1 UNK         0.0000 
     10 C10        -0.6909   51.2011   24.5153 C.2       1 UNK         0.0000 
     11 C11        -1.9262   51.5482   24.0629 C.2       1 UNK         0.0000 
     12 C12        -3.0355   52.1233   24.8463 C.ar      1 UNK         0.0000 
     13 C13        -3.5203   51.5116   26.0090 C.ar      1 UNK         0.0000 
     14 C14        -4.6021   52.0761   26.6882 C.ar      1 UNK         0.0000 
     15 C15        -5.1656   53.2507   26.1852 C.ar      1 UNK         0.0000 
     16 N16        -4.7068   53.8705   25.0685 N.ar      1 UNK         0.0000 
     17 C17        -3.6636   53.2983   24.4171 C.ar      1 UNK         0.0000 
     18 C18         0.2856   50.5844   23.6049 C.2       1 UNK         0.0000 
     19 O19         1.1588   49.8197   24.0117 O.2       1 UNK         0.0000 
     20 N20         0.1867   50.9010   22.2977 N.am      1 UNK         0.0000 
     21 C21         1.0250   50.3603   21.2235 C.3       1 UNK         0.0000 
     22 C22         2.4741   50.8987   21.1742 C.3       1 UNK         0.0000 
     23 C23         2.5956   52.4419   21.1537 C.3       1 UNK         0.0000 
     24 H24         1.8505   52.8936   20.4955 H         1 UNK         0.0000 
     25 C25         2.5995   53.0527   22.5397 C.2       1 UNK         0.0000 
     26 C26         3.7715   53.6655   22.7544 C.2       1 UNK         0.0000 
     27 C27         4.3125   54.3359   23.9442 C.2       1 UNK         0.0000 
     28 C28         5.5397   54.8961   23.9103 C.2       1 UNK         0.0000 
     29 C29         6.2810   54.8529   22.6555 C.2       1 UNK         0.0000 
     30 C30         5.7838   54.2345   21.5496 C.2       1 UNK         0.0000 
     31 C31         4.5394   53.5970   21.5907 C.2       1 UNK         0.0000 
     32 N32         3.9172   52.8992   20.6650 N.pl3     1 UNK         0.0000 
     33 H33         1.2438   52.5986   31.6537 H         1 UNK         0.0000 
     34 H34        -0.9164   51.8877   30.7280 H         1 UNK         0.0000 
     35 H35        -1.2110   51.6318   28.3122 H         1 UNK         0.0000 
     36 H36         2.9189   52.7844   27.7298 H         1 UNK         0.0000 
     37 H37         3.1745   53.0199   30.1507 H         1 UNK         0.0000 
     38 H38        -1.0921   51.2353   26.5049 H         1 UNK         0.0000 
     39 H39        -2.1880   51.3825   23.0289 H         1 UNK         0.0000 
     40 H40        -3.0860   50.5894   26.3722 H         1 UNK         0.0000 
     41 H41        -4.9933   51.6105   27.5800 H         1 UNK         0.0000 
     42 H42        -6.0063   53.7143   26.6805 H         1 UNK         0.0000 
     43 H43        -3.3223   53.8131   23.5329 H         1 UNK         0.0000 
     44 H44        -0.5437   51.5373   22.0215 H         1 UNK         0.0000 
     45 H45         1.0312   49.2680   21.2648 H         1 UNK         0.0000 
     46 H46         0.5228   50.6341   20.2929 H         1 UNK         0.0000 
     47 H47         3.0477   50.4830   22.0051 H         1 UNK         0.0000 
     48 H48         2.9411   50.4895   20.2775 H         1 UNK         0.0000 
     49 H49         1.7787   52.9491   23.2304 H         1 UNK         0.0000 
     50 H50         3.7565   54.3695   24.8708 H         1 UNK         0.0000 
     51 H51         5.9554   55.3823   24.7829 H         1 UNK         0.0000 
     52 H52         7.2416   55.3468   22.5956 H         1 UNK         0.0000 
     53 H53         6.3458   54.2613   20.6299 H         1 UNK         0.0000 
     54 H54         4.2749   52.7008   19.7337 H         1 UNK         0.0000 
@<TRIPOS>BOND
     1    1    6 ar   
     2    1    2 ar   
     3    1   33 1    
     4    2    3 ar   
     5    2   34 1    
     6    3    4 ar   
     7    3   35 1    
     8    4    5 ar   
     9    4    7 1    
    10    5    6 ar   
    11    5   36 1    
    12    6   37 1    
    13    7    8 2    
    14    7    9 am   BACKBONE|DICT|INTERRES
    15    9   10 1    
    16    9   38 1    
    17   10   11 2    
    18   10   18 1    
    19   11   12 1    
    20   11   39 1    
    21   12   17 ar   
    22   12   13 ar   
    23   13   14 ar   
    24   13   40 1    
    25   14   15 ar   
    26   14   41 1    
    27   15   16 ar   
    28   15   42 1    
    29   16   17 ar   
    30   17   43 1    
    31   18   19 2    
    32   18   20 am   BACKBONE|DICT|INTERRES
    33   20   21 1    
    34   20   44 1    
    35   21   22 1    
    36   21   45 1    
    37   21   46 1    
    38   22   23 1    
    39   22   47 1    
    40   22   48 1    
    41   23   24 1    
    42   23   32 1    
    43   23   25 1    
    44   25   26 2    
    45   25   49 1    
    46   26   31 1    
    47   26   27 1    
    48   27   28 2    
    49   27   50 1    
    50   28   29 1    
    51   28   51 1    
    52   29   30 2    
    53   29   52 1    
    54   30   31 1    
    55   30   53 1    
    56   31   32 2    
    57   32   54 1    
@<TRIPOS>SUBSTRUCTURE
     1 UNK         1 GROUP             0       ****    0 ROOT    
