@<TRIPOS>MOLECULE
ZINC13355306_5630
54   57    1
SMALL
USER_CHARGES


@<TRIPOS>ATOM
      1 C1          3.6708   57.7336   16.5168 C.2       1 UNK         0.0000 
      2 C2          3.5046   56.5759   17.2814 C.2       1 UNK         0.0000 
      3 C3          4.5966   56.2295   18.0825 C.2       1 UNK         0.0000 
      4 S4          5.9020   57.3499   17.7440 S.3       1 UNK         0.0000 
      5 C5          4.9248   58.2877   16.6709 C.2       1 UNK         0.0000 
      6 C6          4.6829   55.0428   19.0462 C.3       1 UNK         0.0000 
      7 C7          5.5619   55.1634   20.2989 C.ar      1 UNK         0.0000 
      8 N8          6.6174   55.9384   20.3887 N.2       1 UNK         0.0000 
      9 N9          7.2252   55.7103   21.6103 N.2       1 UNK         0.0000 
     10 C10         6.5240   54.7966   22.2192 C.ar      1 UNK         0.0000 
     11 N11         5.4451   54.3939   21.4550 N.pl3     1 UNK         0.0000 
     12 C12         4.4474   53.3819   21.8749 C.3       1 UNK         0.0000 
     13 C13         3.1794   54.1166   22.3675 C.3       1 UNK         0.0000 
     14 C14         2.0314   53.1478   22.7114 C.3       1 UNK         0.0000 
     15 C15         1.7646   52.1368   21.5797 C.3       1 UNK         0.0000 
     16 C16         3.0396   51.3576   21.1997 C.3       1 UNK         0.0000 
     17 C17         4.1803   52.3072   20.7869 C.3       1 UNK         0.0000 
     18 S18         6.9902   54.0916   23.7566 S.3       1 UNK         0.0000 
     19 C19         6.5980   55.4586   24.8643 C.3       1 UNK         0.0000 
     20 C20         6.2188   54.8961   26.2262 C.2       1 UNK         0.0000 
     21 O21         7.1039   54.6970   27.0558 O.2       1 UNK         0.0000 
     22 N22         4.9063   54.6608   26.4190 N.am      1 UNK         0.0000 
     23 C23         4.3012   54.1126   27.5551 C.ar      1 UNK         0.0000 
     24 C24         3.0142   54.5477   27.8579 C.ar      1 UNK         0.0000 
     25 C25         2.3311   54.0221   28.9416 C.ar      1 UNK         0.0000 
     26 C26         2.9277   53.0427   29.7404 C.ar      1 UNK         0.0000 
     27 C27         4.2211   52.5984   29.4284 C.ar      1 UNK         0.0000 
     28 C28         4.9079   53.1309   28.3436 C.ar      1 UNK         0.0000 
     29 C29         2.1958   52.4959   30.9210 C.2       1 UNK         0.0000 
     30 O30         2.8166   51.6969   31.6603 O.co2     1 UNK         0.0000 
     31 H31         2.9029   58.1561   15.8853 H         1 UNK         0.0000 
     32 H32         2.5827   56.0129   17.2855 H         1 UNK         0.0000 
     33 H33         5.3111   59.1942   16.2233 H         1 UNK         0.0000 
     34 H34         5.0313   54.1832   18.4730 H         1 UNK         0.0000 
     35 H35         3.6628   54.7989   19.3417 H         1 UNK         0.0000 
     36 H36         4.9019   52.8687   22.7180 H         1 UNK         0.0000 
     37 H37         3.4267   54.6443   23.2898 H         1 UNK         0.0000 
     38 H38         2.8720   54.8987   21.6819 H         1 UNK         0.0000 
     39 H39         2.2774   52.6048   23.6260 H         1 UNK         0.0000 
     40 H40         1.1236   53.7119   22.9295 H         1 UNK         0.0000 
     41 H41         0.9812   51.4405   21.8816 H         1 UNK         0.0000 
     42 H42         1.3832   52.6647   20.7033 H         1 UNK         0.0000 
     43 H43         3.3558   50.7441   22.0451 H         1 UNK         0.0000 
     44 H44         2.8250   50.6629   20.3858 H         1 UNK         0.0000 
     45 H45         3.9881   52.7057   19.7978 H         1 UNK         0.0000 
     46 H46         5.0780   51.6971   20.6726 H         1 UNK         0.0000 
     47 H47         5.7892   56.0756   24.4814 H         1 UNK         0.0000 
     48 H48         7.4771   56.0961   24.9416 H         1 UNK         0.0000 
     49 H49         4.2716   54.9452   25.6904 H         1 UNK         0.0000 
     50 H50         2.5262   55.3077   27.2811 H         1 UNK         0.0000 
     51 H51         1.3358   54.3858   29.1576 H         1 UNK         0.0000 
     52 H52         4.7042   51.8386   30.0263 H         1 UNK         0.0000 
     53 H53         5.8946   52.7567   28.1130 H         1 UNK         0.0000 
     54 O54         1.0308   52.8999   31.1297 O.co2     1 UNK         0.0000 
@<TRIPOS>BOND
     1    1    5 2    
     2    1    2 1    
     3    1   31 1    
     4    2    3 2    
     5    2   32 1    
     6    3    4 1    
     7    3    6 1    
     8    4    5 1    
     9    5   33 1    
    10    6    7 1    
    11    6   34 1    
    12    6   35 1    
    13    7   11 ar   
    14    7    8 ar   
    15    8    9 ar   
    16    9   10 ar   
    17   10   11 ar   
    18   10   18 1    
    19   11   12 1    
    20   12   17 1    
    21   12   13 1    
    22   12   36 1    
    23   13   14 1    
    24   13   37 1    
    25   13   38 1    
    26   14   15 1    
    27   14   39 1    
    28   14   40 1    
    29   15   16 1    
    30   15   41 1    
    31   15   42 1    
    32   16   17 1    
    33   16   43 1    
    34   16   44 1    
    35   17   45 1    
    36   17   46 1    
    37   18   19 1    
    38   19   20 1    
    39   19   47 1    
    40   19   48 1    
    41   20   21 2    
    42   20   22 am   BACKBONE|DICT|INTERRES
    43   22   23 1    
    44   22   49 1    
    45   23   28 ar   
    46   23   24 ar   
    47   24   25 ar   
    48   24   50 1    
    49   25   26 ar   
    50   25   51 1    
    51   26   27 ar   
    52   26   29 1    
    53   27   28 ar   
    54   27   52 1    
    55   28   53 1    
    56   29   30 2    
    57   29   54 1    
@<TRIPOS>SUBSTRUCTURE
     1 UNK         1 GROUP             0       ****    0 ROOT    
