@<TRIPOS>MOLECULE
ZINC00192786_4769
32   33    1
SMALL
USER_CHARGES


@<TRIPOS>ATOM
      1 C1          7.3181   55.2366   22.0844 C.3       1 UNK         0.0000 
      2 C2          6.3050   54.8886   23.1579 C.ar      1 UNK         0.0000 
      3 C3          6.5865   55.1640   24.4958 C.ar      1 UNK         0.0000 
      4 C4          5.6719   54.8252   25.4896 C.ar      1 UNK         0.0000 
      5 C5          4.4506   54.2306   25.1479 C.ar      1 UNK         0.0000 
      6 C6          4.1580   53.9992   23.7938 C.ar      1 UNK         0.0000 
      7 C7          5.0883   54.3070   22.8060 C.ar      1 UNK         0.0000 
      8 C8          3.4944   53.8105   26.1893 C.2       1 UNK         0.0000 
      9 N9          2.2880   53.4712   25.9836 N.2       1 UNK         0.0000 
     10 N10         1.6897   52.9982   27.1241 N.pl3     1 UNK         0.0000 
     11 C11         2.5329   53.3346   28.2973 C.3       1 UNK         0.0000 
     12 C12         3.8795   53.6176   27.6289 C.3       1 UNK         0.0000 
     13 C13         1.9832   54.5774   29.0768 C.3       1 UNK         0.0000 
     14 F14         2.7955   54.8935   30.0811 F         1 UNK         0.0000 
     15 F15         1.8885   55.6651   28.3170 F         1 UNK         0.0000 
     16 F16         0.7840   54.3759   29.6180 F         1 UNK         0.0000 
     17 O17         2.7054   52.2782   29.2418 O.3       1 UNK         0.0000 
     18 C18         0.4957   52.3028   27.0169 C.2       1 UNK         0.0000 
     19 S19        -0.3878   51.6977   28.2858 S.2       1 UNK         0.0000 
     20 N20        -0.0170   52.0683   25.7823 N.pl3     1 UNK         0.0000 
     21 H21         7.7707   56.2060   22.2819 H         1 UNK         0.0000 
     22 H22         8.1192   54.4988   22.0803 H         1 UNK         0.0000 
     23 H23         6.8661   55.2858   21.0938 H         1 UNK         0.0000 
     24 H24         7.5185   55.6310   24.7651 H         1 UNK         0.0000 
     25 H25         5.9299   55.0290   26.5182 H         1 UNK         0.0000 
     26 H26         3.2244   53.5441   23.4963 H         1 UNK         0.0000 
     27 H27         4.8565   54.0993   21.7714 H         1 UNK         0.0000 
     28 H28         4.5550   52.7611   27.6825 H         1 UNK         0.0000 
     29 H29         4.3823   54.4789   28.0692 H         1 UNK         0.0000 
     30 H30         1.8478   52.0989   29.6438 H         1 UNK         0.0000 
     31 H31         0.4842   52.3863   24.9651 H         1 UNK         0.0000 
     32 H32        -0.8693   51.5328   25.6992 H         1 UNK         0.0000 
@<TRIPOS>BOND
     1    1    2 1    
     2    1   21 1    
     3    1   22 1    
     4    1   23 1    
     5    2    7 ar   
     6    2    3 ar   
     7    3    4 ar   
     8    3   24 1    
     9    4    5 ar   
    10    4   25 1    
    11    5    6 ar   
    12    5    8 1    
    13    6    7 ar   
    14    6   26 1    
    15    7   27 1    
    16    8   12 1    
    17    8    9 2    
    18    9   10 1    
    19   10   11 1    
    20   10   18 1    
    21   11   12 1    
    22   11   13 1    
    23   11   17 1    
    24   12   28 1    
    25   12   29 1    
    26   13   14 1    
    27   13   15 1    
    28   13   16 1    
    29   17   30 1    
    30   18   19 2    
    31   18   20 1    
    32   20   31 1    
    33   20   32 1    
@<TRIPOS>SUBSTRUCTURE
     1 UNK         1 GROUP             0       ****    0 ROOT    
