@<TRIPOS>MOLECULE
ZINC39633449_3666
65   68    1
SMALL
USER_CHARGES


@<TRIPOS>ATOM
      1 C1         -4.8947   49.8135   30.0976 C.ar      1 UNK         0.0000 
      2 C2         -4.4718   50.7157   29.1226 C.ar      1 UNK         0.0000 
      3 C3         -5.2137   50.8931   27.9469 C.ar      1 UNK         0.0000 
      4 C4         -6.3962   50.1588   27.7643 C.ar      1 UNK         0.0000 
      5 C5         -6.8197   49.2626   28.7482 C.ar      1 UNK         0.0000 
      6 C6         -6.0722   49.0746   29.9195 C.ar      1 UNK         0.0000 
      7 C7         -6.5207   48.0913   31.0009 C.3       1 UNK         0.0000 
      8 F8         -7.7989   47.7343   30.8480 F         1 UNK         0.0000 
      9 F9         -5.7645   46.9935   30.9345 F         1 UNK         0.0000 
     10 F10        -6.3862   48.6355   32.2126 F         1 UNK         0.0000 
     11 F11        -7.1368   50.2948   26.6380 F         1 UNK         0.0000 
     12 C12        -4.7177   51.8432   26.8847 C.2       1 UNK         0.0000 
     13 O13        -5.3599   52.8678   26.6430 O.2       1 UNK         0.0000 
     14 N14        -3.5411   51.5506   26.2802 N.am      1 UNK         0.0000 
     15 C15        -2.8356   52.5008   25.4150 C.3       1 UNK         0.0000 
     16 C16        -1.4006   51.9306   25.3212 C.3       1 UNK         0.0000 
     17 H17        -0.9558   52.1612   24.3563 H         1 UNK         0.0000 
     18 C18        -1.6281   50.3926   25.4619 C.3       1 UNK         0.0000 
     19 C19        -2.7793   50.3170   26.4809 C.3       1 UNK         0.0000 
     20 C20        -0.4459   49.4951   25.9020 C.3       1 UNK         0.0000 
     21 C21         0.7023   49.5522   24.8895 C.3       1 UNK         0.0000 
     22 N22         0.1917   49.0271   23.5343 N.4       1 UNK         0.0000 
     23 C23        -1.0759   49.7491   23.0214 C.3       1 UNK         0.0000 
     24 C24        -2.1411   49.7380   24.1423 C.3       1 UNK         0.0000 
     25 C25        -0.4591   52.4773   26.4316 C.2       1 UNK         0.0000 
     26 O26        -0.8921   52.7130   27.5582 O.2       1 UNK         0.0000 
     27 N27         0.7991   52.7764   26.0556 N.am      1 UNK         0.0000 
     28 C28         1.8619   53.3954   26.8601 C.3       1 UNK         0.0000 
     29 C29         2.1758   52.5560   28.1345 C.3       1 UNK         0.0000 
     30 C30         3.4845   52.7975   28.9132 C.3       1 UNK         0.0000 
     31 C31         4.0759   54.2146   28.8728 C.3       1 UNK         0.0000 
     32 C32         4.8951   54.4678   27.5975 C.3       1 UNK         0.0000 
     33 C33         4.0568   54.7667   26.3466 C.3       1 UNK         0.0000 
     34 C34         3.0543   53.6875   25.9110 C.3       1 UNK         0.0000 
     35 H35        -4.2903   49.6837   30.9861 H         1 UNK         0.0000 
     36 H36        -3.5460   51.2559   29.2824 H         1 UNK         0.0000 
     37 H37        -7.7328   48.7067   28.5844 H         1 UNK         0.0000 
     38 H38        -2.8329   53.5241   25.7928 H         1 UNK         0.0000 
     39 H39        -3.2784   52.5041   24.4179 H         1 UNK         0.0000 
     40 H40        -3.3441   49.3849   26.4246 H         1 UNK         0.0000 
     41 H41        -2.3415   50.3499   27.4807 H         1 UNK         0.0000 
     42 H42        -0.0758   49.8051   26.8813 H         1 UNK         0.0000 
     43 H43        -0.7702   48.4658   26.0760 H         1 UNK         0.0000 
     44 H44         1.1058   50.5474   24.7093 H         1 UNK         0.0000 
     45 H45         1.5041   48.8957   25.1998 H         1 UNK         0.0000 
     46 H46         0.9334   49.0872   22.8477 H         1 UNK         0.0000 
     47 H47        -0.7668   50.7470   22.7097 H         1 UNK         0.0000 
     48 H48        -1.4019   49.2024   22.1361 H         1 UNK         0.0000 
     49 H49        -2.4778   48.7158   24.3245 H         1 UNK         0.0000 
     50 H50        -3.0340   50.2549   23.7837 H         1 UNK         0.0000 
     51 H51         1.0428   52.6121   25.0927 H         1 UNK         0.0000 
     52 H52         1.4776   54.3644   27.1837 H         1 UNK         0.0000 
     53 H53         2.0893   51.4912   27.9103 H         1 UNK         0.0000 
     54 H54         1.3637   52.7433   28.8407 H         1 UNK         0.0000 
     55 H55         4.2419   52.0971   28.5619 H         1 UNK         0.0000 
     56 H56         3.3157   52.5186   29.9525 H         1 UNK         0.0000 
     57 H57         4.7369   54.3383   29.7310 H         1 UNK         0.0000 
     58 H58         3.2962   54.9696   28.9960 H         1 UNK         0.0000 
     59 H59         5.5545   53.6194   27.4014 H         1 UNK         0.0000 
     60 H60         5.5717   55.2997   27.7758 H         1 UNK         0.0000 
     61 H61         4.7419   54.9584   25.5177 H         1 UNK         0.0000 
     62 H62         3.5087   55.6965   26.4816 H         1 UNK         0.0000 
     63 H63         2.6792   53.9913   24.9302 H         1 UNK         0.0000 
     64 H64         3.6030   52.7690   25.7415 H         1 UNK         0.0000 
     65 H65        -0.0173   48.0448   23.6451 H         1 UNK         0.0000 
@<TRIPOS>BOND
     1    1    6 ar   
     2    1    2 ar   
     3    1   35 1    
     4    2    3 ar   
     5    2   36 1    
     6    3    4 ar   
     7    3   12 1    
     8    4    5 ar   
     9    4   11 1    
    10    5    6 ar   
    11    5   37 1    
    12    6    7 1    
    13    7    8 1    
    14    7    9 1    
    15    7   10 1    
    16   12   13 2    
    17   12   14 am   BACKBONE|DICT|INTERRES
    18   14   19 1    
    19   14   15 1    
    20   15   16 1    
    21   15   38 1    
    22   15   39 1    
    23   16   17 1    
    24   16   18 1    
    25   16   25 1    
    26   18   24 1    
    27   18   19 1    
    28   18   20 1    
    29   19   40 1    
    30   19   41 1    
    31   20   21 1    
    32   20   42 1    
    33   20   43 1    
    34   21   22 1    
    35   21   44 1    
    36   21   45 1    
    37   22   23 1    
    38   22   46 1    
    39   22   65 1    
    40   23   24 1    
    41   23   47 1    
    42   23   48 1    
    43   24   49 1    
    44   24   50 1    
    45   25   26 2    
    46   25   27 am   BACKBONE|DICT|INTERRES
    47   27   28 1    
    48   27   51 1    
    49   28   34 1    
    50   28   29 1    
    51   28   52 1    
    52   29   30 1    
    53   29   53 1    
    54   29   54 1    
    55   30   31 1    
    56   30   55 1    
    57   30   56 1    
    58   31   32 1    
    59   31   57 1    
    60   31   58 1    
    61   32   33 1    
    62   32   59 1    
    63   32   60 1    
    64   33   34 1    
    65   33   61 1    
    66   33   62 1    
    67   34   63 1    
    68   34   64 1    
@<TRIPOS>SUBSTRUCTURE
     1 UNK         1 GROUP             0       ****    0 ROOT    
