@<TRIPOS>MOLECULE
ZINC01933535_2589
49   52    1
SMALL
USER_CHARGES


@<TRIPOS>ATOM
      1 C1          6.4018   55.2324   19.7694 C.ar      1 UNK         0.0000 
      2 C2          5.2801   54.5125   20.1703 C.ar      1 UNK         0.0000 
      3 C3          5.0627   54.2628   21.5218 C.ar      1 UNK         0.0000 
      4 C4          5.9737   54.7251   22.4908 C.ar      1 UNK         0.0000 
      5 C5          7.1034   55.4389   22.0615 C.ar      1 UNK         0.0000 
      6 C6          7.3158   55.6961   20.7095 C.ar      1 UNK         0.0000 
      7 C7          5.7608   54.4863   23.9730 C.2       1 UNK         0.0000 
      8 O8          6.7047   54.6059   24.7555 O.2       1 UNK         0.0000 
      9 N9          4.4915   54.1698   24.3282 N.am      1 UNK         0.0000 
     10 C10         3.9729   53.8817   25.5977 C.2       1 UNK         0.0000 
     11 C11         2.6992   53.3226   25.8930 C.2       1 UNK         0.0000 
     12 C12         2.4638   53.2796   27.3004 C.2       1 UNK         0.0000 
     13 C13         3.5938   53.6500   28.0433 C.2       1 UNK         0.0000 
     14 S14         4.8905   54.1893   27.0499 S.3       1 UNK         0.0000 
     15 C15         3.7045   53.6261   29.5548 C.3       1 UNK         0.0000 
     16 C16         2.6443   52.6570   30.1078 C.3       1 UNK         0.0000 
     17 C17         1.2552   52.9828   29.5389 C.3       1 UNK         0.0000 
     18 C18         1.1816   52.8007   28.0047 C.3       1 UNK         0.0000 
     19 C19         1.6999   52.8993   24.9090 C.2       1 UNK         0.0000 
     20 O20         0.5036   52.8959   25.1878 O.2       1 UNK         0.0000 
     21 N21         2.2010   52.4999   23.7190 N.am      1 UNK         0.0000 
     22 C22         1.5366   52.0886   22.5467 C.ar      1 UNK         0.0000 
     23 C23         2.3522   51.7116   21.4777 C.ar      1 UNK         0.0000 
     24 C24         1.7896   51.3476   20.2544 C.ar      1 UNK         0.0000 
     25 C25         0.4031   51.3531   20.0917 C.ar      1 UNK         0.0000 
     26 C26        -0.4370   51.6956   21.1603 C.ar      1 UNK         0.0000 
     27 C27         0.1411   52.0569   22.3837 C.ar      1 UNK         0.0000 
     28 C28        -1.9236   51.6945   21.0046 C.2       1 UNK         0.0000 
     29 O29        -2.6074   51.3606   21.9968 O.co2     1 UNK         0.0000 
     30 H30         6.5663   55.4283   18.7207 H         1 UNK         0.0000 
     31 H31         4.5745   54.1526   19.4344 H         1 UNK         0.0000 
     32 H32         4.1754   53.7135   21.7862 H         1 UNK         0.0000 
     33 H33         7.8261   55.8146   22.7719 H         1 UNK         0.0000 
     34 H34         8.1914   56.2445   20.3904 H         1 UNK         0.0000 
     35 H35         3.8321   54.1171   23.5681 H         1 UNK         0.0000 
     36 H36         4.7037   53.3152   29.8651 H         1 UNK         0.0000 
     37 H37         3.5494   54.6292   29.9546 H         1 UNK         0.0000 
     38 H38         2.9121   51.6326   29.8454 H         1 UNK         0.0000 
     39 H39         2.6233   52.6972   31.1973 H         1 UNK         0.0000 
     40 H40         0.4978   52.3589   30.0185 H         1 UNK         0.0000 
     41 H41         0.9962   54.0126   29.7946 H         1 UNK         0.0000 
     42 H42         0.3065   53.3444   27.6464 H         1 UNK         0.0000 
     43 H43         1.0003   51.7506   27.7703 H         1 UNK         0.0000 
     44 H44         3.2066   52.4644   23.6633 H         1 UNK         0.0000 
     45 H45         3.4281   51.6997   21.5833 H         1 UNK         0.0000 
     46 H46         2.4310   51.0701   19.4286 H         1 UNK         0.0000 
     47 H47        -0.0157   51.0839   19.1344 H         1 UNK         0.0000 
     48 H48        -0.5227   52.3328   23.1897 H         1 UNK         0.0000 
     49 O49        -2.4004   52.0957   19.9178 O.co2     1 UNK         0.0000 
@<TRIPOS>BOND
     1    1    6 ar   
     2    1    2 ar   
     3    1   30 1    
     4    2    3 ar   
     5    2   31 1    
     6    3    4 ar   
     7    3   32 1    
     8    4    5 ar   
     9    4    7 1    
    10    5    6 ar   
    11    5   33 1    
    12    6   34 1    
    13    7    8 2    
    14    7    9 am   BACKBONE|DICT|INTERRES
    15    9   10 am   BACKBONE|DICT|INTERRES
    16    9   35 1    
    17   10   14 1    
    18   10   11 2    
    19   11   12 1    
    20   11   19 1    
    21   12   18 1    
    22   12   13 2    
    23   13   14 1    
    24   13   15 1    
    25   15   16 1    
    26   15   36 1    
    27   15   37 1    
    28   16   17 1    
    29   16   38 1    
    30   16   39 1    
    31   17   18 1    
    32   17   40 1    
    33   17   41 1    
    34   18   42 1    
    35   18   43 1    
    36   19   20 2    
    37   19   21 am   BACKBONE|DICT|INTERRES
    38   21   22 1    
    39   21   44 1    
    40   22   27 ar   
    41   22   23 ar   
    42   23   24 ar   
    43   23   45 1    
    44   24   25 ar   
    45   24   46 1    
    46   25   26 ar   
    47   25   47 1    
    48   26   27 ar   
    49   26   28 1    
    50   27   48 1    
    51   28   29 2    
    52   28   49 1    
@<TRIPOS>SUBSTRUCTURE
     1 UNK         1 GROUP             0       ****    0 ROOT    
