@<TRIPOS>MOLECULE
ZINC12465563_3374
58   61    1
SMALL
USER_CHARGES


@<TRIPOS>ATOM
      1 C1          1.6181   56.7983   29.8642 C.3       1 UNK         0.0000 
      2 O2          1.0546   55.7022   30.5880 O.3       1 UNK         0.0000 
      3 C3          0.9793   54.4007   30.0583 C.2       1 UNK         0.0000 
      4 O4          0.4582   53.4645   30.6599 O.2       1 UNK         0.0000 
      5 N5          1.5623   54.3132   28.8415 N.am      1 UNK         0.0000 
      6 C6          1.5683   53.2651   27.9890 C.2       1 UNK         0.0000 
      7 O7          0.9638   52.2025   28.1348 O.2       1 UNK         0.0000 
      8 C8          2.3297   53.5403   26.7877 C.2       1 UNK         0.0000 
      9 C9          3.6535   54.0695   26.7837 C.2       1 UNK         0.0000 
     10 C10         4.0971   54.3932   25.4900 C.2       1 UNK         0.0000 
     11 S11         2.9813   53.8014   24.2995 S.3       1 UNK         0.0000 
     12 C12         1.8889   53.1968   25.5044 C.2       1 UNK         0.0000 
     13 N13         0.7187   52.4987   25.2030 N.am      1 UNK         0.0000 
     14 C14         0.1643   52.2481   23.9970 C.2       1 UNK         0.0000 
     15 O15         0.5584   52.7334   22.9351 O.2       1 UNK         0.0000 
     16 C16        -1.1589   51.4520   24.0471 C.3       1 UNK         0.0000 
     17 H17        -1.0186   50.6832   24.8095 H         1 UNK         0.0000 
     18 C18        -1.5966   50.8386   22.6970 C.3       1 UNK         0.0000 
     19 C19        -3.0763   51.1541   22.5798 C.3       1 UNK         0.0000 
     20 C20        -3.2266   52.5004   23.2823 C.3       1 UNK         0.0000 
     21 N21        -2.2777   52.3752   24.4071 N.pl3     1 UNK         0.0000 
     22 S22        -2.9351   52.3538   26.0426 S.o2      1 UNK         0.0000 
     23 O23        -1.8349   52.0972   26.9757 O.2       1 UNK         0.0000 
     24 O24        -3.8409   53.4992   26.1929 O.2       1 UNK         0.0000 
     25 C25        -3.9641   50.8729   25.9915 C.2       1 UNK         0.0000 
     26 C26        -5.3542   50.8610   25.9513 C.2       1 UNK         0.0000 
     27 C27        -5.8791   49.5658   25.9684 C.2       1 UNK         0.0000 
     28 C28        -4.8898   48.5919   26.0336 C.2       1 UNK         0.0000 
     29 S29        -3.2971   49.2759   26.0812 S.3       1 UNK         0.0000 
     30 C30         5.3833   55.0983   25.1050 C.3       1 UNK         0.0000 
     31 C31         6.6536   54.3271   25.4914 C.3       1 UNK         0.0000 
     32 C32         6.9458   54.3307   27.0007 C.3       1 UNK         0.0000 
     33 C33         5.9349   53.5944   27.8874 C.3       1 UNK         0.0000 
     34 C34         4.5460   54.2477   28.0122 C.3       1 UNK         0.0000 
     35 H35         1.5057   57.7035   30.4579 H         1 UNK         0.0000 
     36 H36         2.6829   56.6512   29.6763 H         1 UNK         0.0000 
     37 H37         1.1042   56.9578   28.9158 H         1 UNK         0.0000 
     38 H38         2.0184   55.1465   28.5111 H         1 UNK         0.0000 
     39 H39         0.2076   52.1687   26.0137 H         1 UNK         0.0000 
     40 H40        -1.0655   51.2504   21.8374 H         1 UNK         0.0000 
     41 H41        -1.4301   49.7602   22.6800 H         1 UNK         0.0000 
     42 H42        -3.4055   51.1840   21.5408 H         1 UNK         0.0000 
     43 H43        -3.6781   50.3967   23.0878 H         1 UNK         0.0000 
     44 H44        -2.8829   53.2956   22.6213 H         1 UNK         0.0000 
     45 H45        -4.2231   52.8114   23.5992 H         1 UNK         0.0000 
     46 H46        -5.9606   51.7555   25.9162 H         1 UNK         0.0000 
     47 H47        -6.9370   49.3468   25.9467 H         1 UNK         0.0000 
     48 H48        -5.0169   47.5209   26.0749 H         1 UNK         0.0000 
     49 H49         5.4226   56.0802   25.5802 H         1 UNK         0.0000 
     50 H50         5.4018   55.2959   24.0347 H         1 UNK         0.0000 
     51 H51         7.5040   54.7746   24.9727 H         1 UNK         0.0000 
     52 H52         6.5963   53.3008   25.1238 H         1 UNK         0.0000 
     53 H53         7.0627   55.3562   27.3531 H         1 UNK         0.0000 
     54 H54         7.9045   53.8553   27.1708 H         1 UNK         0.0000 
     55 H55         6.3727   53.5320   28.8819 H         1 UNK         0.0000 
     56 H56         5.8277   52.5610   27.5566 H         1 UNK         0.0000 
     57 H57         4.0987   53.7931   28.8954 H         1 UNK         0.0000 
     58 H58         4.6598   55.2967   28.2638 H         1 UNK         0.0000 
@<TRIPOS>BOND
     1    1    2 1    
     2    1   35 1    
     3    1   36 1    
     4    1   37 1    
     5    2    3 1    
     6    3    4 2    
     7    3    5 am   BACKBONE|DICT|INTERRES
     8    5    6 am   BACKBONE|DICT|INTERRES
     9    5   38 1    
    10    6    7 2    
    11    6    8 1    
    12    8   12 2    
    13    8    9 1    
    14    9   34 1    
    15    9   10 2    
    16   10   11 1    
    17   10   30 1    
    18   11   12 1    
    19   12   13 am   BACKBONE|DICT|INTERRES
    20   13   14 am   BACKBONE|DICT|INTERRES
    21   13   39 1    
    22   14   15 2    
    23   14   16 1    
    24   16   17 1    
    25   16   21 1    
    26   16   18 1    
    27   18   19 1    
    28   18   40 1    
    29   18   41 1    
    30   19   20 1    
    31   19   42 1    
    32   19   43 1    
    33   20   21 1    
    34   20   44 1    
    35   20   45 1    
    36   21   22 1    
    37   22   23 2    
    38   22   24 2    
    39   22   25 1    
    40   25   29 1    
    41   25   26 2    
    42   26   27 1    
    43   26   46 1    
    44   27   28 2    
    45   27   47 1    
    46   28   29 1    
    47   28   48 1    
    48   30   31 1    
    49   30   49 1    
    50   30   50 1    
    51   31   32 1    
    52   31   51 1    
    53   31   52 1    
    54   32   33 1    
    55   32   53 1    
    56   32   54 1    
    57   33   34 1    
    58   33   55 1    
    59   33   56 1    
    60   34   57 1    
    61   34   58 1    
@<TRIPOS>SUBSTRUCTURE
     1 UNK         1 GROUP             0       ****    0 ROOT    
