@<TRIPOS>MOLECULE
ZINC35147460_5685
72   76    1
SMALL
USER_CHARGES


@<TRIPOS>ATOM
      1 C1          3.9676   58.4758   16.3777 C.3       1 UNK         0.0000 
      2 C2          4.2830   57.1082   16.9602 C.ar      1 UNK         0.0000 
      3 C3          5.5535   56.8385   17.4703 C.ar      1 UNK         0.0000 
      4 C4          5.8258   55.5959   18.0376 C.ar      1 UNK         0.0000 
      5 C5          4.8241   54.6243   18.1171 C.ar      1 UNK         0.0000 
      6 C6          3.5641   54.8834   17.5682 C.ar      1 UNK         0.0000 
      7 C7          3.2937   56.1240   16.9951 C.ar      1 UNK         0.0000 
      8 C8          5.0965   53.2948   18.8226 C.3       1 UNK         0.0000 
      9 N9          4.0881   52.9201   19.9450 N.4       1 UNK         0.0000 
     10 C10         4.3326   51.5733   20.6642 C.3       1 UNK         0.0000 
     11 C11         3.0428   50.7903   20.8361 C.ar      1 UNK         0.0000 
     12 C12         2.3486   50.8209   22.0493 C.ar      1 UNK         0.0000 
     13 C13         1.1856   50.0703   22.2011 C.ar      1 UNK         0.0000 
     14 C14         0.7185   49.2969   21.1407 C.ar      1 UNK         0.0000 
     15 C15         1.4063   49.2640   19.9303 C.ar      1 UNK         0.0000 
     16 C16         2.5698   50.0117   19.7765 C.ar      1 UNK         0.0000 
     17 F17        -0.4111   48.5686   21.2878 F         1 UNK         0.0000 
     18 C18         3.7828   54.0541   20.9452 C.3       1 UNK         0.0000 
     19 C19         4.9528   54.3721   21.8488 C.2       1 UNK         0.0000 
     20 N20         4.9440   54.0798   23.1262 N.2       1 UNK         0.0000 
     21 C21         5.9044   54.6794   23.8066 C.2       1 UNK         0.0000 
     22 C22         6.8431   55.3134   22.9975 C.2       1 UNK         0.0000 
     23 S23         6.3302   55.2967   21.3520 S.3       1 UNK         0.0000 
     24 C24         5.9974   54.6059   25.2577 C.2       1 UNK         0.0000 
     25 O25         7.1044   54.7763   25.7629 O.2       1 UNK         0.0000 
     26 N26         4.8957   54.3855   26.0323 N.am      1 UNK         0.0000 
     27 C27         3.5374   54.7728   25.6200 C.3       1 UNK         0.0000 
     28 C28         2.5152   53.8205   26.2574 C.3       1 UNK         0.0000 
     29 N29         2.6190   53.7999   27.7149 N.pl3     1 UNK         0.0000 
     30 C30         3.9804   53.4672   28.1487 C.3       1 UNK         0.0000 
     31 C31         5.1065   54.2923   27.4926 C.3       1 UNK         0.0000 
     32 C32         1.5594   53.3734   28.4967 C.ar      1 UNK         0.0000 
     33 C33         0.8738   52.1975   28.1679 C.ar      1 UNK         0.0000 
     34 C34        -0.1148   51.6967   29.0081 C.ar      1 UNK         0.0000 
     35 C35        -0.3950   52.3350   30.2109 C.ar      1 UNK         0.0000 
     36 C36         0.2715   53.5105   30.5501 C.ar      1 UNK         0.0000 
     37 C37         1.2328   54.0489   29.6899 C.ar      1 UNK         0.0000 
     38 C38         1.8698   55.3898   30.0400 C.3       1 UNK         0.0000 
     39 H39         3.7148   58.3906   15.3206 H         1 UNK         0.0000 
     40 H40         3.1059   58.9153   16.8827 H         1 UNK         0.0000 
     41 H41         4.7990   59.1757   16.4797 H         1 UNK         0.0000 
     42 H42         6.3268   57.5927   17.4357 H         1 UNK         0.0000 
     43 H43         6.8123   55.4025   18.4332 H         1 UNK         0.0000 
     44 H44         2.7829   54.1382   17.6105 H         1 UNK         0.0000 
     45 H45         2.3102   56.3259   16.5960 H         1 UNK         0.0000 
     46 H46         6.0852   53.2509   19.2803 H         1 UNK         0.0000 
     47 H47         5.0270   52.4967   18.0881 H         1 UNK         0.0000 
     48 H48         5.0541   51.0136   20.0817 H         1 UNK         0.0000 
     49 H49         4.8200   51.7751   21.6180 H         1 UNK         0.0000 
     50 H50         2.7042   51.4190   22.8753 H         1 UNK         0.0000 
     51 H51         0.6471   50.0823   23.1374 H         1 UNK         0.0000 
     52 H52         1.0411   48.6589   19.1138 H         1 UNK         0.0000 
     53 H53         3.1043   49.9769   18.8356 H         1 UNK         0.0000 
     54 H54         2.8833   53.7297   21.4728 H         1 UNK         0.0000 
     55 H55         3.5044   54.8967   20.3263 H         1 UNK         0.0000 
     56 H56         7.7319   55.8521   23.2899 H         1 UNK         0.0000 
     57 H57         3.3407   54.8383   24.5566 H         1 UNK         0.0000 
     58 H58         3.3666   55.7602   26.0354 H         1 UNK         0.0000 
     59 H59         2.6949   52.8131   25.8785 H         1 UNK         0.0000 
     60 H60         1.5042   54.0972   25.9619 H         1 UNK         0.0000 
     61 H61         4.0703   53.5022   29.2348 H         1 UNK         0.0000 
     62 H62         4.1306   52.4320   27.8420 H         1 UNK         0.0000 
     63 H63         5.0463   55.2932   27.9235 H         1 UNK         0.0000 
     64 H64         6.0540   53.8193   27.7597 H         1 UNK         0.0000 
     65 H65         1.1155   51.6536   27.2665 H         1 UNK         0.0000 
     66 H66        -0.6422   50.7927   28.7409 H         1 UNK         0.0000 
     67 H67        -1.1320   51.9142   30.8815 H         1 UNK         0.0000 
     68 H68         0.0221   54.0044   31.4787 H         1 UNK         0.0000 
     69 H69         1.6489   56.1158   29.2562 H         1 UNK         0.0000 
     70 H70         1.5042   55.7972   30.9832 H         1 UNK         0.0000 
     71 H71         2.9539   55.2977   30.0834 H         1 UNK         0.0000 
     72 H72         3.2218   52.7728   19.4438 H         1 UNK         0.0000 
@<TRIPOS>BOND
     1    1    2 1    
     2    1   39 1    
     3    1   40 1    
     4    1   41 1    
     5    2    7 ar   
     6    2    3 ar   
     7    3    4 ar   
     8    3   42 1    
     9    4    5 ar   
    10    4   43 1    
    11    5    6 ar   
    12    5    8 1    
    13    6    7 ar   
    14    6   44 1    
    15    7   45 1    
    16    8    9 1    
    17    8   46 1    
    18    8   47 1    
    19    9   10 1    
    20    9   18 1    
    21    9   72 1    
    22   10   11 1    
    23   10   48 1    
    24   10   49 1    
    25   11   16 ar   
    26   11   12 ar   
    27   12   13 ar   
    28   12   50 1    
    29   13   14 ar   
    30   13   51 1    
    31   14   15 ar   
    32   14   17 1    
    33   15   16 ar   
    34   15   52 1    
    35   16   53 1    
    36   18   19 1    
    37   18   54 1    
    38   18   55 1    
    39   19   23 1    
    40   19   20 2    
    41   20   21 1    
    42   21   22 2    
    43   21   24 1    
    44   22   23 1    
    45   22   56 1    
    46   24   25 2    
    47   24   26 am   BACKBONE|DICT|INTERRES
    48   26   31 1    
    49   26   27 1    
    50   27   28 1    
    51   27   57 1    
    52   27   58 1    
    53   28   29 1    
    54   28   59 1    
    55   28   60 1    
    56   29   30 1    
    57   29   32 1    
    58   30   31 1    
    59   30   61 1    
    60   30   62 1    
    61   31   63 1    
    62   31   64 1    
    63   32   37 ar   
    64   32   33 ar   
    65   33   34 ar   
    66   33   65 1    
    67   34   35 ar   
    68   34   66 1    
    69   35   36 ar   
    70   35   67 1    
    71   36   37 ar   
    72   36   68 1    
    73   37   38 1    
    74   38   69 1    
    75   38   70 1    
    76   38   71 1    
@<TRIPOS>SUBSTRUCTURE
     1 UNK         1 GROUP             0       ****    0 ROOT    
