ZINC65356057_1718
                    3D
 Schrodinger Suite 2024-2.
 32 33  0  0  1  0            999 V2000
   -0.0817   52.0252   29.6921 C   0  0  0  0  0  0
    1.4320   52.9848   30.2566 S   0  0  0  0  0  0
    2.2911   52.0970   31.0494 O   0  0  0  0  0  0
    0.9727   54.2718   30.7868 O   0  0  0  0  0  0
    2.3005   53.3441   28.7403 C   0  0  0  0  0  0
    3.6567   53.0586   28.5927 C   0  0  0  0  0  0
    4.2815   53.2967   27.3687 C   0  0  0  0  0  0
    3.5756   53.8129   26.2706 C   0  0  0  0  0  0
    2.2207   54.0962   26.4641 C   0  0  0  0  0  0
    1.5881   53.8882   27.6820 C   0  0  0  0  0  0
    4.1728   53.9915   24.8950 C   0  0  0  0  0  0
    3.3602   53.6965   23.7792 C   0  0  0  0  0  0
    3.8256   53.8426   22.4733 C   0  0  0  0  0  0
    5.1272   54.2768   22.2658 C   0  0  0  0  0  0
    5.9048   54.5309   23.3305 N   0  3  0  0  0  0
    5.4967   54.4306   24.6161 C   0  0  0  0  0  0
    6.4807   54.8738   25.6331 C   0  0  0  0  0  0
    6.7045   56.0965   25.6817 O   0  0  0  0  0  0
    7.1043   54.0078   26.2772 O   0  5  0  0  0  0
    5.6140   54.4974   20.9659 N   0  0  0  0  0  0
   -0.6293   51.6965   30.5747 H   0  0  0  0  0  0
   -0.7142   52.6695   29.0904 H   0  0  0  0  0  0
    0.2403   51.1692   29.1037 H   0  0  0  0  0  0
    4.2217   52.6226   29.4042 H   0  0  0  0  0  0
    5.3030   52.9728   27.2786 H   0  0  0  0  0  0
    1.6269   54.4798   25.6486 H   0  0  0  0  0  0
    0.5403   54.1221   27.7906 H   0  0  0  0  0  0
    2.3505   53.3351   23.9094 H   0  0  0  0  0  0
    3.1731   53.6309   21.6375 H   0  0  0  0  0  0
    5.0190   54.3040   20.1712 H   0  0  0  0  0  0
    6.5443   54.8569   20.8083 H   0  0  0  0  0  0
    6.8416   54.8705   23.1651 H   0  0  0  0  0  0
  1  2  1  0  0  0
  1 21  1  0  0  0
  1 22  1  0  0  0
  1 23  1  0  0  0
  2  3  2  0  0  0
  2  4  2  0  0  0
  2  5  1  0  0  0
  5 10  2  0  0  0
  5  6  1  0  0  0
  6  7  2  0  0  0
  6 24  1  0  0  0
  7  8  1  0  0  0
  7 25  1  0  0  0
  8  9  2  0  0  0
  8 11  1  0  0  0
  9 10  1  0  0  0
  9 26  1  0  0  0
 10 27  1  0  0  0
 11 16  2  0  0  0
 11 12  1  0  0  0
 12 13  2  0  0  0
 12 28  1  0  0  0
 13 14  1  0  0  0
 13 29  1  0  0  0
 14 15  2  0  0  0
 14 20  1  0  0  0
 15 16  1  0  0  0
 15 32  1  0  0  0
 16 17  1  0  0  0
 17 18  2  0  0  0
 17 19  1  0  0  0
 20 30  1  0  0  0
 20 31  1  0  0  0
M  CHG  2  15   1  19  -1
M  END
> <i_i_glide_confnum>
1

> <i_i_glide_lignum>
1719

> <i_i_glide_posenum>
130

> <i_i_glide_rotatable_bonds>
3

> <i_m_Source_File_Index>
1304

> <b_m_subgroup_collapsed>
0

> <r_i_docking_score>
-6.39651

> <r_i_glide_ecoul>
-6.41381

> <r_i_glide_eff_state_penalty>
0

> <r_i_glide_einternal>
4.21572

> <r_i_glide_emodel>
-47.958

> <r_i_glide_energy>
-32.1758

> <r_i_glide_erotb>
0.213643

> <r_i_glide_esite>
-0.0691283

> <r_i_glide_evdw>
-25.762

> <r_i_glide_gscore>
-6.39651

> <r_i_glide_hbond>
-0.194067

> <r_i_glide_ligand_efficiency>
-0.319826

> <r_i_glide_ligand_efficiency_ln>
-1.60084

> <r_i_glide_ligand_efficiency_sa>
-0.86814

> <r_i_glide_lipo>
-2.1113

> <r_i_glide_metal>
0

> <r_i_glide_rewards>
-1.98549

> <s_i_glide_gridfile>
wee1_glide-grid

> <s_m_Source_File>
wee1_decoys_glide_SP.sdf

> <s_m_Source_Path>
/Users/zhangxujun/Desktop

> <s_m_entry_id>
1579

> <s_m_entry_name>
wee1_decoys_glide_SP.1304

> <s_m_subgroup_title>
wee1_decoys_glide_SP

> <s_m_subgroupid>
wee1_decoys_glide_SP


$$$$
