@<TRIPOS>MOLECULE
ZINC36063103_5808
60   63    1
SMALL
USER_CHARGES


@<TRIPOS>ATOM
      1 C1          1.2777   51.9968   27.3924 C.3       1 UNK         0.0000 
      2 C2          1.0116   52.4571   25.9574 C.3       1 UNK         0.0000 
      3 O3          2.2294   52.8234   25.3159 O.3       1 UNK         0.0000 
      4 C4          2.2293   53.6774   24.2737 C.2       1 UNK         0.0000 
      5 O5          1.2148   54.2310   23.8470 O.2       1 UNK         0.0000 
      6 C6          3.5446   53.8730   23.6415 C.2       1 UNK         0.0000 
      7 C7          4.7212   54.0959   24.3289 C.2       1 UNK         0.0000 
      8 N8          5.8780   54.4253   23.6786 N.2       1 UNK         0.0000 
      9 C9          5.8896   54.5169   22.4095 C.2       1 UNK         0.0000 
     10 N10         4.8544   54.2280   21.5244 N.pl3     1 UNK         0.0000 
     11 C11         3.5132   53.8540   22.0749 C.3       1 UNK         0.0000 
     12 H12         2.8659   54.6745   21.7605 H         1 UNK         0.0000 
     13 C13         2.8897   52.5852   21.4357 C.ar      1 UNK         0.0000 
     14 C14         1.4973   52.4977   21.2913 C.ar      1 UNK         0.0000 
     15 C15         0.9044   51.4160   20.6504 C.ar      1 UNK         0.0000 
     16 C16         1.7075   50.4177   20.1163 C.ar      1 UNK         0.0000 
     17 C17         3.0895   50.4980   20.2298 C.ar      1 UNK         0.0000 
     18 C18         3.6841   51.5596   20.9074 C.ar      1 UNK         0.0000 
     19 Cl19        0.9900   49.0813   19.2935 Cl        1 UNK         0.0000 
     20 C20         5.1375   54.5008   20.1870 C.2       1 UNK         0.0000 
     21 C21         6.3369   55.0916   20.0374 C.2       1 UNK         0.0000 
     22 S22         7.2162   55.2991   21.5401 S.3       1 UNK         0.0000 
     23 C23         4.2700   54.1642   19.0650 C.2       1 UNK         0.0000 
     24 C24         4.6026   53.9905   17.7710 C.2       1 UNK         0.0000 
     25 O25         5.7142   54.1284   17.1463 O.co2     1 UNK         0.0000 
     26 N26         3.6612   53.6095   16.8600 N.pl3     1 UNK         0.0000 
     27 C27         3.2812   52.2108   16.6970 C.3       1 UNK         0.0000 
     28 C28         1.9361   52.0086   15.9695 C.3       1 UNK         0.0000 
     29 O29         0.7783   52.1200   16.7997 O.3       1 UNK         0.0000 
     30 C30         0.5627   53.3833   17.4139 C.3       1 UNK         0.0000 
     31 C31         4.9148   54.2041   25.8192 C.ar      1 UNK         0.0000 
     32 C32         6.0698   53.7001   26.4430 C.ar      1 UNK         0.0000 
     33 C33         6.2449   53.7883   27.8215 C.ar      1 UNK         0.0000 
     34 C34         5.2571   54.3820   28.6008 C.ar      1 UNK         0.0000 
     35 C35         4.1075   54.8901   28.0142 C.ar      1 UNK         0.0000 
     36 C36         3.9627   54.8232   26.6336 C.ar      1 UNK         0.0000 
     37 H37         0.3455   51.7540   27.9003 H         1 UNK         0.0000 
     38 H38         1.8975   51.1058   27.4135 H         1 UNK         0.0000 
     39 H39         1.7756   52.7741   27.9686 H         1 UNK         0.0000 
     40 H40         0.3174   53.2961   25.9839 H         1 UNK         0.0000 
     41 H41         0.5299   51.6604   25.3865 H         1 UNK         0.0000 
     42 H42         0.8606   53.2941   21.6401 H         1 UNK         0.0000 
     43 H43        -0.1688   51.3672   20.5428 H         1 UNK         0.0000 
     44 H44         3.6863   49.7360   19.7551 H         1 UNK         0.0000 
     45 H45         4.7606   51.6103   20.9679 H         1 UNK         0.0000 
     46 H46         6.7861   55.3969   19.1036 H         1 UNK         0.0000 
     47 H47         3.2276   54.0231   19.2963 H         1 UNK         0.0000 
     48 H48         3.8118   54.0200   15.9524 H         1 UNK         0.0000 
     49 H49         3.2483   51.6996   17.6624 H         1 UNK         0.0000 
     50 H50         4.0805   51.7316   16.1317 H         1 UNK         0.0000 
     51 H51         1.9145   50.9892   15.5818 H         1 UNK         0.0000 
     52 H52         1.8522   52.6643   15.1009 H         1 UNK         0.0000 
     53 H53        -0.4234   53.4055   17.8767 H         1 UNK         0.0000 
     54 H54         0.6038   54.1988   16.6885 H         1 UNK         0.0000 
     55 H55         1.2924   53.5684   18.1993 H         1 UNK         0.0000 
     56 H56         6.8466   53.2451   25.8480 H         1 UNK         0.0000 
     57 H57         7.1435   53.4054   28.2837 H         1 UNK         0.0000 
     58 H58         5.3874   54.4793   29.6684 H         1 UNK         0.0000 
     59 H59         3.3512   55.3680   28.6190 H         1 UNK         0.0000 
     60 H60         3.1045   55.2777   26.1882 H         1 UNK         0.0000 
@<TRIPOS>BOND
     1    1    2 1    
     2    1   37 1    
     3    1   38 1    
     4    1   39 1    
     5    2    3 1    
     6    2   40 1    
     7    2   41 1    
     8    3    4 1    
     9    4    5 2    
    10    4    6 1    
    11    6   11 1    
    12    6    7 2    
    13    7    8 1    
    14    7   31 1    
    15    8    9 2    
    16    9   22 1    
    17    9   10 1    
    18   10   11 1    
    19   10   20 1    
    20   11   12 1    
    21   11   13 1    
    22   13   18 ar   
    23   13   14 ar   
    24   14   15 ar   
    25   14   42 1    
    26   15   16 ar   
    27   15   43 1    
    28   16   17 ar   
    29   16   19 1    
    30   17   18 ar   
    31   17   44 1    
    32   18   45 1    
    33   20   21 2    
    34   20   23 1    
    35   21   22 1    
    36   21   46 1    
    37   23   24 2    
    38   23   47 1    
    39   24   25 1    
    40   24   26 1    
    41   26   27 1    
    42   26   48 1    
    43   27   28 1    
    44   27   49 1    
    45   27   50 1    
    46   28   29 1    
    47   28   51 1    
    48   28   52 1    
    49   29   30 1    
    50   30   53 1    
    51   30   54 1    
    52   30   55 1    
    53   31   36 ar   
    54   31   32 ar   
    55   32   33 ar   
    56   32   56 1    
    57   33   34 ar   
    58   33   57 1    
    59   34   35 ar   
    60   34   58 1    
    61   35   36 ar   
    62   35   59 1    
    63   36   60 1    
@<TRIPOS>SUBSTRUCTURE
     1 UNK         1 GROUP             0       ****    0 ROOT    
