@<TRIPOS>MOLECULE
ZINC37350137_3881
33   35    1
SMALL
USER_CHARGES


@<TRIPOS>ATOM
      1 C1          0.0009   53.1699   29.8353 C.3       1 UNK         0.0000 
      2 C2          1.1823   53.5069   28.9394 C.ar      1 UNK         0.0000 
      3 C3          1.4396   52.7432   27.8001 C.ar      1 UNK         0.0000 
      4 C4          2.5152   53.0647   26.9725 C.ar      1 UNK         0.0000 
      5 C5          3.3649   54.1361   27.2556 C.ar      1 UNK         0.0000 
      6 C6          3.1068   54.8791   28.4154 C.ar      1 UNK         0.0000 
      7 C7          2.0164   54.5893   29.2331 C.ar      1 UNK         0.0000 
      8 F8          1.7714   55.3672   30.3099 F         1 UNK         0.0000 
      9 C9          4.5235   54.4688   26.3494 C.2       1 UNK         0.0000 
     10 C10         4.6492   54.3878   24.9341 C.2       1 UNK         0.0000 
     11 C11         5.9429   54.8472   24.7175 C.2       1 UNK         0.0000 
     12 O12         6.5454   55.1477   25.8872 O.3       1 UNK         0.0000 
     13 N13         5.6387   54.8960   26.9100 N.2       1 UNK         0.0000 
     14 N14         6.7045   55.0563   23.6086 N.pl3     1 UNK         0.0000 
     15 C15         3.6858   53.9200   23.8689 C.ar      1 UNK         0.0000 
     16 C16         2.3060   54.0499   24.0369 C.ar      1 UNK         0.0000 
     17 C17         1.4216   53.5099   23.1127 C.ar      1 UNK         0.0000 
     18 C18         1.9111   52.8697   21.9801 C.ar      1 UNK         0.0000 
     19 C19         3.2815   52.7817   21.7568 C.ar      1 UNK         0.0000 
     20 C20         4.1628   53.3004   22.7020 C.ar      1 UNK         0.0000 
     21 Br21        0.6957   52.0963   20.7370 Br        1 UNK         0.0000 
     22 H22        -0.7499   52.5715   29.3145 H         1 UNK         0.0000 
     23 H23        -0.4946   54.0817   30.1676 H         1 UNK         0.0000 
     24 H24         0.3376   52.6278   30.7198 H         1 UNK         0.0000 
     25 H25         0.8129   51.9009   27.5484 H         1 UNK         0.0000 
     26 H26         2.6930   52.4897   26.0835 H         1 UNK         0.0000 
     27 H27         3.7484   55.6967   28.6894 H         1 UNK         0.0000 
     28 H28         6.3328   54.9187   22.6825 H         1 UNK         0.0000 
     29 H29         7.6869   55.2957   23.6795 H         1 UNK         0.0000 
     30 H30         1.8942   54.5140   24.9141 H         1 UNK         0.0000 
     31 H31         0.3572   53.5830   23.2792 H         1 UNK         0.0000 
     32 H32         3.6568   52.2864   20.8716 H         1 UNK         0.0000 
     33 H33         5.2204   53.1675   22.5412 H         1 UNK         0.0000 
@<TRIPOS>BOND
     1    1    2 1    
     2    1   22 1    
     3    1   23 1    
     4    1   24 1    
     5    2    7 ar   
     6    2    3 ar   
     7    3    4 ar   
     8    3   25 1    
     9    4    5 ar   
    10    4   26 1    
    11    5    6 ar   
    12    5    9 1    
    13    6    7 ar   
    14    6   27 1    
    15    7    8 1    
    16    9   13 2    
    17    9   10 1    
    18   10   11 2    
    19   10   15 1    
    20   11   12 1    
    21   11   14 1    
    22   12   13 1    
    23   14   28 1    
    24   14   29 1    
    25   15   20 ar   
    26   15   16 ar   
    27   16   17 ar   
    28   16   30 1    
    29   17   18 ar   
    30   17   31 1    
    31   18   19 ar   
    32   18   21 1    
    33   19   20 ar   
    34   19   32 1    
    35   20   33 1    
@<TRIPOS>SUBSTRUCTURE
     1 UNK         1 GROUP             0       ****    0 ROOT    
