@<TRIPOS>MOLECULE
ZINC51046363_228
56   58    1
SMALL
USER_CHARGES


@<TRIPOS>ATOM
      1 C1          3.7712   54.3191   27.0150 C.3       1 UNK         0.0000 
      2 C2          4.4517   54.3958   25.6557 C.ar      1 UNK         0.0000 
      3 C3          3.7410   54.0311   24.5118 C.ar      1 UNK         0.0000 
      4 C4          4.3522   54.0469   23.2554 C.ar      1 UNK         0.0000 
      5 C5          5.6802   54.4967   23.1159 C.ar      1 UNK         0.0000 
      6 C6          6.3867   54.8577   24.2740 C.ar      1 UNK         0.0000 
      7 C7          5.7838   54.8086   25.5300 C.ar      1 UNK         0.0000 
      8 Cl8         6.7046   55.2909   26.9082 Cl        1 UNK         0.0000 
      9 O9          6.1913   54.6510   21.8388 O.3       1 UNK         0.0000 
     10 C10         7.5055   55.1676   21.6567 C.3       1 UNK         0.0000 
     11 N11         3.5647   53.6454   22.1662 N.am      1 UNK         0.0000 
     12 C12         3.9030   52.7251   21.2385 C.2       1 UNK         0.0000 
     13 O13         4.9648   52.0963   21.2353 O.2       1 UNK         0.0000 
     14 C14         2.8404   52.4630   20.1455 C.3       1 UNK         0.0000 
     15 H15         2.1392   53.2964   20.1077 H         1 UNK         0.0000 
     16 C16         2.1002   51.1733   20.5250 C.3       1 UNK         0.0000 
     17 N17         3.5057   52.4907   18.7317 N.4       1 UNK         0.0000 
     18 C18         4.1307   53.8773   18.4063 C.3       1 UNK         0.0000 
     19 C19         4.8084   53.8250   17.0241 C.3       1 UNK         0.0000 
     20 C20         3.8183   53.4496   15.9086 C.3       1 UNK         0.0000 
     21 C21         3.1645   52.0926   16.2568 C.3       1 UNK         0.0000 
     22 H22         3.9091   51.2984   16.2362 H         1 UNK         0.0000 
     23 C23         2.4786   52.0763   17.6399 C.3       1 UNK         0.0000 
     24 C24         2.1355   51.6971   15.1802 C.2       1 UNK         0.0000 
     25 O25         1.2401   52.4797   14.8558 O.2       1 UNK         0.0000 
     26 N26         2.2725   50.4726   14.6450 N.am      1 UNK         0.0000 
     27 C27         1.4550   49.9347   13.5652 C.3       1 UNK         0.0000 
     28 C28         0.9490   48.5189   13.6953 C.3       1 UNK         0.0000 
     29 C29        -0.0137   49.6759   13.8144 C.3       1 UNK         0.0000 
     30 H30         2.7314   53.9999   26.9437 H         1 UNK         0.0000 
     31 H31         3.7947   55.2889   27.5105 H         1 UNK         0.0000 
     32 H32         4.2996   53.6133   27.6556 H         1 UNK         0.0000 
     33 H33         2.7160   53.7006   24.6071 H         1 UNK         0.0000 
     34 H34         7.4076   55.2010   24.2112 H         1 UNK         0.0000 
     35 H35         7.7145   55.2538   20.5900 H         1 UNK         0.0000 
     36 H36         7.6223   56.1593   22.0917 H         1 UNK         0.0000 
     37 H37         8.2532   54.4984   22.0818 H         1 UNK         0.0000 
     38 H38         2.6162   53.9901   22.1561 H         1 UNK         0.0000 
     39 H39         1.7688   51.1952   21.5651 H         1 UNK         0.0000 
     40 H40         1.2098   51.0466   19.9092 H         1 UNK         0.0000 
     41 H41         2.7496   50.3063   20.3831 H         1 UNK         0.0000 
     42 H42         3.3407   54.6279   18.4702 H         1 UNK         0.0000 
     43 H43         4.8934   54.0814   19.1584 H         1 UNK         0.0000 
     44 H44         5.2623   54.7931   16.8048 H         1 UNK         0.0000 
     45 H45         5.6301   53.1050   17.0508 H         1 UNK         0.0000 
     46 H46         3.0775   54.2524   15.8708 H         1 UNK         0.0000 
     47 H47         4.3883   53.3926   14.9785 H         1 UNK         0.0000 
     48 H48         2.1868   51.0527   17.8822 H         1 UNK         0.0000 
     49 H49         1.6390   52.7718   17.7233 H         1 UNK         0.0000 
     50 H50         3.0708   49.9181   14.9381 H         1 UNK         0.0000 
     51 H51         1.7396   50.3017   12.5763 H         1 UNK         0.0000 
     52 H52         0.9259   47.8966   12.8004 H         1 UNK         0.0000 
     53 H53         1.2118   47.9518   14.5896 H         1 UNK         0.0000 
     54 H54        -0.4291   49.9293   14.7912 H         1 UNK         0.0000 
     55 H55        -0.7137   49.8776   13.0030 H         1 UNK         0.0000 
     56 H56         4.2613   51.8048   18.7100 H         1 UNK         0.0000 
@<TRIPOS>BOND
     1    1    2 1    
     2    1   30 1    
     3    1   31 1    
     4    1   32 1    
     5    2    7 ar   
     6    2    3 ar   
     7    3    4 ar   
     8    3   33 1    
     9    4    5 ar   
    10    4   11 1    
    11    5    6 ar   
    12    5    9 1    
    13    6    7 ar   
    14    6   34 1    
    15    7    8 1    
    16    9   10 1    
    17   10   35 1    
    18   10   36 1    
    19   10   37 1    
    20   11   12 am   BACKBONE|DICT|INTERRES
    21   11   38 1    
    22   12   13 2    
    23   12   14 1    
    24   14   15 1    
    25   14   16 1    
    26   14   17 1    
    27   16   39 1    
    28   16   40 1    
    29   16   41 1    
    30   17   23 1    
    31   17   18 1    
    32   17   56 1    
    33   18   19 1    
    34   18   42 1    
    35   18   43 1    
    36   19   20 1    
    37   19   44 1    
    38   19   45 1    
    39   20   21 1    
    40   20   46 1    
    41   20   47 1    
    42   21   22 1    
    43   21   23 1    
    44   21   24 1    
    45   23   48 1    
    46   23   49 1    
    47   24   25 2    
    48   24   26 am   BACKBONE|DICT|INTERRES
    49   26   27 1    
    50   26   50 1    
    51   27   29 1    
    52   27   28 1    
    53   27   51 1    
    54   28   29 1    
    55   28   52 1    
    56   28   53 1    
    57   29   54 1    
    58   29   55 1    
@<TRIPOS>SUBSTRUCTURE
     1 UNK         1 GROUP             0       ****    0 ROOT    
