@<TRIPOS>MOLECULE
ZINC04428097_3957
57   59    1
SMALL
USER_CHARGES


@<TRIPOS>ATOM
      1 C1         -0.3762   52.1984   30.0986 C.3       1 UNK         0.0000 
      2 C2         -0.4059   51.8832   28.6145 C.ar      1 UNK         0.0000 
      3 C3         -1.5397   51.2970   28.0498 C.ar      1 UNK         0.0000 
      4 C4         -1.5501   50.9639   26.6990 C.ar      1 UNK         0.0000 
      5 C5         -0.4166   51.1919   25.9120 C.ar      1 UNK         0.0000 
      6 C6          0.7035   51.8115   26.4737 C.ar      1 UNK         0.0000 
      7 C7          0.7122   52.1504   27.8237 C.ar      1 UNK         0.0000 
      8 N8         -0.3932   50.8160   24.5513 N.am      1 UNK         0.0000 
      9 C9         -0.3768   49.4440   24.1258 C.2       1 UNK         0.0000 
     10 O10        -0.1353   49.1421   22.9549 O.2       1 UNK         0.0000 
     11 N11        -0.6879   48.5298   25.0786 N.am      1 UNK         0.0000 
     12 C12        -1.4672   47.4430   24.8903 C.2       1 UNK         0.0000 
     13 O13        -1.7052   46.8981   23.8104 O.2       1 UNK         0.0000 
     14 N14        -2.0862   47.0120   26.0807 N.am      1 UNK         0.0000 
     15 S15        -3.7840   46.5972   26.1707 S.o2      1 UNK         0.0000 
     16 O16        -4.0925   45.6581   25.0848 O.2       1 UNK         0.0000 
     17 O17        -4.0946   46.2626   27.5642 O.2       1 UNK         0.0000 
     18 C18        -4.5850   48.1555   25.8028 C.ar      1 UNK         0.0000 
     19 C19        -4.8918   48.4881   24.4817 C.ar      1 UNK         0.0000 
     20 C20        -5.4263   49.7409   24.1916 C.ar      1 UNK         0.0000 
     21 C21        -5.6502   50.6583   25.2203 C.ar      1 UNK         0.0000 
     22 C22        -5.3546   50.3177   26.5421 C.ar      1 UNK         0.0000 
     23 C23        -4.8186   49.0662   26.8348 C.ar      1 UNK         0.0000 
     24 C24        -6.2178   52.0311   24.9071 C.3       1 UNK         0.0000 
     25 S25        -0.5737   52.1512   23.3632 S.o2      1 UNK         0.0000 
     26 O26        -1.1505   53.2964   24.0784 O.2       1 UNK         0.0000 
     27 O27        -1.2244   51.6281   22.1555 O.2       1 UNK         0.0000 
     28 C28         1.0979   52.6074   22.9069 C.ar      1 UNK         0.0000 
     29 C29         1.7227   53.6909   23.5290 C.ar      1 UNK         0.0000 
     30 C30         3.0221   54.0383   23.1702 C.ar      1 UNK         0.0000 
     31 C31         3.6995   53.2968   22.2005 C.ar      1 UNK         0.0000 
     32 C32         3.0783   52.2053   21.5896 C.ar      1 UNK         0.0000 
     33 C33         1.7793   51.8547   21.9487 C.ar      1 UNK         0.0000 
     34 C34         5.1084   53.6916   21.7982 C.3       1 UNK         0.0000 
     35 H35        -0.9995   51.5015   30.6618 H         1 UNK         0.0000 
     36 H36         0.6322   52.0979   30.5005 H         1 UNK         0.0000 
     37 H37        -0.7233   53.2135   30.2851 H         1 UNK         0.0000 
     38 H38        -2.4026   51.0714   28.6599 H         1 UNK         0.0000 
     39 H39        -2.4275   50.5008   26.2727 H         1 UNK         0.0000 
     40 H40         1.5727   52.0224   25.8692 H         1 UNK         0.0000 
     41 H41         1.5903   52.6098   28.2533 H         1 UNK         0.0000 
     42 H42        -0.6256   48.8547   26.0321 H         1 UNK         0.0000 
     43 H43        -1.7470   47.4068   26.9788 H         1 UNK         0.0000 
     44 H44        -4.6927   47.7908   23.6802 H         1 UNK         0.0000 
     45 H45        -5.6517   49.9995   23.1670 H         1 UNK         0.0000 
     46 H46        -5.5245   51.0246   27.3411 H         1 UNK         0.0000 
     47 H47        -4.5604   48.8168   27.8549 H         1 UNK         0.0000 
     48 H48        -6.6196   52.0897   23.8944 H         1 UNK         0.0000 
     49 H49        -7.0327   52.2662   25.5926 H         1 UNK         0.0000 
     50 H50        -5.4499   52.7960   25.0280 H         1 UNK         0.0000 
     51 H51         1.2034   54.2709   24.2784 H         1 UNK         0.0000 
     52 H52         3.4975   54.8863   23.6411 H         1 UNK         0.0000 
     53 H53         3.5961   51.6299   20.8347 H         1 UNK         0.0000 
     54 H54         1.3017   51.0077   21.4753 H         1 UNK         0.0000 
     55 H55         5.3358   53.3683   20.7810 H         1 UNK         0.0000 
     56 H56         5.8372   53.2582   22.4832 H         1 UNK         0.0000 
     57 H57         5.2222   54.7765   21.8126 H         1 UNK         0.0000 
@<TRIPOS>BOND
     1    1    2 1    
     2    1   35 1    
     3    1   36 1    
     4    1   37 1    
     5    2    7 ar   
     6    2    3 ar   
     7    3    4 ar   
     8    3   38 1    
     9    4    5 ar   
    10    4   39 1    
    11    5    6 ar   
    12    5    8 1    
    13    6    7 ar   
    14    6   40 1    
    15    7   41 1    
    16    8    9 am   BACKBONE|DICT|INTERRES
    17    8   25 1    
    18    9   10 2    
    19    9   11 am   BACKBONE|DICT|INTERRES
    20   11   12 am   BACKBONE|DICT|INTERRES
    21   11   42 1    
    22   12   13 2    
    23   12   14 am   BACKBONE|DICT|INTERRES
    24   14   15 1    
    25   14   43 1    
    26   15   16 2    
    27   15   17 2    
    28   15   18 1    
    29   18   23 ar   
    30   18   19 ar   
    31   19   20 ar   
    32   19   44 1    
    33   20   21 ar   
    34   20   45 1    
    35   21   22 ar   
    36   21   24 1    
    37   22   23 ar   
    38   22   46 1    
    39   23   47 1    
    40   24   48 1    
    41   24   49 1    
    42   24   50 1    
    43   25   26 2    
    44   25   27 2    
    45   25   28 1    
    46   28   33 ar   
    47   28   29 ar   
    48   29   30 ar   
    49   29   51 1    
    50   30   31 ar   
    51   30   52 1    
    52   31   32 ar   
    53   31   34 1    
    54   32   33 ar   
    55   32   53 1    
    56   33   54 1    
    57   34   55 1    
    58   34   56 1    
    59   34   57 1    
@<TRIPOS>SUBSTRUCTURE
     1 UNK         1 GROUP             0       ****    0 ROOT    
