@<TRIPOS>MOLECULE
ZINC08835792_5180
52   55    1
SMALL
USER_CHARGES


@<TRIPOS>ATOM
      1 C1          4.6558   52.8588   28.6416 C.3       1 UNK         0.0000 
      2 O2          4.3207   54.1074   28.0518 O.3       1 UNK         0.0000 
      3 C3          4.3202   54.1036   26.6758 C.ar      1 UNK         0.0000 
      4 C4          3.1636   53.7604   25.9519 C.ar      1 UNK         0.0000 
      5 C5          3.2109   53.7672   24.5516 C.ar      1 UNK         0.0000 
      6 C6          4.3855   54.1089   23.8543 C.ar      1 UNK         0.0000 
      7 C7          4.4257   54.0979   22.4365 C.ar      1 UNK         0.0000 
      8 C8          5.5788   54.4961   21.7662 C.ar      1 UNK         0.0000 
      9 C9          6.7036   54.8970   22.4791 C.ar      1 UNK         0.0000 
     10 C10         6.6952   54.8944   23.8694 C.ar      1 UNK         0.0000 
     11 C11         5.5429   54.4948   24.5922 C.ar      1 UNK         0.0000 
     12 C12         5.5003   54.4678   26.0136 C.ar      1 UNK         0.0000 
     13 Br13        7.0575   54.8962   27.0415 Br        1 UNK         0.0000 
     14 C14         1.8698   53.4126   26.6546 C.2       1 UNK         0.0000 
     15 O15         1.5362   54.0080   27.6820 O.2       1 UNK         0.0000 
     16 N16         1.1418   52.4533   26.0292 N.am      1 UNK         0.0000 
     17 C17        -0.0192   51.8014   26.3581 C.2       1 UNK         0.0000 
     18 S18        -0.7185   51.6970   27.8684 S.2       1 UNK         0.0000 
     19 N19        -0.6363   51.1104   25.3524 N.pl3     1 UNK         0.0000 
     20 C20        -0.3456   51.0231   23.9715 C.ar      1 UNK         0.0000 
     21 C21         0.0715   52.1710   23.2745 C.ar      1 UNK         0.0000 
     22 C22         0.3883   52.1155   21.9211 C.ar      1 UNK         0.0000 
     23 C23         0.2527   50.9213   21.2297 C.ar      1 UNK         0.0000 
     24 C24        -0.2212   49.7919   21.8907 C.ar      1 UNK         0.0000 
     25 C25        -0.5448   49.8103   23.2593 C.ar      1 UNK         0.0000 
     26 N26        -1.0707   48.6255   23.8237 N.pl3     1 UNK         0.0000 
     27 C27        -1.6749   47.5342   23.0509 C.3       1 UNK         0.0000 
     28 C28        -2.5303   46.7173   24.0088 C.3       1 UNK         0.0000 
     29 C29        -1.7297   46.8118   25.2855 C.3       1 UNK         0.0000 
     30 C30        -1.2293   48.2549   25.2365 C.3       1 UNK         0.0000 
     31 H31         4.7012   52.9696   29.7229 H         1 UNK         0.0000 
     32 H32         3.9050   52.0972   28.4242 H         1 UNK         0.0000 
     33 H33         5.6283   52.4978   28.3025 H         1 UNK         0.0000 
     34 H34         2.3443   53.5227   23.9589 H         1 UNK         0.0000 
     35 H35         3.5513   53.7993   21.8767 H         1 UNK         0.0000 
     36 H36         5.5987   54.4986   20.6863 H         1 UNK         0.0000 
     37 H37         7.5932   55.2117   21.9520 H         1 UNK         0.0000 
     38 H38         7.5648   55.2209   24.4079 H         1 UNK         0.0000 
     39 H39         1.5693   52.1081   25.1842 H         1 UNK         0.0000 
     40 H40        -1.4125   50.5332   25.6441 H         1 UNK         0.0000 
     41 H41         0.1391   53.1273   23.7730 H         1 UNK         0.0000 
     42 H42         0.7291   53.0010   21.4049 H         1 UNK         0.0000 
     43 H43         0.4966   50.8699   20.1784 H         1 UNK         0.0000 
     44 H44        -0.3310   48.8864   21.3130 H         1 UNK         0.0000 
     45 H45        -2.3294   47.9563   22.2858 H         1 UNK         0.0000 
     46 H46        -0.9084   46.9161   22.5800 H         1 UNK         0.0000 
     47 H47        -3.5260   47.1546   24.1116 H         1 UNK         0.0000 
     48 H48        -2.6607   45.6963   23.6613 H         1 UNK         0.0000 
     49 H49        -0.8958   46.1116   25.2842 H         1 UNK         0.0000 
     50 H50        -2.3208   46.6198   26.1831 H         1 UNK         0.0000 
     51 H51        -0.2616   48.3262   25.7378 H         1 UNK         0.0000 
     52 H52        -1.9346   48.9075   25.7525 H         1 UNK         0.0000 
@<TRIPOS>BOND
     1    1    2 1    
     2    1   31 1    
     3    1   32 1    
     4    1   33 1    
     5    2    3 1    
     6    3   12 ar   
     7    3    4 ar   
     8    4    5 ar   
     9    4   14 1    
    10    5    6 ar   
    11    5   34 1    
    12    6   11 ar   
    13    6    7 ar   
    14    7    8 ar   
    15    7   35 1    
    16    8    9 ar   
    17    8   36 1    
    18    9   10 ar   
    19    9   37 1    
    20   10   11 ar   
    21   10   38 1    
    22   11   12 ar   
    23   12   13 1    
    24   14   15 2    
    25   14   16 am   BACKBONE|DICT|INTERRES
    26   16   17 am   BACKBONE|DICT|INTERRES
    27   16   39 1    
    28   17   18 2    
    29   17   19 1    
    30   19   20 1    
    31   19   40 1    
    32   20   25 ar   
    33   20   21 ar   
    34   21   22 ar   
    35   21   41 1    
    36   22   23 ar   
    37   22   42 1    
    38   23   24 ar   
    39   23   43 1    
    40   24   25 ar   
    41   24   44 1    
    42   25   26 1    
    43   26   30 1    
    44   26   27 1    
    45   27   28 1    
    46   27   45 1    
    47   27   46 1    
    48   28   29 1    
    49   28   47 1    
    50   28   48 1    
    51   29   30 1    
    52   29   49 1    
    53   29   50 1    
    54   30   51 1    
    55   30   52 1    
@<TRIPOS>SUBSTRUCTURE
     1 UNK         1 GROUP             0       ****    0 ROOT    
