@<TRIPOS>MOLECULE
ZINC43218174_2934
76   79    1
SMALL
USER_CHARGES


@<TRIPOS>ATOM
      1 C1          1.9822   54.9624   29.9456 C.3       1 UNK         0.0000 
      2 C2          2.7778   53.7699   29.3843 C.3       1 UNK         0.0000 
      3 C3          3.3459   52.8454   30.4817 C.3       1 UNK         0.0000 
      4 C4          1.9491   53.0146   28.3494 C.ar      1 UNK         0.0000 
      5 C5          0.9743   52.0956   28.7311 C.ar      1 UNK         0.0000 
      6 C6          0.2381   51.4227   27.7640 C.ar      1 UNK         0.0000 
      7 C7          0.4355   51.6376   26.3900 C.ar      1 UNK         0.0000 
      8 C8          1.4206   52.5879   26.0071 C.ar      1 UNK         0.0000 
      9 C9          2.1548   53.2535   26.9925 C.ar      1 UNK         0.0000 
     10 C10         1.6833   52.9441   24.5475 C.3       1 UNK         0.0000 
     11 C11         1.1563   51.8801   23.5835 C.3       1 UNK         0.0000 
     12 C12        -0.3036   51.5174   23.9486 C.3       1 UNK         0.0000 
     13 H13        -0.8131   52.4673   24.1363 H         1 UNK         0.0000 
     14 C14        -0.3383   50.7766   25.3511 C.3       1 UNK         0.0000 
     15 C15        -1.8484   50.6312   25.7208 C.3       1 UNK         0.0000 
     16 C16        -2.7081   49.9375   24.6460 C.3       1 UNK         0.0000 
     17 C17        -2.5936   50.6660   23.2938 C.3       1 UNK         0.0000 
     18 C18        -1.1330   50.8534   22.7715 C.3       1 UNK         0.0000 
     19 C19        -1.2615   51.9159   21.6335 C.3       1 UNK         0.0000 
     20 C20        -0.5437   49.4644   22.3198 C.3       1 UNK         0.0000 
     21 N21        -0.4145   49.2262   20.8801 N.am      1 UNK         0.0000 
     22 C22        -1.4268   48.9738   20.0317 C.2       1 UNK         0.0000 
     23 O23        -2.6125   48.9421   20.3601 O.2       1 UNK         0.0000 
     24 C24        -1.0237   48.7509   18.6685 C.2       1 UNK         0.0000 
     25 C25        -1.8582   48.8992   17.5674 C.2       1 UNK         0.0000 
     26 O26        -1.1679   48.5339   16.4649 O.3       1 UNK         0.0000 
     27 C27         0.0365   48.1556   16.9580 C.2       1 UNK         0.0000 
     28 N28         0.1549   48.2917   18.2600 N.2       1 UNK         0.0000 
     29 C29         1.0123   47.5322   15.9814 C.3       1 UNK         0.0000 
     30 H30         0.4657   47.1506   15.1163 H         1 UNK         0.0000 
     31 C31         1.9022   46.4282   16.5998 C.3       1 UNK         0.0000 
     32 C32         2.6296   45.5495   15.5668 C.3       1 UNK         0.0000 
     33 S33         1.5426   44.6243   14.4346 S.3       1 UNK         0.0000 
     34 C34         0.8180   43.4048   15.5639 C.3       1 UNK         0.0000 
     35 N35         1.9043   48.6410   15.4106 N.4       1 UNK         0.0000 
     36 C36         0.3247   49.3659   25.3290 C.3       1 UNK         0.0000 
     37 H37         1.5113   55.5342   29.1441 H         1 UNK         0.0000 
     38 H38         2.6271   55.6539   30.4816 H         1 UNK         0.0000 
     39 H39         1.1897   54.6389   30.6223 H         1 UNK         0.0000 
     40 H40         3.6481   54.1766   28.8640 H         1 UNK         0.0000 
     41 H41         3.8187   51.9647   30.0430 H         1 UNK         0.0000 
     42 H42         4.1114   53.3481   31.0723 H         1 UNK         0.0000 
     43 H43         2.5714   52.4968   31.1652 H         1 UNK         0.0000 
     44 H44         0.7825   51.8926   29.7754 H         1 UNK         0.0000 
     45 H45        -0.4792   50.6903   28.1026 H         1 UNK         0.0000 
     46 H46         2.8979   53.9774   26.6909 H         1 UNK         0.0000 
     47 H47         1.1886   53.8946   24.3394 H         1 UNK         0.0000 
     48 H48         2.7479   53.1096   24.3750 H         1 UNK         0.0000 
     49 H49         1.1939   52.3506   22.6028 H         1 UNK         0.0000 
     50 H50         1.8058   51.0114   23.4816 H         1 UNK         0.0000 
     51 H51        -1.9689   50.0968   26.6634 H         1 UNK         0.0000 
     52 H52        -2.2669   51.6204   25.9099 H         1 UNK         0.0000 
     53 H53        -3.7508   49.9347   24.9672 H         1 UNK         0.0000 
     54 H54        -2.4358   48.8872   24.5518 H         1 UNK         0.0000 
     55 H55        -3.0569   51.6449   23.4351 H         1 UNK         0.0000 
     56 H56        -3.2150   50.1729   22.5460 H         1 UNK         0.0000 
     57 H57        -2.0218   51.6346   20.9051 H         1 UNK         0.0000 
     58 H58        -1.5493   52.8960   22.0147 H         1 UNK         0.0000 
     59 H59        -0.3339   52.0386   21.0737 H         1 UNK         0.0000 
     60 H60         0.4751   49.3524   22.6838 H         1 UNK         0.0000 
     61 H61        -1.0937   48.6279   22.7518 H         1 UNK         0.0000 
     62 H62         0.5148   49.3003   20.4942 H         1 UNK         0.0000 
     63 H63        -2.8836   49.2139   17.4328 H         1 UNK         0.0000 
     64 H64         2.6316   46.8696   17.2845 H         1 UNK         0.0000 
     65 H65         1.2845   45.7788   17.2227 H         1 UNK         0.0000 
     66 H66         3.2925   46.1670   14.9594 H         1 UNK         0.0000 
     67 H67         3.2781   44.8378   16.0801 H         1 UNK         0.0000 
     68 H68         0.1953   42.7049   15.0062 H         1 UNK         0.0000 
     69 H69         1.6022   42.8390   16.0683 H         1 UNK         0.0000 
     70 H70         0.1952   43.8939   16.3123 H         1 UNK         0.0000 
     71 H71         1.3654   49.4625   15.1808 H         1 UNK         0.0000 
     72 H72         2.6334   48.8985   16.0819 H         1 UNK         0.0000 
     73 H73        -0.2377   48.6194   24.7792 H         1 UNK         0.0000 
     74 H74         1.3367   49.3769   24.9267 H         1 UNK         0.0000 
     75 H75         0.4044   48.9618   26.3401 H         1 UNK         0.0000 
     76 H76         2.3880   48.3232   14.5849 H         1 UNK         0.0000 
@<TRIPOS>BOND
     1    1    2 1    
     2    1   37 1    
     3    1   38 1    
     4    1   39 1    
     5    2    3 1    
     6    2    4 1    
     7    2   40 1    
     8    3   41 1    
     9    3   42 1    
    10    3   43 1    
    11    4    9 ar   
    12    4    5 ar   
    13    5    6 ar   
    14    5   44 1    
    15    6    7 ar   
    16    6   45 1    
    17    7   14 1    
    18    7    8 ar   
    19    8    9 ar   
    20    8   10 1    
    21    9   46 1    
    22   10   11 1    
    23   10   47 1    
    24   10   48 1    
    25   11   12 1    
    26   11   49 1    
    27   11   50 1    
    28   12   13 1    
    29   12   18 1    
    30   12   14 1    
    31   14   15 1    
    32   14   36 1    
    33   15   16 1    
    34   15   51 1    
    35   15   52 1    
    36   16   17 1    
    37   16   53 1    
    38   16   54 1    
    39   17   18 1    
    40   17   55 1    
    41   17   56 1    
    42   18   19 1    
    43   18   20 1    
    44   19   57 1    
    45   19   58 1    
    46   19   59 1    
    47   20   21 1    
    48   20   60 1    
    49   20   61 1    
    50   21   22 am   BACKBONE|DICT|INTERRES
    51   21   62 1    
    52   22   23 2    
    53   22   24 1    
    54   24   28 1    
    55   24   25 2    
    56   25   26 1    
    57   25   63 1    
    58   26   27 1    
    59   27   28 2    
    60   27   29 1    
    61   29   30 1    
    62   29   31 1    
    63   29   35 1    
    64   31   32 1    
    65   31   64 1    
    66   31   65 1    
    67   32   33 1    
    68   32   66 1    
    69   32   67 1    
    70   33   34 1    
    71   34   68 1    
    72   34   69 1    
    73   34   70 1    
    74   35   71 1    
    75   35   72 1    
    76   35   76 1    
    77   36   73 1    
    78   36   74 1    
    79   36   75 1    
@<TRIPOS>SUBSTRUCTURE
     1 UNK         1 GROUP             0       ****    0 ROOT    
