@<TRIPOS>MOLECULE
ZINC30828785_2470
52   55    1
SMALL
USER_CHARGES


@<TRIPOS>ATOM
      1 C1          5.6026   51.4196   12.5385 C.ar      1 UNK         0.0000 
      2 C2          6.3739   52.4585   12.0114 C.ar      1 UNK         0.0000 
      3 C3          6.8589   53.4875   12.8228 C.ar      1 UNK         0.0000 
      4 C4          6.5333   53.4249   14.1825 C.ar      1 UNK         0.0000 
      5 C5          5.7542   52.3858   14.7368 C.ar      1 UNK         0.0000 
      6 C6          5.2831   51.3643   13.8983 C.ar      1 UNK         0.0000 
      7 C7          5.6696   52.6922   16.1255 C.2       1 UNK         0.0000 
      8 C8          6.3846   53.8739   16.3278 C.2       1 UNK         0.0000 
      9 O9          6.9191   54.3147   15.1439 O.3       1 UNK         0.0000 
     10 C10         6.7254   54.5981   17.5311 C.2       1 UNK         0.0000 
     11 O11         7.6048   55.4668   17.5044 O.2       1 UNK         0.0000 
     12 N12         5.9983   54.2233   18.6219 N.am      1 UNK         0.0000 
     13 C13         5.9278   54.7152   19.9064 C.2       1 UNK         0.0000 
     14 S14         6.7045   56.0963   20.4816 S.2       1 UNK         0.0000 
     15 N15         5.1156   53.9308   20.6833 N.pl3     1 UNK         0.0000 
     16 C16         4.7808   53.9967   22.0522 C.ar      1 UNK         0.0000 
     17 C17         5.7332   54.1559   23.0646 C.ar      1 UNK         0.0000 
     18 C18         5.3345   54.2046   24.3990 C.ar      1 UNK         0.0000 
     19 C19         3.9893   54.0302   24.7673 C.ar      1 UNK         0.0000 
     20 C20         3.0557   53.8591   23.7292 C.ar      1 UNK         0.0000 
     21 C21         3.4417   53.8417   22.3919 C.ar      1 UNK         0.0000 
     22 N22         3.5868   54.0113   26.1136 N.pl3     1 UNK         0.0000 
     23 C23         2.2065   53.6921   26.5221 C.3       1 UNK         0.0000 
     24 C24         1.8373   54.1244   27.9551 C.3       1 UNK         0.0000 
     25 N25         2.7311   53.4229   28.8968 N.am      1 UNK         0.0000 
     26 C26         4.1209   53.1404   28.4736 C.3       1 UNK         0.0000 
     27 C27         4.5130   54.0408   27.2706 C.3       1 UNK         0.0000 
     28 C28         2.2617   52.8368   30.0350 C.2       1 UNK         0.0000 
     29 O29         2.9779   52.0969   30.7218 O.2       1 UNK         0.0000 
     30 C30         0.8394   53.1791   30.5641 C.3       1 UNK         0.0000 
     31 F31        -0.0749   52.5323   29.8401 F         1 UNK         0.0000 
     32 F32         0.6176   54.4941   30.4856 F         1 UNK         0.0000 
     33 F33         0.7046   52.8077   31.8379 F         1 UNK         0.0000 
     34 H34         5.2482   50.6372   11.8807 H         1 UNK         0.0000 
     35 H35         6.6047   52.4611   10.9548 H         1 UNK         0.0000 
     36 H36         7.4643   54.2890   12.4286 H         1 UNK         0.0000 
     37 H37         4.6931   50.5516   14.3045 H         1 UNK         0.0000 
     38 H38         5.1707   52.0990   16.8813 H         1 UNK         0.0000 
     39 H39         5.3757   53.4495   18.4344 H         1 UNK         0.0000 
     40 H40         4.5867   53.2285   20.1849 H         1 UNK         0.0000 
     41 H41         6.7833   54.2573   22.8271 H         1 UNK         0.0000 
     42 H42         6.1067   54.3592   25.1336 H         1 UNK         0.0000 
     43 H43         2.0065   53.7126   23.9254 H         1 UNK         0.0000 
     44 H44         2.6904   53.7062   21.6253 H         1 UNK         0.0000 
     45 H45         1.4687   54.1119   25.8453 H         1 UNK         0.0000 
     46 H46         2.1102   52.6061   26.4772 H         1 UNK         0.0000 
     47 H47         0.7953   53.8348   28.0857 H         1 UNK         0.0000 
     48 H48         1.9055   55.2085   28.0673 H         1 UNK         0.0000 
     49 H49         4.8182   53.3705   29.2808 H         1 UNK         0.0000 
     50 H50         4.2223   52.0976   28.1689 H         1 UNK         0.0000 
     51 H51         4.5151   55.0794   27.6076 H         1 UNK         0.0000 
     52 H52         5.5365   53.7953   26.9940 H         1 UNK         0.0000 
@<TRIPOS>BOND
     1    1    6 ar   
     2    1    2 ar   
     3    1   34 1    
     4    2    3 ar   
     5    2   35 1    
     6    3    4 ar   
     7    3   36 1    
     8    4    9 1    
     9    4    5 ar   
    10    5    6 ar   
    11    5    7 1    
    12    6   37 1    
    13    7    8 2    
    14    7   38 1    
    15    8    9 1    
    16    8   10 1    
    17   10   11 2    
    18   10   12 am   BACKBONE|DICT|INTERRES
    19   12   13 am   BACKBONE|DICT|INTERRES
    20   12   39 1    
    21   13   14 2    
    22   13   15 1    
    23   15   16 1    
    24   15   40 1    
    25   16   21 ar   
    26   16   17 ar   
    27   17   18 ar   
    28   17   41 1    
    29   18   19 ar   
    30   18   42 1    
    31   19   20 ar   
    32   19   22 1    
    33   20   21 ar   
    34   20   43 1    
    35   21   44 1    
    36   22   27 1    
    37   22   23 1    
    38   23   24 1    
    39   23   45 1    
    40   23   46 1    
    41   24   25 1    
    42   24   47 1    
    43   24   48 1    
    44   25   26 1    
    45   25   28 am   BACKBONE|DICT|INTERRES
    46   26   27 1    
    47   26   49 1    
    48   26   50 1    
    49   27   51 1    
    50   27   52 1    
    51   28   29 2    
    52   28   30 1    
    53   30   31 1    
    54   30   32 1    
    55   30   33 1    
@<TRIPOS>SUBSTRUCTURE
     1 UNK         1 GROUP             0       ****    0 ROOT    
