ZINC08887694_2897
                    3D
 Schrodinger Suite 2024-2.
 81 87  0  0  1  0            999 V2000
    2.7253   52.3732   19.8617 C   0  0  0  0  0  0
    4.2169   52.2588   19.5220 C   0  0  0  0  0  0
    4.9618   53.3355   20.2104 N   0  0  0  0  0  0
    4.8343   53.2999   21.6846 C   0  0  0  0  0  0
    3.3396   53.4262   22.0440 C   0  0  0  0  0  0
    1.0374   52.2900   21.7328 C   0  0  0  0  0  0
    0.7493   51.7048   23.1287 C   0  0  0  0  0  0
    1.1234   52.6227   24.2037 N   0  0  0  0  0  0
    0.9373   52.4083   25.5346 C   0  0  0  0  0  0
   -0.1037   51.2561   26.1633 S   0  0  0  0  0  0
    1.7363   53.2588   26.2406 N   0  0  0  0  0  0
    1.9163   53.4326   27.6901 C   0  0  0  0  0  0
    2.3241   52.1545   28.5056 C   0  0  0  0  0  0
    2.6198   52.5024   29.9860 C   0  0  1  0  0  0
    3.7993   53.4997   30.0409 C   0  0  0  0  0  0
    3.4091   54.7951   29.2875 C   0  0  1  0  0  0
    3.1094   54.4328   27.8228 C   0  0  0  0  0  0
    2.1315   55.4410   29.8831 C   0  0  0  0  0  0
    0.9684   54.4202   29.8632 C   0  0  2  0  0  0
    1.3483   53.1198   30.6197 C   0  0  0  0  0  0
    0.6755   54.0810   28.3855 C   0  0  0  0  0  0
    5.8589   54.1502   19.5402 C   0  0  0  0  0  0
    6.3066   55.6628   20.1291 S   0  0  0  0  0  0
    6.3610   53.5794   18.3931 N   0  0  0  0  0  0
    7.3340   54.0859   17.3979 C   0  0  0  0  0  0
    8.7805   54.2824   17.9670 C   0  0  0  0  0  0
    9.7784   54.6893   16.8529 C   0  0  2  0  0  0
    9.3022   56.0082   16.1888 C   0  0  0  0  0  0
    7.8968   55.8037   15.5603 C   0  0  2  0  0  0
    6.8908   55.3997   16.6681 C   0  0  0  0  0  0
    7.9627   54.6808   14.4972 C   0  0  0  0  0  0
    8.4375   53.3682   15.1670 C   0  0  1  0  0  0
    9.8440   53.5702   15.7838 C   0  0  0  0  0  0
    7.4440   52.9812   16.2913 C   0  0  0  0  0  0
    2.2013   51.5215   19.4227 H   0  0  0  0  0  0
    2.2751   53.2947   19.4939 H   0  0  0  0  0  0
    4.6037   51.2960   19.8502 H   0  0  0  0  0  0
    4.3035   52.2793   18.4360 H   0  0  0  0  0  0
    5.3964   54.0801   22.1970 H   0  0  0  0  0  0
    5.2434   52.3582   22.0560 H   0  0  0  0  0  0
    2.9062   54.3824   21.7372 H   0  0  0  0  0  0
    3.2588   53.3200   23.1223 H   0  0  0  0  0  0
    0.5380   51.6785   20.9790 H   0  0  0  0  0  0
    0.7049   53.3183   21.6075 H   0  0  0  0  0  0
    1.2805   50.7588   23.2604 H   0  0  0  0  0  0
   -0.3178   51.4869   23.1975 H   0  0  0  0  0  0
    1.5102   53.5108   23.9242 H   0  0  0  0  0  0
    2.3390   53.8556   25.6908 H   0  0  0  0  0  0
    3.2101   51.6971   28.0732 H   0  0  0  0  0  0
    1.5502   51.3900   28.4815 H   0  0  0  0  0  0
    2.8963   51.6065   30.5375 H   0  0  0  0  0  0
    4.6816   53.0545   29.5764 H   0  0  0  0  0  0
    4.0993   53.6938   31.0675 H   0  0  0  0  0  0
    4.2374   55.4992   29.3241 H   0  0  0  0  0  0
    2.8902   55.3479   27.2761 H   0  0  0  0  0  0
    4.0071   54.0205   27.3564 H   0  0  0  0  0  0
    1.8607   56.3288   29.3104 H   0  0  0  0  0  0
    2.3015   55.8112   30.8819 H   0  0  0  0  0  0
    0.0823   54.8625   30.3255 H   0  0  0  0  0  0
    1.5062   53.2976   31.6810 H   0  0  0  0  0  0
    0.5208   52.4081   30.5720 H   0  0  0  0  0  0
   -0.1969   53.4306   28.3209 H   0  0  0  0  0  0
    0.4054   55.0075   27.8823 H   0  0  0  0  0  0
    6.0467   52.6389   18.2013 H   0  0  0  0  0  0
    8.8041   55.0433   18.7448 H   0  0  0  0  0  0
    9.1296   53.3676   18.4462 H   0  0  0  0  0  0
   10.7706   54.8354   17.2866 H   0  0  0  0  0  0
    9.2751   56.8142   16.9259 H   0  0  0  0  0  0
   10.0148   56.3230   15.4231 H   0  0  0  0  0  0
    7.5676   56.7326   15.0907 H   0  0  0  0  0  0
    5.8949   55.2744   16.2382 H   0  0  0  0  0  0
    6.8037   56.2339   17.3618 H   0  0  0  0  0  0
    6.9828   54.5389   14.0390 H   0  0  0  0  0  0
    8.6353   54.9630   13.6870 H   0  0  0  0  0  0
    8.4770   52.5732   14.4208 H   0  0  0  0  0  0
   10.5662   53.8256   15.0071 H   0  0  0  0  0  0
   10.1961   52.6394   16.2313 H   0  0  0  0  0  0
    7.7540   52.0335   16.7363 H   0  0  0  0  0  0
    6.4615   52.7895   15.8543 H   0  0  0  0  0  0
    2.5495   52.2647   21.3903 N   0  3  0  0  0  0
    2.9324   51.3770   21.6918 H   0  0  0  0  0  0
  1  2  1  0  0  0
  1 35  1  0  0  0
  1 36  1  0  0  0
  1 80  1  0  0  0
  2  3  1  0  0  0
  2 37  1  0  0  0
  2 38  1  0  0  0
  3  4  1  0  0  0
  3 22  1  0  0  0
  4  5  1  0  0  0
  4 39  1  0  0  0
  4 40  1  0  0  0
  5 41  1  0  0  0
  5 42  1  0  0  0
  5 80  1  0  0  0
  6  7  1  0  0  0
  6 43  1  0  0  0
  6 44  1  0  0  0
  6 80  1  0  0  0
  7  8  1  0  0  0
  7 45  1  0  0  0
  7 46  1  0  0  0
  8  9  1  0  0  0
  8 47  1  0  0  0
  9 10  2  0  0  0
  9 11  1  0  0  0
 11 12  1  0  0  0
 11 48  1  0  0  0
 12 17  1  0  0  0
 12 21  1  0  0  0
 12 13  1  0  0  0
 13 14  1  0  0  0
 13 49  1  0  0  0
 13 50  1  0  0  0
 14 20  1  0  0  0
 14 15  1  0  0  0
 14 51  1  0  0  0
 15 16  1  0  0  0
 15 52  1  0  0  0
 15 53  1  0  0  0
 16 17  1  0  0  0
 16 18  1  0  0  0
 16 54  1  0  0  0
 17 55  1  0  0  0
 17 56  1  0  0  0
 18 19  1  0  0  0
 18 57  1  0  0  0
 18 58  1  0  0  0
 19 20  1  0  0  0
 19 21  1  0  0  0
 19 59  1  0  0  0
 20 60  1  0  0  0
 20 61  1  0  0  0
 21 62  1  0  0  0
 21 63  1  0  0  0
 22 23  2  0  0  0
 22 24  1  0  0  0
 24 25  1  0  0  0
 24 64  1  0  0  0
 25 30  1  0  0  0
 25 34  1  0  0  0
 25 26  1  0  0  0
 26 27  1  0  0  0
 26 65  1  0  0  0
 26 66  1  0  0  0
 27 33  1  0  0  0
 27 28  1  0  0  0
 27 67  1  0  0  0
 28 29  1  0  0  0
 28 68  1  0  0  0
 28 69  1  0  0  0
 29 30  1  0  0  0
 29 31  1  0  0  0
 29 70  1  0  0  0
 30 71  1  0  0  0
 30 72  1  0  0  0
 31 32  1  0  0  0
 31 73  1  0  0  0
 31 74  1  0  0  0
 32 33  1  0  0  0
 32 34  1  0  0  0
 32 75  1  0  0  0
 33 76  1  0  0  0
 33 77  1  0  0  0
 34 78  1  0  0  0
 34 79  1  0  0  0
 80 81  1  0  0  0
M  CHG  1  80   1
M  END
> <i_i_glide_confnum>
156

> <i_i_glide_lignum>
2898

> <i_i_glide_posenum>
249

> <i_i_glide_rotatable_bonds>
9

> <i_m_Source_File_Index>
4962

> <b_m_subgroup_collapsed>
0

> <r_i_docking_score>
-3.7921

> <r_i_glide_ecoul>
-1.69029

> <r_i_glide_eff_state_penalty>
0

> <r_i_glide_einternal>
12.2725

> <r_i_glide_emodel>
-41.7435

> <r_i_glide_energy>
-38.2177

> <r_i_glide_erotb>
0.614812

> <r_i_glide_esite>
-0.0897655

> <r_i_glide_evdw>
-36.5274

> <r_i_glide_gscore>
-3.7921

> <r_i_glide_hbond>
-0.0355288

> <r_i_glide_ligand_efficiency>
-0.108346

> <r_i_glide_ligand_efficiency_ln>
-0.83245

> <r_i_glide_ligand_efficiency_sa>
-0.354406

> <r_i_glide_lipo>
-1.93443

> <r_i_glide_metal>
0

> <r_i_glide_rewards>
-0.267268

> <s_i_glide_gridfile>
wee1_glide-grid

> <s_m_Source_File>
wee1_decoys_glide_SP.sdf

> <s_m_Source_Path>
/Users/zhangxujun/Desktop

> <s_m_entry_id>
5237

> <s_m_entry_name>
wee1_decoys_glide_SP.4962

> <s_m_subgroup_title>
wee1_decoys_glide_SP

> <s_m_subgroupid>
wee1_decoys_glide_SP


$$$$
