@<TRIPOS>MOLECULE
ZINC39657147_3680
64   66    1
SMALL
USER_CHARGES


@<TRIPOS>ATOM
      1 C1         -0.4727   51.2946   27.6565 C.3       1 UNK         0.0000 
      2 C2          0.5734   50.8896   26.6066 C.3       1 UNK         0.0000 
      3 C3         -0.0454   50.4528   25.2470 C.3       1 UNK         0.0000 
      4 H4         -0.9870   50.9915   25.1148 H         1 UNK         0.0000 
      5 C5         -0.4097   48.9540   25.2609 C.3       1 UNK         0.0000 
      6 C6          0.8352   50.7819   24.0060 C.3       1 UNK         0.0000 
      7 C7          1.1040   52.2817   23.7616 C.2       1 UNK         0.0000 
      8 O8          0.4835   53.1286   24.4081 O.2       1 UNK         0.0000 
      9 N9          2.0280   52.6351   22.8417 N.am      1 UNK         0.0000 
     10 C10         2.3184   54.0402   22.5637 C.3       1 UNK         0.0000 
     11 C11         3.5553   53.9891   21.6395 C.3       1 UNK         0.0000 
     12 H12         3.5044   54.8176   20.9372 H         1 UNK         0.0000 
     13 C13         3.4575   52.6024   20.9180 C.3       1 UNK         0.0000 
     14 C14         2.7318   51.7051   21.9449 C.3       1 UNK         0.0000 
     15 C15         2.5074   52.5835   19.6774 C.3       1 UNK         0.0000 
     16 C16         3.0228   53.4411   18.5079 C.3       1 UNK         0.0000 
     17 N17         4.4079   52.8967   18.1019 N.4       1 UNK         0.0000 
     18 C18         5.4045   52.8222   19.2746 C.3       1 UNK         0.0000 
     19 C19         4.7775   51.9679   20.4077 C.3       1 UNK         0.0000 
     20 C20         4.8898   54.2132   22.4101 C.2       1 UNK         0.0000 
     21 O21         5.9048   54.5482   21.8049 O.2       1 UNK         0.0000 
     22 N22         4.8616   54.0967   23.7441 N.am      1 UNK         0.0000 
     23 C23         5.9228   54.3238   24.7268 C.3       1 UNK         0.0000 
     24 H24         6.6684   53.5451   24.5524 H         1 UNK         0.0000 
     25 C25         6.6083   55.6994   24.5889 C.3       1 UNK         0.0000 
     26 C26         5.3990   54.1372   26.1562 C.ar      1 UNK         0.0000 
     27 C27         6.3218   53.9492   27.1892 C.ar      1 UNK         0.0000 
     28 C28         5.8803   53.6965   28.4817 C.ar      1 UNK         0.0000 
     29 C29         4.5145   53.6040   28.7432 C.ar      1 UNK         0.0000 
     30 C30         3.5839   53.8210   27.7347 C.ar      1 UNK         0.0000 
     31 C31         4.0234   54.0968   26.4466 C.ar      1 UNK         0.0000 
     32 Br32        3.9009   53.1446   30.4818 Br        1 UNK         0.0000 
     33 H33        -0.0013   51.5145   28.6145 H         1 UNK         0.0000 
     34 H34        -1.1963   50.4969   27.8211 H         1 UNK         0.0000 
     35 H35        -1.0224   52.1831   27.3448 H         1 UNK         0.0000 
     36 H36         1.2576   51.7286   26.4818 H         1 UNK         0.0000 
     37 H37         1.1844   50.0824   27.0106 H         1 UNK         0.0000 
     38 H38         0.4786   48.3298   25.3736 H         1 UNK         0.0000 
     39 H39        -1.0854   48.7143   26.0816 H         1 UNK         0.0000 
     40 H40        -0.9087   48.6555   24.3380 H         1 UNK         0.0000 
     41 H41         1.7876   50.2555   24.0828 H         1 UNK         0.0000 
     42 H42         0.3474   50.3880   23.1139 H         1 UNK         0.0000 
     43 H43         1.4587   54.4906   22.0817 H         1 UNK         0.0000 
     44 H44         2.4682   54.6580   23.4519 H         1 UNK         0.0000 
     45 H45         3.5045   51.1762   22.4814 H         1 UNK         0.0000 
     46 H46         2.1111   50.9467   21.4640 H         1 UNK         0.0000 
     47 H47         2.3575   51.5620   19.3199 H         1 UNK         0.0000 
     48 H48         1.5048   52.9092   19.9546 H         1 UNK         0.0000 
     49 H49         2.3894   53.3587   17.6232 H         1 UNK         0.0000 
     50 H50         3.1498   54.4961   18.7518 H         1 UNK         0.0000 
     51 H51         4.3280   51.9404   17.7584 H         1 UNK         0.0000 
     52 H52         6.3047   52.3660   18.8682 H         1 UNK         0.0000 
     53 H53         5.6223   53.8560   19.5317 H         1 UNK         0.0000 
     54 H54         5.5019   51.8549   21.2156 H         1 UNK         0.0000 
     55 H55         4.5929   50.9448   20.0817 H         1 UNK         0.0000 
     56 H56         4.0353   53.6595   24.1236 H         1 UNK         0.0000 
     57 H57         7.4338   55.8057   25.2878 H         1 UNK         0.0000 
     58 H58         7.0337   55.8562   23.5984 H         1 UNK         0.0000 
     59 H59         5.9045   56.5070   24.7866 H         1 UNK         0.0000 
     60 H60         7.3838   53.9778   26.9928 H         1 UNK         0.0000 
     61 H61         6.6003   53.5537   29.2744 H         1 UNK         0.0000 
     62 H62         2.5258   53.7562   27.9448 H         1 UNK         0.0000 
     63 H63         3.2749   54.2523   25.6846 H         1 UNK         0.0000 
     64 H64         4.7995   53.4393   17.3444 H         1 UNK         0.0000 
@<TRIPOS>BOND
     1    1    2 1    
     2    1   33 1    
     3    1   34 1    
     4    1   35 1    
     5    2    3 1    
     6    2   36 1    
     7    2   37 1    
     8    3    4 1    
     9    3    5 1    
    10    3    6 1    
    11    5   38 1    
    12    5   39 1    
    13    5   40 1    
    14    6    7 1    
    15    6   41 1    
    16    6   42 1    
    17    7    8 2    
    18    7    9 am   BACKBONE|DICT|INTERRES
    19    9   14 1    
    20    9   10 1    
    21   10   11 1    
    22   10   43 1    
    23   10   44 1    
    24   11   12 1    
    25   11   13 1    
    26   11   20 1    
    27   13   19 1    
    28   13   14 1    
    29   13   15 1    
    30   14   45 1    
    31   14   46 1    
    32   15   16 1    
    33   15   47 1    
    34   15   48 1    
    35   16   17 1    
    36   16   49 1    
    37   16   50 1    
    38   17   18 1    
    39   17   51 1    
    40   17   64 1    
    41   18   19 1    
    42   18   52 1    
    43   18   53 1    
    44   19   54 1    
    45   19   55 1    
    46   20   21 2    
    47   20   22 am   BACKBONE|DICT|INTERRES
    48   22   23 1    
    49   22   56 1    
    50   23   24 1    
    51   23   25 1    
    52   23   26 1    
    53   25   57 1    
    54   25   58 1    
    55   25   59 1    
    56   26   31 ar   
    57   26   27 ar   
    58   27   28 ar   
    59   27   60 1    
    60   28   29 ar   
    61   28   61 1    
    62   29   30 ar   
    63   29   32 1    
    64   30   31 ar   
    65   30   62 1    
    66   31   63 1    
@<TRIPOS>SUBSTRUCTURE
     1 UNK         1 GROUP             0       ****    0 ROOT    
