ZINC63530470_6071
                    3D
 Schrodinger Suite 2024-2.
 54 58  0  0  1  0            999 V2000
    1.7238   50.9824   16.9735 C   0  0  0  0  0  0
    0.6901   51.2584   18.0752 C   0  0  2  0  0  0
    0.0185   50.3955   18.0664 H   0  0  0  0  0  0
   -0.1405   52.5136   17.7776 C   0  0  0  0  0  0
   -1.5408   52.4409   17.7994 C   0  0  0  0  0  0
   -2.3150   53.5734   17.5539 C   0  0  0  0  0  0
   -1.6948   54.7876   17.2680 C   0  0  0  0  0  0
   -0.2942   54.8666   17.2157 C   0  0  0  0  0  0
    0.4781   53.7312   17.4581 C   0  0  0  0  0  0
    0.3597   56.0308   16.8623 O   0  0  0  0  0  0
   -0.4435   57.2121   16.9711 C   0  0  0  0  0  0
   -1.8603   56.9699   16.4033 C   0  0  0  0  0  0
   -2.4957   55.8966   17.1058 O   0  0  0  0  0  0
    1.3508   51.2578   19.3862 N   0  0  0  0  0  0
    0.7632   51.4720   20.5791 C   0  0  0  0  0  0
   -0.4236   51.7751   20.7037 O   0  0  0  0  0  0
    1.6388   51.2506   21.8297 C   0  0  1  0  0  0
    2.6984   51.2690   21.5706 H   0  0  0  0  0  0
    1.2933   52.1386   23.0139 C   0  0  0  0  0  0
    0.7978   51.3726   24.0011 C   0  0  0  0  0  0
    0.2994   51.7090   25.3445 C   0  0  0  0  0  0
   -0.1512   50.7450   26.1711 C   0  0  0  0  0  0
   -0.1352   49.3675   25.6924 C   0  0  0  0  0  0
    0.3157   49.0400   24.4572 C   0  0  0  0  0  0
    0.8056   50.0321   23.5968 C   0  0  0  0  0  0
    1.3081   49.9176   22.3861 N   0  3  0  0  0  0
    1.5345   53.9053   22.9952 S   0  0  0  0  0  0
    3.0964   54.0313   23.8115 C   0  0  0  0  0  0
    3.1452   54.0972   25.2037 C   0  0  0  0  0  0
    4.3705   54.2451   25.8478 C   0  0  0  0  0  0
    5.5421   54.3205   25.0968 C   0  0  0  0  0  0
    5.4983   54.2358   23.7054 C   0  0  0  0  0  0
    4.2707   54.0960   23.0591 C   0  0  0  0  0  0
    7.0581   54.5142   25.8978 Cl  0  0  0  0  0  0
    1.2474   50.8880   15.9976 H   0  0  0  0  0  0
    2.4749   51.7690   16.9063 H   0  0  0  0  0  0
    2.2632   50.0549   17.1631 H   0  0  0  0  0  0
   -2.0333   51.5050   18.0223 H   0  0  0  0  0  0
   -3.3908   53.5101   17.5842 H   0  0  0  0  0  0
    1.5549   53.8088   17.4161 H   0  0  0  0  0  0
    0.0461   58.0416   16.4582 H   0  0  0  0  0  0
   -0.5284   57.4835   18.0248 H   0  0  0  0  0  0
   -1.7791   56.7134   15.3458 H   0  0  0  0  0  0
   -2.4678   57.8714   16.4810 H   0  0  0  0  0  0
    2.3012   50.9192   19.3730 H   0  0  0  0  0  0
    0.2840   52.7306   25.6977 H   0  0  0  0  0  0
   -0.5167   50.9726   27.1631 H   0  0  0  0  0  0
   -0.4897   48.5838   26.3533 H   0  0  0  0  0  0
    0.3110   47.9983   24.1669 H   0  0  0  0  0  0
    2.2387   54.0542   25.7868 H   0  0  0  0  0  0
    4.4119   54.3040   26.9257 H   0  0  0  0  0  0
    6.4122   54.2917   23.1320 H   0  0  0  0  0  0
    4.2332   54.0477   21.9806 H   0  0  0  0  0  0
    1.4190   49.0433   21.8798 H   0  0  0  0  0  0
  1  2  1  0  0  0
  1 35  1  0  0  0
  1 36  1  0  0  0
  1 37  1  0  0  0
  2  3  1  0  0  0
  2  4  1  0  0  0
  2 14  1  0  0  0
  4  9  2  0  0  0
  4  5  1  0  0  0
  5  6  2  0  0  0
  5 38  1  0  0  0
  6  7  1  0  0  0
  6 39  1  0  0  0
  7 13  1  0  0  0
  7  8  2  0  0  0
  8  9  1  0  0  0
  8 10  1  0  0  0
  9 40  1  0  0  0
 10 11  1  0  0  0
 11 12  1  0  0  0
 11 41  1  0  0  0
 11 42  1  0  0  0
 12 13  1  0  0  0
 12 43  1  0  0  0
 12 44  1  0  0  0
 14 15  1  0  0  0
 14 45  1  0  0  0
 15 16  2  0  0  0
 15 17  1  0  0  0
 17 18  1  0  0  0
 17 26  1  0  0  0
 17 19  1  0  0  0
 19 20  2  0  0  0
 19 27  1  0  0  0
 20 25  1  0  0  0
 20 21  1  0  0  0
 21 22  2  0  0  0
 21 46  1  0  0  0
 22 23  1  0  0  0
 22 47  1  0  0  0
 23 24  2  0  0  0
 23 48  1  0  0  0
 24 25  1  0  0  0
 24 49  1  0  0  0
 25 26  2  0  0  0
 26 54  1  0  0  0
 27 28  1  0  0  0
 28 33  2  0  0  0
 28 29  1  0  0  0
 29 30  2  0  0  0
 29 50  1  0  0  0
 30 31  1  0  0  0
 30 51  1  0  0  0
 31 32  2  0  0  0
 31 34  1  0  0  0
 32 33  1  0  0  0
 32 52  1  0  0  0
 33 53  1  0  0  0
M  CHG  1  26   1
M  END
> <i_i_glide_confnum>
73

> <i_i_glide_lignum>
6072

> <i_i_glide_posenum>
269

> <i_i_glide_rotatable_bonds>
6

> <i_m_Source_File_Index>
3155

> <b_m_subgroup_collapsed>
0

> <r_i_docking_score>
-5.13418

> <r_i_glide_ecoul>
-6.03777

> <r_i_glide_eff_state_penalty>
0

> <r_i_glide_einternal>
4.69609

> <r_i_glide_emodel>
-59.9841

> <r_i_glide_energy>
-46.0933

> <r_i_glide_erotb>
0.464494

> <r_i_glide_esite>
-0.0266255

> <r_i_glide_evdw>
-40.0556

> <r_i_glide_gscore>
-5.13418

> <r_i_glide_hbond>
-0.255834

> <r_i_glide_ligand_efficiency>
-0.160443

> <r_i_glide_ligand_efficiency_ln>
-1.14968

> <r_i_glide_ligand_efficiency_sa>
-0.509375

> <r_i_glide_lipo>
-2.10924

> <r_i_glide_metal>
0

> <r_i_glide_rewards>
-0.298526

> <s_i_glide_gridfile>
wee1_glide-grid

> <s_m_Source_File>
wee1_decoys_glide_SP.sdf

> <s_m_Source_Path>
/Users/zhangxujun/Desktop

> <s_m_entry_id>
3430

> <s_m_entry_name>
wee1_decoys_glide_SP.3155

> <s_m_subgroup_title>
wee1_decoys_glide_SP

> <s_m_subgroupid>
wee1_decoys_glide_SP


$$$$
