@<TRIPOS>MOLECULE
ZINC36694750_1442
60   62    1
SMALL
USER_CHARGES


@<TRIPOS>ATOM
      1 C1          2.5449   55.1619   16.3655 C.3       1 UNK         0.0000 
      2 C2          3.9975   55.0107   16.8480 C.3       1 UNK         0.0000 
      3 H3          4.4912   55.9721   16.7130 H         1 UNK         0.0000 
      4 C4          4.0515   54.6206   18.3430 C.3       1 UNK         0.0000 
      5 C5          5.5100   54.5505   18.8795 C.3       1 UNK         0.0000 
      6 C6          6.2895   53.5150   17.9989 C.3       1 UNK         0.0000 
      7 C7          6.2679   53.8310   16.4679 C.3       1 UNK         0.0000 
      8 C8          4.7639   53.9144   16.0648 C.3       1 UNK         0.0000 
      9 C9          7.0485   55.1206   16.1051 C.3       1 UNK         0.0000 
     10 C10         6.8729   52.6096   15.7410 C.3       1 UNK         0.0000 
     11 C11         5.5023   54.0570   20.3218 C.2       1 UNK         0.0000 
     12 O12         5.1042   52.9533   20.7031 O.2       1 UNK         0.0000 
     13 N13         6.0884   55.0366   21.0552 N.am      1 UNK         0.0000 
     14 C14         6.4173   56.1290   20.3189 C.2       1 UNK         0.0000 
     15 O15         6.7038   57.2540   20.7200 O.2       1 UNK         0.0000 
     16 N16         6.1603   55.8134   19.0502 N.am      1 UNK         0.0000 
     17 C17         6.5748   54.8858   22.4566 C.3       1 UNK         0.0000 
     18 C18         5.4919   54.4965   23.4929 C.2       1 UNK         0.0000 
     19 O19         4.3218   54.3235   23.1547 O.2       1 UNK         0.0000 
     20 N20         5.9351   54.4138   24.7660 N.am      1 UNK         0.0000 
     21 C21         5.2140   54.1311   25.9474 C.ar      1 UNK         0.0000 
     22 C22         5.9740   53.8658   27.0874 C.ar      1 UNK         0.0000 
     23 C23         5.3515   53.5154   28.2831 C.ar      1 UNK         0.0000 
     24 C24         3.9553   53.4370   28.3753 C.ar      1 UNK         0.0000 
     25 C25         3.1954   53.7313   27.2342 C.ar      1 UNK         0.0000 
     26 C26         3.8134   54.0889   26.0381 C.ar      1 UNK         0.0000 
     27 C27         3.3104   52.9510   29.6639 C.2       1 UNK         0.0000 
     28 O28         3.9039   52.1004   30.3346 O.2       1 UNK         0.0000 
     29 N29         2.0896   53.4248   30.0425 N.am      1 UNK         0.0000 
     30 C30         1.2464   52.6986   31.0006 C.3       1 UNK         0.0000 
     31 C31         1.4832   54.6799   29.5856 C.3       1 UNK         0.0000 
     32 H32         1.9859   54.2329   16.4813 H         1 UNK         0.0000 
     33 H33         2.0216   55.9358   16.9285 H         1 UNK         0.0000 
     34 H34         2.5074   55.4429   15.3127 H         1 UNK         0.0000 
     35 H35         3.4946   53.7046   18.5560 H         1 UNK         0.0000 
     36 H36         3.5027   55.3822   18.8957 H         1 UNK         0.0000 
     37 H37         7.3335   53.4740   18.3167 H         1 UNK         0.0000 
     38 H38         5.9242   52.5033   18.2010 H         1 UNK         0.0000 
     39 H39         4.6784   54.1053   14.9935 H         1 UNK         0.0000 
     40 H40         4.2623   52.9533   16.2023 H         1 UNK         0.0000 
     41 H41         7.0772   55.2608   15.0231 H         1 UNK         0.0000 
     42 H42         6.6313   56.0341   16.5199 H         1 UNK         0.0000 
     43 H43         8.0835   55.0577   16.4448 H         1 UNK         0.0000 
     44 H44         6.8610   52.7420   14.6583 H         1 UNK         0.0000 
     45 H45         7.9097   52.4419   16.0361 H         1 UNK         0.0000 
     46 H46         6.3203   51.6958   15.9593 H         1 UNK         0.0000 
     47 H47         6.5823   56.2893   18.2677 H         1 UNK         0.0000 
     48 H48         7.0053   55.8270   22.8036 H         1 UNK         0.0000 
     49 H49         7.3870   54.1610   22.4819 H         1 UNK         0.0000 
     50 H50         6.9296   54.5153   24.8913 H         1 UNK         0.0000 
     51 H51         7.0533   53.8923   27.0519 H         1 UNK         0.0000 
     52 H52         5.9724   53.2850   29.1346 H         1 UNK         0.0000 
     53 H53         2.1185   53.6493   27.2450 H         1 UNK         0.0000 
     54 H54         3.1765   54.2997   25.1944 H         1 UNK         0.0000 
     55 H55         1.6818   51.7538   31.3287 H         1 UNK         0.0000 
     56 H56         0.2757   52.4704   30.5579 H         1 UNK         0.0000 
     57 H57         1.0694   53.3028   31.8906 H         1 UNK         0.0000 
     58 H58         2.1822   55.3199   29.0457 H         1 UNK         0.0000 
     59 H59         0.6307   54.4742   28.9367 H         1 UNK         0.0000 
     60 H60         1.1163   55.2574   30.4359 H         1 UNK         0.0000 
@<TRIPOS>BOND
     1    1    2 1    
     2    1   32 1    
     3    1   33 1    
     4    1   34 1    
     5    2    3 1    
     6    2    8 1    
     7    2    4 1    
     8    4    5 1    
     9    4   35 1    
    10    4   36 1    
    11    5   16 1    
    12    5    6 1    
    13    5   11 1    
    14    6    7 1    
    15    6   37 1    
    16    6   38 1    
    17    7    8 1    
    18    7    9 1    
    19    7   10 1    
    20    8   39 1    
    21    8   40 1    
    22    9   41 1    
    23    9   42 1    
    24    9   43 1    
    25   10   44 1    
    26   10   45 1    
    27   10   46 1    
    28   11   12 2    
    29   11   13 am   BACKBONE|DICT|INTERRES
    30   13   14 am   BACKBONE|DICT|INTERRES
    31   13   17 1    
    32   14   15 2    
    33   14   16 am   BACKBONE|DICT|INTERRES
    34   16   47 1    
    35   17   18 1    
    36   17   48 1    
    37   17   49 1    
    38   18   19 2    
    39   18   20 am   BACKBONE|DICT|INTERRES
    40   20   21 1    
    41   20   50 1    
    42   21   26 ar   
    43   21   22 ar   
    44   22   23 ar   
    45   22   51 1    
    46   23   24 ar   
    47   23   52 1    
    48   24   25 ar   
    49   24   27 1    
    50   25   26 ar   
    51   25   53 1    
    52   26   54 1    
    53   27   28 2    
    54   27   29 am   BACKBONE|DICT|INTERRES
    55   29   30 1    
    56   29   31 1    
    57   30   55 1    
    58   30   56 1    
    59   30   57 1    
    60   31   58 1    
    61   31   59 1    
    62   31   60 1    
@<TRIPOS>SUBSTRUCTURE
     1 UNK         1 GROUP             0       ****    0 ROOT    
