@<TRIPOS>MOLECULE
ZINC61820166_1712
44   46    1
SMALL
USER_CHARGES


@<TRIPOS>ATOM
      1 C1         -3.8412   50.7417   24.7541 C.ar      1 UNK         0.0000 
      2 C2         -3.9669   51.7186   25.7368 C.ar      1 UNK         0.0000 
      3 N3         -2.9028   52.0986   26.4846 N.ar      1 UNK         0.0000 
      4 C4         -1.6922   51.5096   26.2585 C.ar      1 UNK         0.0000 
      5 C5         -1.5762   50.4947   25.2729 C.ar      1 UNK         0.0000 
      6 N6         -2.6559   50.1252   24.5242 N.ar      1 UNK         0.0000 
      7 C7         -0.3762   49.6796   24.9926 C.2       1 UNK         0.0000 
      8 N8          0.3008   49.6921   23.9069 N.2       1 UNK         0.0000 
      9 O9         -0.1258   50.6240   22.9366 O.3       1 UNK         0.0000 
     10 N10        -0.0956   48.8967   26.0817 N.pl3     1 UNK         0.0000 
     11 N11        -0.6638   52.0210   27.0541 N.pl3     1 UNK         0.0000 
     12 C12        -0.7661   51.9451   28.5216 C.3       1 UNK         0.0000 
     13 C13        -0.0777   53.1649   29.1706 C.3       1 UNK         0.0000 
     14 C14         1.4273   53.2810   28.8393 C.3       1 UNK         0.0000 
     15 C15         2.2637   52.2054   29.5863 C.3       1 UNK         0.0000 
     16 C16         3.7781   52.3629   29.3067 C.3       1 UNK         0.0000 
     17 C17         4.2819   53.7897   29.6222 C.3       1 UNK         0.0000 
     18 C18         3.3909   54.8971   29.0281 C.3       1 UNK         0.0000 
     19 C19         1.9144   54.6507   29.3776 C.3       1 UNK         0.0000 
     20 C20         1.5150   53.2092   27.2877 C.3       1 UNK         0.0000 
     21 C21         0.7568   52.0153   26.6727 C.3       1 UNK         0.0000 
     22 H22        -4.6823   50.4298   24.1537 H         1 UNK         0.0000 
     23 H23        -4.9100   52.2059   25.9354 H         1 UNK         0.0000 
     24 H24         0.5129   50.4881   22.2304 H         1 UNK         0.0000 
     25 H25         0.6454   48.2101   26.0369 H         1 UNK         0.0000 
     26 H26        -0.6944   48.8785   26.9145 H         1 UNK         0.0000 
     27 H27        -1.8081   51.9225   28.8407 H         1 UNK         0.0000 
     28 H28        -0.3236   51.0052   28.8582 H         1 UNK         0.0000 
     29 H29        -0.5861   54.0699   28.8366 H         1 UNK         0.0000 
     30 H30        -0.2271   53.1468   30.2524 H         1 UNK         0.0000 
     31 H31         2.0760   52.2552   30.6603 H         1 UNK         0.0000 
     32 H32         1.9499   51.2067   29.2816 H         1 UNK         0.0000 
     33 H33         4.3417   51.6459   29.9036 H         1 UNK         0.0000 
     34 H34         3.9968   52.1178   28.2677 H         1 UNK         0.0000 
     35 H35         4.3044   53.9133   30.7050 H         1 UNK         0.0000 
     36 H36         5.3100   53.9129   29.2811 H         1 UNK         0.0000 
     37 H37         3.6885   55.8624   29.4246 H         1 UNK         0.0000 
     38 H38         3.5356   54.9644   27.9493 H         1 UNK         0.0000 
     39 H39         1.3259   55.4562   28.9342 H         1 UNK         0.0000 
     40 H40         1.7467   54.7347   30.4520 H         1 UNK         0.0000 
     41 H41         2.5488   53.1968   26.9456 H         1 UNK         0.0000 
     42 H42         1.1065   54.1145   26.8467 H         1 UNK         0.0000 
     43 H43         1.2105   51.0715   26.9762 H         1 UNK         0.0000 
     44 H44         0.8417   52.0941   25.5880 H         1 UNK         0.0000 
@<TRIPOS>BOND
     1    1    6 ar   
     2    1    2 ar   
     3    1   22 1    
     4    2    3 ar   
     5    2   23 1    
     6    3    4 ar   
     7    4    5 ar   
     8    4   11 1    
     9    5    6 ar   
    10    5    7 1    
    11    7    8 2    
    12    7   10 1    
    13    8    9 1    
    14    9   24 1    
    15   10   25 1    
    16   10   26 1    
    17   11   21 1    
    18   11   12 1    
    19   12   13 1    
    20   12   27 1    
    21   12   28 1    
    22   13   14 1    
    23   13   29 1    
    24   13   30 1    
    25   14   19 1    
    26   14   15 1    
    27   14   20 1    
    28   15   16 1    
    29   15   31 1    
    30   15   32 1    
    31   16   17 1    
    32   16   33 1    
    33   16   34 1    
    34   17   18 1    
    35   17   35 1    
    36   17   36 1    
    37   18   19 1    
    38   18   37 1    
    39   18   38 1    
    40   19   39 1    
    41   19   40 1    
    42   20   21 1    
    43   20   41 1    
    44   20   42 1    
    45   21   43 1    
    46   21   44 1    
@<TRIPOS>SUBSTRUCTURE
     1 UNK         1 GROUP             0       ****    0 ROOT    
