@<TRIPOS>MOLECULE
ZINC20574243_4275
58   61    1
SMALL
USER_CHARGES


@<TRIPOS>ATOM
      1 C1         10.6560   59.7247   16.9759 C.3       1 UNK         0.0000 
      2 C2          9.6087   58.7151   17.4023 C.ar      1 UNK         0.0000 
      3 C3          8.2679   59.0868   17.5013 C.ar      1 UNK         0.0000 
      4 C4          7.3119   58.1551   17.9009 C.ar      1 UNK         0.0000 
      5 C5          7.6769   56.8399   18.2187 C.ar      1 UNK         0.0000 
      6 C6          9.0314   56.4649   18.1257 C.ar      1 UNK         0.0000 
      7 C7          9.9840   57.4066   17.7181 C.ar      1 UNK         0.0000 
      8 C8          9.5003   55.0536   18.4477 C.3       1 UNK         0.0000 
      9 C9          6.5929   55.8772   18.7147 C.3       1 UNK         0.0000 
     10 C10         6.4370   55.8781   20.2425 C.2       1 UNK         0.0000 
     11 O11         6.7046   56.8965   20.8817 O.2       1 UNK         0.0000 
     12 N12         5.9044   54.7660   20.7842 N.am      1 UNK         0.0000 
     13 C13         5.6016   54.5820   22.1315 C.2       1 UNK         0.0000 
     14 C14         4.4313   53.9892   22.6345 C.2       1 UNK         0.0000 
     15 C15         4.3781   54.0952   24.0534 C.2       1 UNK         0.0000 
     16 C16         5.5396   54.6376   24.6152 C.2       1 UNK         0.0000 
     17 S17         6.6964   55.0842   23.4034 S.3       1 UNK         0.0000 
     18 C18         5.7981   54.6985   26.1234 C.3       1 UNK         0.0000 
     19 N19         4.5435   54.5354   26.8822 N.3       1 UNK         0.0000 
     20 C20         3.8400   53.3447   26.4056 C.3       1 UNK         0.0000 
     21 C21         3.2885   53.5580   24.9838 C.3       1 UNK         0.0000 
     22 C22         4.8076   54.4327   28.3278 C.3       1 UNK         0.0000 
     23 C23         3.5255   54.3005   29.1562 C.ar      1 UNK         0.0000 
     24 C24         3.1662   53.0549   29.6849 C.ar      1 UNK         0.0000 
     25 C25         1.9397   52.8946   30.3301 C.ar      1 UNK         0.0000 
     26 C26         1.0759   53.9811   30.4485 C.ar      1 UNK         0.0000 
     27 C27         1.4297   55.2268   29.9365 C.ar      1 UNK         0.0000 
     28 C28         2.6503   55.3832   29.2817 C.ar      1 UNK         0.0000 
     29 C29         3.4583   53.3182   21.7789 C.2       1 UNK         0.0000 
     30 O30         3.7506   52.8923   20.6650 O.2       1 UNK         0.0000 
     31 N31         2.2109   53.2171   22.2373 N.am      1 UNK         0.0000 
     32 H32        11.5858   59.5697   17.5255 H         1 UNK         0.0000 
     33 H33        10.8678   59.6321   15.9090 H         1 UNK         0.0000 
     34 H34        10.3315   60.7461   17.1869 H         1 UNK         0.0000 
     35 H35         7.9525   60.0937   17.2673 H         1 UNK         0.0000 
     36 H36         6.2813   58.4711   17.9808 H         1 UNK         0.0000 
     37 H37        11.0237   57.1203   17.6505 H         1 UNK         0.0000 
     38 H38         8.8778   54.3093   17.9466 H         1 UNK         0.0000 
     39 H39        10.5191   54.8742   18.1015 H         1 UNK         0.0000 
     40 H40         9.4458   54.8746   19.5241 H         1 UNK         0.0000 
     41 H41         5.6327   56.1842   18.2982 H         1 UNK         0.0000 
     42 H42         6.7575   54.8684   18.3363 H         1 UNK         0.0000 
     43 H43         5.4262   54.1370   20.1503 H         1 UNK         0.0000 
     44 H44         6.4990   53.8976   26.3726 H         1 UNK         0.0000 
     45 H45         6.2584   55.6488   26.3964 H         1 UNK         0.0000 
     46 H46         4.5093   52.4967   26.4907 H         1 UNK         0.0000 
     47 H47         2.9725   53.1049   27.0192 H         1 UNK         0.0000 
     48 H48         2.4271   54.2252   25.0207 H         1 UNK         0.0000 
     49 H49         2.8738   52.6087   24.6462 H         1 UNK         0.0000 
     50 H50         5.4433   53.5640   28.5144 H         1 UNK         0.0000 
     51 H51         5.3705   55.2968   28.6765 H         1 UNK         0.0000 
     52 H52         3.8227   52.2032   29.5709 H         1 UNK         0.0000 
     53 H53         1.6533   51.9333   30.7301 H         1 UNK         0.0000 
     54 H54         0.1261   53.8541   30.9476 H         1 UNK         0.0000 
     55 H55         0.7564   56.0656   30.0422 H         1 UNK         0.0000 
     56 H56         2.9072   56.3499   28.8817 H         1 UNK         0.0000 
     57 H57         1.5101   52.8111   21.6356 H         1 UNK         0.0000 
     58 H58         1.9525   53.6000   23.1317 H         1 UNK         0.0000 
@<TRIPOS>BOND
     1    1    2 1    
     2    1   32 1    
     3    1   33 1    
     4    1   34 1    
     5    2    7 ar   
     6    2    3 ar   
     7    3    4 ar   
     8    3   35 1    
     9    4    5 ar   
    10    4   36 1    
    11    5    6 ar   
    12    5    9 1    
    13    6    7 ar   
    14    6    8 1    
    15    7   37 1    
    16    8   38 1    
    17    8   39 1    
    18    8   40 1    
    19    9   10 1    
    20    9   41 1    
    21    9   42 1    
    22   10   11 2    
    23   10   12 am   BACKBONE|DICT|INTERRES
    24   12   13 am   BACKBONE|DICT|INTERRES
    25   12   43 1    
    26   13   17 1    
    27   13   14 2    
    28   14   15 1    
    29   14   29 1    
    30   15   21 1    
    31   15   16 2    
    32   16   17 1    
    33   16   18 1    
    34   18   19 1    
    35   18   44 1    
    36   18   45 1    
    37   19   20 1    
    38   19   22 1    
    39   20   21 1    
    40   20   46 1    
    41   20   47 1    
    42   21   48 1    
    43   21   49 1    
    44   22   23 1    
    45   22   50 1    
    46   22   51 1    
    47   23   28 ar   
    48   23   24 ar   
    49   24   25 ar   
    50   24   52 1    
    51   25   26 ar   
    52   25   53 1    
    53   26   27 ar   
    54   26   54 1    
    55   27   28 ar   
    56   27   55 1    
    57   28   56 1    
    58   29   30 2    
    59   29   31 am   BACKBONE|DICT|INTERRES
    60   31   57 1    
    61   31   58 1    
@<TRIPOS>SUBSTRUCTURE
     1 UNK         1 GROUP             0       ****    0 ROOT    
