ZINC49167792_3837
                    3D
 Schrodinger Suite 2024-2.
 36 38  0  0  1  0            999 V2000
    3.4779   53.7831   30.1022 C   0  0  0  0  0  0
    3.9461   53.8745   28.6639 C   0  0  0  0  0  0
    5.3021   54.0950   28.4131 C   0  0  0  0  0  0
    5.7700   54.1927   27.1084 C   0  0  0  0  0  0
    4.8765   54.0970   26.0310 C   0  0  0  0  0  0
    3.5237   53.8590   26.2809 C   0  0  0  0  0  0
    3.0477   53.7492   27.5900 C   0  0  0  0  0  0
    1.5636   53.4896   27.8194 C   0  0  0  0  0  0
    5.2635   54.2038   24.6874 N   0  0  0  0  0  0
    6.3042   54.8970   24.1914 C   0  0  0  0  0  0
    7.1044   55.5403   24.8741 O   0  0  0  0  0  0
    6.3939   54.8967   22.7512 C   0  0  0  0  0  0
    5.5127   54.5114   21.7313 C   0  0  0  0  0  0
    6.1512   54.8966   20.5259 C   0  0  0  0  0  0
    7.3164   55.4613   20.7600 N   0  0  0  0  0  0
    7.4519   55.4478   22.0818 N   0  0  0  0  0  0
    8.2828   55.7934   22.5473 H   0  0  0  0  0  0
    5.7316   54.7215   19.0738 C   0  0  0  0  0  0
    5.0693   53.4459   18.6125 C   0  0  0  0  0  0
    4.2880   54.7502   18.6392 C   0  0  0  0  0  0
    3.8070   53.6725   21.9223 Br  0  0  0  0  0  0
    3.0149   52.8144   30.2931 H   0  0  0  0  0  0
    4.3042   53.9135   30.8038 H   0  0  0  0  0  0
    2.7322   54.5567   30.2880 H   0  0  0  0  0  0
    6.0042   54.1951   29.2276 H   0  0  0  0  0  0
    6.8285   54.3386   26.9571 H   0  0  0  0  0  0
    2.8337   53.7686   25.4536 H   0  0  0  0  0  0
    1.1009   54.3410   28.3214 H   0  0  0  0  0  0
    1.0289   53.2980   26.8894 H   0  0  0  0  0  0
    1.4261   52.6159   28.4577 H   0  0  0  0  0  0
    4.6432   53.7822   24.0123 H   0  0  0  0  0  0
    6.4338   55.1631   18.3641 H   0  0  0  0  0  0
    4.8477   52.6659   19.3415 H   0  0  0  0  0  0
    5.3686   53.0207   17.6536 H   0  0  0  0  0  0
    4.0435   55.2370   17.6946 H   0  0  0  0  0  0
    3.5069   54.8971   19.3824 H   0  0  0  0  0  0
  1  2  1  0  0  0
  1 22  1  0  0  0
  1 23  1  0  0  0
  1 24  1  0  0  0
  2  7  2  0  0  0
  2  3  1  0  0  0
  3  4  2  0  0  0
  3 25  1  0  0  0
  4  5  1  0  0  0
  4 26  1  0  0  0
  5  6  2  0  0  0
  5  9  1  0  0  0
  6  7  1  0  0  0
  6 27  1  0  0  0
  7  8  1  0  0  0
  8 28  1  0  0  0
  8 29  1  0  0  0
  8 30  1  0  0  0
  9 10  1  0  0  0
  9 31  1  0  0  0
 10 11  2  0  0  0
 10 12  1  0  0  0
 12 16  1  0  0  0
 12 13  2  0  0  0
 13 14  1  0  0  0
 13 21  1  0  0  0
 14 15  2  0  0  0
 14 18  1  0  0  0
 15 16  1  0  0  0
 16 17  1  0  0  0
 18 20  1  0  0  0
 18 19  1  0  0  0
 18 32  1  0  0  0
 19 20  1  0  0  0
 19 33  1  0  0  0
 19 34  1  0  0  0
 20 35  1  0  0  0
 20 36  1  0  0  0
M  END
> <i_i_glide_confnum>
37

> <i_i_glide_lignum>
3838

> <i_i_glide_posenum>
102

> <i_i_glide_rotatable_bonds>
4

> <i_m_Source_File_Index>
983

> <b_m_subgroup_collapsed>
0

> <r_i_docking_score>
-6.10993

> <r_i_glide_ecoul>
-3.56392

> <r_i_glide_eff_state_penalty>
0

> <r_i_glide_einternal>
6.02856

> <r_i_glide_emodel>
-48.2127

> <r_i_glide_energy>
-36.9631

> <r_i_glide_erotb>
0.675312

> <r_i_glide_esite>
0

> <r_i_glide_evdw>
-33.3991

> <r_i_glide_gscore>
-6.10993

> <r_i_glide_hbond>
-0.551952

> <r_i_glide_ligand_efficiency>
-0.305497

> <r_i_glide_ligand_efficiency_ln>
-1.52911

> <r_i_glide_ligand_efficiency_sa>
-0.829245

> <r_i_glide_lipo>
-2.47112

> <r_i_glide_metal>
0

> <r_i_glide_rewards>
-1.55763

> <s_i_glide_gridfile>
wee1_glide-grid

> <s_m_Source_File>
wee1_decoys_glide_SP.sdf

> <s_m_Source_Path>
/Users/zhangxujun/Desktop

> <s_m_entry_id>
1258

> <s_m_entry_name>
wee1_decoys_glide_SP.983

> <s_m_subgroup_title>
wee1_decoys_glide_SP

> <s_m_subgroupid>
wee1_decoys_glide_SP


$$$$
