@<TRIPOS>MOLECULE
ZINC09155190_4059
58   62    1
SMALL
USER_CHARGES


@<TRIPOS>ATOM
      1 C1          2.9624   58.9549   16.3207 C.3       1 UNK         0.0000 
      2 C2          4.1611   58.8292   15.3511 C.3       1 UNK         0.0000 
      3 C3          5.4010   57.9960   15.8295 C.3       1 UNK         0.0000 
      4 C4          4.9109   56.6194   16.2647 C.2       1 UNK         0.0000 
      5 O5          4.2405   55.8330   15.5906 O.2       1 UNK         0.0000 
      6 N6          5.3026   56.4898   17.5490 N.am      1 UNK         0.0000 
      7 C7          5.9044   57.5842   18.0807 C.2       1 UNK         0.0000 
      8 O8          6.4448   57.6969   19.1822 O.2       1 UNK         0.0000 
      9 N9          5.8836   58.4967   17.1004 N.am      1 UNK         0.0000 
     10 N10         4.9044   55.4032   18.3351 N.am      1 UNK         0.0000 
     11 C11         5.7062   54.3169   18.4094 C.2       1 UNK         0.0000 
     12 O12         6.7536   54.1972   17.7708 O.2       1 UNK         0.0000 
     13 C13         5.3454   53.1948   19.3888 C.3       1 UNK         0.0000 
     14 C14         3.1001   52.3761   18.5209 C.3       1 UNK         0.0000 
     15 C15         1.5903   52.3056   18.8012 C.3       1 UNK         0.0000 
     16 C16         1.4186   51.5255   20.0840 C.2       1 UNK         0.0000 
     17 C17         2.3647   51.5020   21.1138 C.2       1 UNK         0.0000 
     18 C18         1.9504   50.6688   22.1675 C.2       1 UNK         0.0000 
     19 C19         0.6958   50.1137   21.9733 C.2       1 UNK         0.0000 
     20 S20         0.0027   50.5962   20.4631 S.3       1 UNK         0.0000 
     21 C21         3.6928   52.2757   21.0730 C.3       1 UNK         0.0000 
     22 H22         4.4902   51.5291   21.0616 H         1 UNK         0.0000 
     23 C23         3.8602   53.2320   22.2538 C.2       1 UNK         0.0000 
     24 C24         2.8694   53.8209   23.0433 C.2       1 UNK         0.0000 
     25 C25         3.3459   54.4954   24.1681 C.2       1 UNK         0.0000 
     26 C26         4.7244   54.4965   24.2438 C.2       1 UNK         0.0000 
     27 S27         5.4267   53.6960   22.8876 S.3       1 UNK         0.0000 
     28 C28         6.5513   57.8741   14.7871 C.ar      1 UNK         0.0000 
     29 C29         6.3212   58.0859   13.4163 C.ar      1 UNK         0.0000 
     30 C30         7.3515   57.9498   12.4897 C.ar      1 UNK         0.0000 
     31 C31         8.6253   57.5904   12.9182 C.ar      1 UNK         0.0000 
     32 C32         8.8780   57.3626   14.2670 C.ar      1 UNK         0.0000 
     33 C33         7.8472   57.4997   15.1923 C.ar      1 UNK         0.0000 
     34 H34         2.2109   59.6319   15.9139 H         1 UNK         0.0000 
     35 H35         2.4693   58.0000   16.5019 H         1 UNK         0.0000 
     36 H36         3.2642   59.3662   17.2817 H         1 UNK         0.0000 
     37 H37         4.5024   59.8355   15.1102 H         1 UNK         0.0000 
     38 H38         3.7600   58.4195   14.4239 H         1 UNK         0.0000 
     39 H39         5.8992   59.4973   17.2810 H         1 UNK         0.0000 
     40 H40         4.0746   55.5780   18.8835 H         1 UNK         0.0000 
     41 H41         5.8771   53.4155   20.3050 H         1 UNK         0.0000 
     42 H42         5.6985   52.2227   19.0473 H         1 UNK         0.0000 
     43 H43         3.2949   52.9744   17.6294 H         1 UNK         0.0000 
     44 H44         3.5044   51.3731   18.3874 H         1 UNK         0.0000 
     45 H45         1.1533   53.2967   18.8891 H         1 UNK         0.0000 
     46 H46         1.0724   51.8205   17.9730 H         1 UNK         0.0000 
     47 H47         2.5458   50.4885   23.0522 H         1 UNK         0.0000 
     48 H48         0.1568   49.4542   22.6380 H         1 UNK         0.0000 
     49 H49         1.8149   53.7074   22.8363 H         1 UNK         0.0000 
     50 H50         2.7042   54.9530   24.9017 H         1 UNK         0.0000 
     51 H51         5.3516   54.9449   25.0004 H         1 UNK         0.0000 
     52 H52         5.3485   58.3574   13.0365 H         1 UNK         0.0000 
     53 H53         7.1605   58.1202   11.4395 H         1 UNK         0.0000 
     54 H54         9.4220   57.4832   12.1973 H         1 UNK         0.0000 
     55 H55         9.8664   57.0739   14.5960 H         1 UNK         0.0000 
     56 H56         8.0697   57.3055   16.2315 H         1 UNK         0.0000 
     57 N57         3.8232   53.0547   19.7223 N.4       1 UNK         0.0000 
     58 H58         3.4002   53.9623   19.8645 H         1 UNK         0.0000 
@<TRIPOS>BOND
     1    1    2 1    
     2    1   34 1    
     3    1   35 1    
     4    1   36 1    
     5    2    3 1    
     6    2   37 1    
     7    2   38 1    
     8    3    9 1    
     9    3    4 1    
    10    3   28 1    
    11    4    5 2    
    12    4    6 am   BACKBONE|DICT|INTERRES
    13    6    7 am   BACKBONE|DICT|INTERRES
    14    6   10 1    
    15    7    8 2    
    16    7    9 am   BACKBONE|DICT|INTERRES
    17    9   39 1    
    18   10   11 am   BACKBONE|DICT|INTERRES
    19   10   40 1    
    20   11   12 2    
    21   11   13 1    
    22   13   41 1    
    23   13   42 1    
    24   13   57 1    
    25   14   15 1    
    26   14   43 1    
    27   14   44 1    
    28   14   57 1    
    29   15   16 1    
    30   15   45 1    
    31   15   46 1    
    32   16   20 1    
    33   16   17 2    
    34   17   18 1    
    35   17   21 1    
    36   18   19 2    
    37   18   47 1    
    38   19   20 1    
    39   19   48 1    
    40   21   22 1    
    41   21   23 1    
    42   21   57 1    
    43   23   27 1    
    44   23   24 2    
    45   24   25 1    
    46   24   49 1    
    47   25   26 2    
    48   25   50 1    
    49   26   27 1    
    50   26   51 1    
    51   28   33 ar   
    52   28   29 ar   
    53   29   30 ar   
    54   29   52 1    
    55   30   31 ar   
    56   30   53 1    
    57   31   32 ar   
    58   31   54 1    
    59   32   33 ar   
    60   32   55 1    
    61   33   56 1    
    62   57   58 1    
@<TRIPOS>SUBSTRUCTURE
     1 UNK         1 GROUP             0       ****    0 ROOT    
