ZINC14642634_4021
                    3D
 Schrodinger Suite 2024-2.
 60 62  0  0  1  0            999 V2000
    2.3885   53.7835   23.0122 C   0  0  0  0  0  0
    3.8767   54.0881   23.0746 C   0  0  0  0  0  0
    4.4635   54.0968   24.3417 C   0  0  0  0  0  0
    5.7863   54.4859   24.5025 C   0  0  0  0  0  0
    6.5178   54.8969   23.3961 C   0  0  0  0  0  0
    5.9575   54.8947   22.1166 C   0  0  0  0  0  0
    4.6407   54.4313   21.9352 C   0  0  0  0  0  0
    4.0574   54.4966   20.6820 O   0  0  0  0  0  0
    4.1232   53.4089   19.7388 C   0  0  1  0  0  0
    3.4238   53.7145   18.9577 H   0  0  0  0  0  0
    5.4818   53.2644   19.0222 C   0  0  0  0  0  0
    3.5606   52.1103   20.3522 C   0  0  0  0  0  0
    4.3142   51.2969   20.8868 O   0  0  0  0  0  0
    2.2147   52.0232   20.3042 N   0  0  0  0  0  0
    1.3428   51.1325   20.9428 C   0  0  0  0  0  0
   -0.0176   51.4048   20.7816 C   0  0  0  0  0  0
   -0.9705   50.6297   21.4348 C   0  0  0  0  0  0
   -0.5627   49.5729   22.2489 C   0  0  0  0  0  0
    0.7943   49.2974   22.4105 C   0  0  0  0  0  0
    1.7485   50.0653   21.7557 C   0  0  0  0  0  0
   -1.7747   48.5647   23.0985 S   0  0  0  0  0  0
   -3.0942   48.9837   22.6107 O   0  0  0  0  0  0
   -1.3207   47.1767   22.9592 O   0  0  0  0  0  0
   -1.6346   49.0254   24.8052 N   0  0  0  0  0  0
   -2.2296   50.3126   25.2588 C   0  0  0  0  0  0
   -1.1495   51.3718   25.5591 C   0  0  0  0  0  0
   -0.1098   50.8245   26.5614 C   0  0  0  0  0  0
    0.5471   49.5721   25.9465 C   0  0  0  0  0  0
   -0.4938   48.4903   25.5992 C   0  0  0  0  0  0
    0.9375   51.8874   26.9366 C   0  0  0  0  0  0
    6.7428   55.5588   20.9922 C   0  0  0  0  0  0
    6.5676   54.5234   26.2383 Br  0  0  0  0  0  0
    1.9357   54.1073   22.0804 H   0  0  0  0  0  0
    2.2076   52.7185   23.1634 H   0  0  0  0  0  0
    1.8633   54.3207   23.8040 H   0  0  0  0  0  0
    3.8856   53.8202   25.2121 H   0  0  0  0  0  0
    7.5044   55.2856   23.5476 H   0  0  0  0  0  0
    5.4299   52.4981   18.2487 H   0  0  0  0  0  0
    5.7603   54.1935   18.5269 H   0  0  0  0  0  0
    6.2966   52.9870   19.6816 H   0  0  0  0  0  0
    1.7556   52.7743   19.8110 H   0  0  0  0  0  0
   -0.3457   52.2279   20.1642 H   0  0  0  0  0  0
   -2.0206   50.8528   21.3071 H   0  0  0  0  0  0
    1.1199   48.5052   23.0632 H   0  0  0  0  0  0
    2.7858   49.8211   21.9167 H   0  0  0  0  0  0
   -2.9061   50.6788   24.4863 H   0  0  0  0  0  0
   -2.8473   50.1066   26.1347 H   0  0  0  0  0  0
   -0.6607   51.6976   24.6380 H   0  0  0  0  0  0
   -1.6133   52.2746   25.9581 H   0  0  0  0  0  0
   -0.6404   50.5154   27.4655 H   0  0  0  0  0  0
    1.2973   49.1581   26.6208 H   0  0  0  0  0  0
    1.1044   49.8541   25.0553 H   0  0  0  0  0  0
   -0.8957   47.9940   26.4809 H   0  0  0  0  0  0
   -0.0061   47.7002   25.0302 H   0  0  0  0  0  0
    1.4963   52.2247   26.0632 H   0  0  0  0  0  0
    0.4686   52.7613   27.3914 H   0  0  0  0  0  0
    1.6543   51.4912   27.6563 H   0  0  0  0  0  0
    6.0845   55.9419   20.2150 H   0  0  0  0  0  0
    7.2862   56.4230   21.3746 H   0  0  0  0  0  0
    7.4805   54.8953   20.5528 H   0  0  0  0  0  0
  1  2  1  0  0  0
  1 33  1  0  0  0
  1 34  1  0  0  0
  1 35  1  0  0  0
  2  7  2  0  0  0
  2  3  1  0  0  0
  3  4  2  0  0  0
  3 36  1  0  0  0
  4  5  1  0  0  0
  4 32  1  0  0  0
  5  6  2  0  0  0
  5 37  1  0  0  0
  6  7  1  0  0  0
  6 31  1  0  0  0
  7  8  1  0  0  0
  8  9  1  0  0  0
  9 10  1  0  0  0
  9 11  1  0  0  0
  9 12  1  0  0  0
 11 38  1  0  0  0
 11 39  1  0  0  0
 11 40  1  0  0  0
 12 13  2  0  0  0
 12 14  1  0  0  0
 14 15  1  0  0  0
 14 41  1  0  0  0
 15 20  2  0  0  0
 15 16  1  0  0  0
 16 17  2  0  0  0
 16 42  1  0  0  0
 17 18  1  0  0  0
 17 43  1  0  0  0
 18 19  2  0  0  0
 18 21  1  0  0  0
 19 20  1  0  0  0
 19 44  1  0  0  0
 20 45  1  0  0  0
 21 22  2  0  0  0
 21 23  2  0  0  0
 21 24  1  0  0  0
 24 29  1  0  0  0
 24 25  1  0  0  0
 25 26  1  0  0  0
 25 46  1  0  0  0
 25 47  1  0  0  0
 26 27  1  0  0  0
 26 48  1  0  0  0
 26 49  1  0  0  0
 27 28  1  0  0  0
 27 30  1  0  0  0
 27 50  1  0  0  0
 28 29  1  0  0  0
 28 51  1  0  0  0
 28 52  1  0  0  0
 29 53  1  0  0  0
 29 54  1  0  0  0
 30 55  1  0  0  0
 30 56  1  0  0  0
 30 57  1  0  0  0
 31 58  1  0  0  0
 31 59  1  0  0  0
 31 60  1  0  0  0
M  END
> <i_i_glide_confnum>
21

> <i_i_glide_lignum>
4022

> <i_i_glide_posenum>
283

> <i_i_glide_rotatable_bonds>
7

> <i_m_Source_File_Index>
2094

> <b_m_subgroup_collapsed>
0

> <r_i_docking_score>
-4.43398

> <r_i_glide_ecoul>
-5.00723

> <r_i_glide_eff_state_penalty>
0

> <r_i_glide_einternal>
5.49036

> <r_i_glide_emodel>
-51.317

> <r_i_glide_energy>
-44.1876

> <r_i_glide_erotb>
0.552348

> <r_i_glide_esite>
-0.0979896

> <r_i_glide_evdw>
-39.1803

> <r_i_glide_gscore>
-4.43398

> <r_i_glide_hbond>
0

> <r_i_glide_ligand_efficiency>
-0.143032

> <r_i_glide_ligand_efficiency_ln>
-0.999998

> <r_i_glide_ligand_efficiency_sa>
-0.449316

> <r_i_glide_lipo>
-2.37535

> <r_i_glide_metal>
0

> <r_i_glide_rewards>
0.197116

> <s_i_glide_gridfile>
wee1_glide-grid

> <s_m_Source_File>
wee1_decoys_glide_SP.sdf

> <s_m_Source_Path>
/Users/zhangxujun/Desktop

> <s_m_entry_id>
2369

> <s_m_entry_name>
wee1_decoys_glide_SP.2094

> <s_m_subgroup_title>
wee1_decoys_glide_SP

> <s_m_subgroupid>
wee1_decoys_glide_SP


$$$$
