@<TRIPOS>MOLECULE
ZINC22506141_5822
68   70    1
SMALL
USER_CHARGES


@<TRIPOS>ATOM
      1 C1          6.3332   57.9203   16.4280 C.3       1 UNK         0.0000 
      2 C2          5.6337   57.3269   17.6754 C.3       1 UNK         0.0000 
      3 H3          5.5043   58.2196   18.2906 H         1 UNK         0.0000 
      4 C4          4.1796   56.8252   17.4010 C.3       1 UNK         0.0000 
      5 C5          3.9791   55.3749   16.8947 C.3       1 UNK         0.0000 
      6 C6          4.2872   55.1392   15.4025 C.3       1 UNK         0.0000 
      7 C7          4.0858   53.6753   14.9486 C.3       1 UNK         0.0000 
      8 C8          5.0571   52.6500   15.5773 C.3       1 UNK         0.0000 
      9 C9          6.5269   52.7941   15.1168 C.3       1 UNK         0.0000 
     10 C10         7.5803   52.5229   16.2133 C.3       1 UNK         0.0000 
     11 C11         7.6213   53.5345   17.3808 C.3       1 UNK         0.0000 
     12 C12         7.9910   54.9775   16.9807 C.3       1 UNK         0.0000 
     13 C13         7.9156   56.0227   18.1248 C.3       1 UNK         0.0000 
     14 C14         6.4658   56.3706   18.5779 C.2       1 UNK         0.0000 
     15 N15         5.8863   55.9666   19.6545 N.2       1 UNK         0.0000 
     16 N16         6.5782   55.2972   20.5562 N.2       1 UNK         0.0000 
     17 C17         5.9044   54.8244   21.5237 C.2       1 UNK         0.0000 
     18 N18         4.6750   54.5521   21.7178 N.am      1 UNK         0.0000 
     19 C19         4.3839   54.0967   22.9822 C.2       1 UNK         0.0000 
     20 O20         3.2552   53.8278   23.3910 O.2       1 UNK         0.0000 
     21 C21         5.6166   53.9615   23.8811 C.3       1 UNK         0.0000 
     22 H22         5.8032   52.9097   24.0799 H         1 UNK         0.0000 
     23 S23         6.9921   54.4966   22.8819 S.3       1 UNK         0.0000 
     24 C24         5.5802   54.8119   25.1811 C.3       1 UNK         0.0000 
     25 C25         4.9908   54.0980   26.4039 C.2       1 UNK         0.0000 
     26 O26         5.7486   53.7620   27.3147 O.2       1 UNK         0.0000 
     27 N27         3.6574   53.8928   26.3794 N.am      1 UNK         0.0000 
     28 C28         2.8287   53.3083   27.3559 C.ar      1 UNK         0.0000 
     29 C29         1.5253   53.0002   26.9575 C.ar      1 UNK         0.0000 
     30 C30         0.6286   52.4262   27.8567 C.ar      1 UNK         0.0000 
     31 C31         1.0309   52.1515   29.1623 C.ar      1 UNK         0.0000 
     32 C32         2.3303   52.4365   29.5838 C.ar      1 UNK         0.0000 
     33 C33         3.2216   53.0325   28.6771 C.ar      1 UNK         0.0000 
     34 O34         2.6512   52.0969   30.8832 O.3       1 UNK         0.0000 
     35 C35         4.0006   52.2085   31.3175 C.3       1 UNK         0.0000 
     36 H36         7.2249   58.4859   16.6990 H         1 UNK         0.0000 
     37 H37         6.6155   57.1856   15.6815 H         1 UNK         0.0000 
     38 H38         5.6711   58.6285   15.9263 H         1 UNK         0.0000 
     39 H39         3.6367   56.8959   18.3417 H         1 UNK         0.0000 
     40 H40         3.6626   57.5221   16.7401 H         1 UNK         0.0000 
     41 H41         2.9381   55.0993   17.0702 H         1 UNK         0.0000 
     42 H42         4.5546   54.6912   17.5167 H         1 UNK         0.0000 
     43 H43         5.3005   55.4547   15.1697 H         1 UNK         0.0000 
     44 H44         3.6382   55.7814   14.8053 H         1 UNK         0.0000 
     45 H45         4.1712   53.6230   13.8628 H         1 UNK         0.0000 
     46 H46         3.0620   53.3744   15.1743 H         1 UNK         0.0000 
     47 H47         4.7139   51.6464   15.3223 H         1 UNK         0.0000 
     48 H48         4.9796   52.6850   16.6629 H         1 UNK         0.0000 
     49 H49         6.7106   53.7718   14.6742 H         1 UNK         0.0000 
     50 H50         6.6977   52.0949   14.2961 H         1 UNK         0.0000 
     51 H51         8.5672   52.4895   15.7500 H         1 UNK         0.0000 
     52 H52         7.4145   51.5242   16.6211 H         1 UNK         0.0000 
     53 H53         8.3789   53.1934   18.0817 H         1 UNK         0.0000 
     54 H54         6.6779   53.5187   17.9263 H         1 UNK         0.0000 
     55 H55         7.3645   55.2838   16.1518 H         1 UNK         0.0000 
     56 H56         9.0050   54.9776   16.5788 H         1 UNK         0.0000 
     57 H57         8.4260   56.9336   17.8157 H         1 UNK         0.0000 
     58 H58         8.5257   55.6668   18.9552 H         1 UNK         0.0000 
     59 H59         5.1005   55.7755   25.0282 H         1 UNK         0.0000 
     60 H60         6.6017   55.0820   25.4566 H         1 UNK         0.0000 
     61 H61         3.1980   54.1081   25.5031 H         1 UNK         0.0000 
     62 H62         1.1995   53.2020   25.9467 H         1 UNK         0.0000 
     63 H63        -0.3769   52.1863   27.5430 H         1 UNK         0.0000 
     64 H64         0.3336   51.6970   29.8517 H         1 UNK         0.0000 
     65 H65         4.2144   53.2794   29.0084 H         1 UNK         0.0000 
     66 H66         4.0939   51.7583   32.3036 H         1 UNK         0.0000 
     67 H67         4.6945   51.6951   30.6509 H         1 UNK         0.0000 
     68 H68         4.3040   53.2515   31.3945 H         1 UNK         0.0000 
@<TRIPOS>BOND
     1    1    2 1    
     2    1   36 1    
     3    1   37 1    
     4    1   38 1    
     5    2    3 1    
     6    2   14 1    
     7    2    4 1    
     8    4    5 1    
     9    4   39 1    
    10    4   40 1    
    11    5    6 1    
    12    5   41 1    
    13    5   42 1    
    14    6    7 1    
    15    6   43 1    
    16    6   44 1    
    17    7    8 1    
    18    7   45 1    
    19    7   46 1    
    20    8    9 1    
    21    8   47 1    
    22    8   48 1    
    23    9   10 1    
    24    9   49 1    
    25    9   50 1    
    26   10   11 1    
    27   10   51 1    
    28   10   52 1    
    29   11   12 1    
    30   11   53 1    
    31   11   54 1    
    32   12   13 1    
    33   12   55 1    
    34   12   56 1    
    35   13   14 1    
    36   13   57 1    
    37   13   58 1    
    38   14   15 2    
    39   15   16 1    
    40   16   17 1    
    41   17   23 1    
    42   17   18 2    BACKBONE|DICT|INTERRES
    43   18   19 am   BACKBONE|DICT|INTERRES
    44   19   20 2    
    45   19   21 1    
    46   21   22 1    
    47   21   23 1    
    48   21   24 1    
    49   24   25 1    
    50   24   59 1    
    51   24   60 1    
    52   25   26 2    
    53   25   27 am   BACKBONE|DICT|INTERRES
    54   27   28 1    
    55   27   61 1    
    56   28   33 ar   
    57   28   29 ar   
    58   29   30 ar   
    59   29   62 1    
    60   30   31 ar   
    61   30   63 1    
    62   31   32 ar   
    63   31   64 1    
    64   32   33 ar   
    65   32   34 1    
    66   33   65 1    
    67   34   35 1    
    68   35   66 1    
    69   35   67 1    
    70   35   68 1    
@<TRIPOS>SUBSTRUCTURE
     1 UNK         1 GROUP             0       ****    0 ROOT    
