@<TRIPOS>MOLECULE
ZINC22348642_3874
44   47    1
SMALL
USER_CHARGES


@<TRIPOS>ATOM
      1 C1          6.7974   55.2959   20.9217 C.ar      1 UNK         0.0000 
      2 C2          5.9072   54.9072   19.9223 C.ar      1 UNK         0.0000 
      3 C3          4.6985   54.2830   20.2223 C.ar      1 UNK         0.0000 
      4 C4          4.3124   54.0409   21.5405 C.ar      1 UNK         0.0000 
      5 C5          5.1791   54.4080   22.5859 C.ar      1 UNK         0.0000 
      6 C6          6.4310   55.0105   22.2418 C.ar      1 UNK         0.0000 
      7 N7          7.1039   55.2235   23.4217 N.pl3     1 UNK         0.0000 
      8 H8          8.0620   55.5550   23.5325 H         1 UNK         0.0000 
      9 C9          6.3241   54.8480   24.4863 C.ar      1 UNK         0.0000 
     10 C10         5.1129   54.3639   24.0266 C.ar      1 UNK         0.0000 
     11 C11         3.9875   53.9646   24.9741 C.3       1 UNK         0.0000 
     12 C12         4.5357   53.6999   26.4034 C.3       1 UNK         0.0000 
     13 H13         5.1606   52.8086   26.3775 H         1 UNK         0.0000 
     14 C14         5.5009   54.8031   26.8614 C.3       1 UNK         0.0000 
     15 C15         6.7112   55.0398   25.9367 C.3       1 UNK         0.0000 
     16 N16         3.4633   53.4190   27.3531 N.am      1 UNK         0.0000 
     17 C17         3.6100   52.8973   28.5837 C.2       1 UNK         0.0000 
     18 O18         4.7046   52.6115   29.0696 O.2       1 UNK         0.0000 
     19 C19         2.3349   52.6356   29.4038 C.3       1 UNK         0.0000 
     20 H20         2.6757   52.0967   30.2893 H         1 UNK         0.0000 
     21 C21         1.6516   53.9780   29.7669 C.3       1 UNK         0.0000 
     22 C22         0.5050   53.6898   30.7670 C.3       1 UNK         0.0000 
     23 C23        -0.3446   52.5180   30.2865 C.2       1 UNK         0.0000 
     24 C24         0.0048   51.6964   29.2816 C.2       1 UNK         0.0000 
     25 C25         1.3482   51.7602   28.5709 C.3       1 UNK         0.0000 
     26 Cl26        2.7858   53.2966   21.8615 Cl        1 UNK         0.0000 
     27 Cl27        6.3191   55.1984   18.2724 Cl        1 UNK         0.0000 
     28 H28         7.7441   55.7548   20.6753 H         1 UNK         0.0000 
     29 H29         4.0359   53.9938   19.4166 H         1 UNK         0.0000 
     30 H30         3.4550   53.0831   24.6201 H         1 UNK         0.0000 
     31 H31         3.2573   54.7756   24.9987 H         1 UNK         0.0000 
     32 H32         4.8990   55.6967   26.9080 H         1 UNK         0.0000 
     33 H33         5.8575   54.6315   27.8779 H         1 UNK         0.0000 
     34 H34         7.1025   56.0413   26.0990 H         1 UNK         0.0000 
     35 H35         7.5038   54.3365   26.2030 H         1 UNK         0.0000 
     36 H36         2.5301   53.6522   27.0488 H         1 UNK         0.0000 
     37 H37         1.1988   54.4527   28.8920 H         1 UNK         0.0000 
     38 H38         2.3334   54.6600   30.2761 H         1 UNK         0.0000 
     39 H39         0.8973   53.4579   31.7582 H         1 UNK         0.0000 
     40 H40        -0.1080   54.5836   30.8900 H         1 UNK         0.0000 
     41 H41        -1.2758   52.3102   30.7856 H         1 UNK         0.0000 
     42 H42        -0.6795   50.8990   29.0170 H         1 UNK         0.0000 
     43 H43         1.7665   50.7657   28.4083 H         1 UNK         0.0000 
     44 H44         1.1537   52.1704   27.5783 H         1 UNK         0.0000 
@<TRIPOS>BOND
     1    1    6 ar   
     2    1    2 ar   
     3    1   28 1    
     4    2    3 ar   
     5    2   27 1    
     6    3    4 ar   
     7    3   29 1    
     8    4    5 ar   
     9    4   26 1    
    10    5   10 ar   
    11    5    6 ar   
    12    6    7 ar   
    13    7    8 1    
    14    7    9 ar   
    15    9   15 1    
    16    9   10 ar   
    17   10   11 1    
    18   11   12 1    
    19   11   30 1    
    20   11   31 1    
    21   12   13 1    
    22   12   14 1    
    23   12   16 1    
    24   14   15 1    
    25   14   32 1    
    26   14   33 1    
    27   15   34 1    
    28   15   35 1    
    29   16   17 am   BACKBONE|DICT|INTERRES
    30   16   36 1    
    31   17   18 2    
    32   17   19 1    
    33   19   20 1    
    34   19   25 1    
    35   19   21 1    
    36   21   22 1    
    37   21   37 1    
    38   21   38 1    
    39   22   23 1    
    40   22   39 1    
    41   22   40 1    
    42   23   24 2    
    43   23   41 1    
    44   24   25 1    
    45   24   42 1    
    46   25   43 1    
    47   25   44 1    
@<TRIPOS>SUBSTRUCTURE
     1 UNK         1 GROUP             0       ****    0 ROOT    
