@<TRIPOS>MOLECULE
ZINC27550678_2310
57   60    1
SMALL
USER_CHARGES


@<TRIPOS>ATOM
      1 C1          3.2052   59.1626   15.1311 C.3       1 UNK         0.0000 
      2 C2          2.6592   58.1900   16.1886 C.3       1 UNK         0.0000 
      3 C3          3.4143   56.8778   16.2601 C.2       1 UNK         0.0000 
      4 C4          3.7964   56.1613   17.3880 C.2       1 UNK         0.0000 
      5 C5          4.5464   54.9984   17.1582 C.2       1 UNK         0.0000 
      6 C6          4.7171   54.7915   15.7893 C.2       1 UNK         0.0000 
      7 S7          3.9345   56.0129   14.8449 S.3       1 UNK         0.0000 
      8 S8          5.5864   53.4805   14.9966 S.3       1 UNK         0.0000 
      9 C9          7.2509   54.2144   15.0331 C.3       1 UNK         0.0000 
     10 C10         8.2411   53.4862   15.9496 C.3       1 UNK         0.0000 
     11 C11         5.1339   54.1283   18.2707 C.3       1 UNK         0.0000 
     12 H12         5.7675   53.3575   17.8302 H         1 UNK         0.0000 
     13 C13         6.0677   54.9643   19.1463 C.2       1 UNK         0.0000 
     14 C14         6.0407   54.9204   20.4936 C.2       1 UNK         0.0000 
     15 N15         5.1486   54.0899   21.2046 N.pl3     1 UNK         0.0000 
     16 C16         4.2038   53.2981   20.5035 C.2       1 UNK         0.0000 
     17 C17         4.1289   53.3152   19.1318 C.2       1 UNK         0.0000 
     18 C18         3.1046   52.5094   18.3933 C.2       1 UNK         0.0000 
     19 O19         2.7940   52.7305   17.2244 O.2       1 UNK         0.0000 
     20 C20         2.2677   51.5089   19.1981 C.3       1 UNK         0.0000 
     21 C21         3.0059   51.0492   20.4563 C.3       1 UNK         0.0000 
     22 C22         3.3713   52.2720   21.3073 C.3       1 UNK         0.0000 
     23 C23         5.1278   54.1329   22.6349 C.ar      1 UNK         0.0000 
     24 C24         6.3024   53.9401   23.3771 C.ar      1 UNK         0.0000 
     25 C25         6.3088   54.0965   24.7588 C.ar      1 UNK         0.0000 
     26 C26         5.1202   54.3399   25.4537 C.ar      1 UNK         0.0000 
     27 C27         3.9356   54.4966   24.7238 C.ar      1 UNK         0.0000 
     28 C28         3.9482   54.4308   23.3321 C.ar      1 UNK         0.0000 
     29 N29         5.1181   54.4052   26.9358 N.pl3     1 UNK         0.0000 
     30 O30         4.0403   54.4975   27.5167 O.co2     1 UNK         0.0000 
     31 O31         6.1956   54.3608   27.5237 O.co2     1 UNK         0.0000 
     32 N32         6.8824   55.7390   21.2214 N.pl3     1 UNK         0.0000 
     33 C33         6.9755   55.8525   18.4818 C.1       1 UNK         0.0000 
     34 N34         7.7259   56.5783   17.9837 N.1       1 UNK         0.0000 
     35 H35         2.6879   60.1210   15.1833 H         1 UNK         0.0000 
     36 H36         3.0820   58.7732   14.1199 H         1 UNK         0.0000 
     37 H37         4.2670   59.3607   15.2866 H         1 UNK         0.0000 
     38 H38         2.7043   58.6888   17.1567 H         1 UNK         0.0000 
     39 H39         1.6015   58.0070   15.9981 H         1 UNK         0.0000 
     40 H40         3.5656   56.4964   18.3878 H         1 UNK         0.0000 
     41 H41         7.6338   54.1990   14.0123 H         1 UNK         0.0000 
     42 H42         7.1980   55.2672   15.3141 H         1 UNK         0.0000 
     43 H43         9.2273   53.9492   15.9043 H         1 UNK         0.0000 
     44 H44         7.9182   53.5106   16.9894 H         1 UNK         0.0000 
     45 H45         8.3516   52.4408   15.6591 H         1 UNK         0.0000 
     46 H46         1.9839   50.6783   18.5509 H         1 UNK         0.0000 
     47 H47         1.3569   52.0306   19.4917 H         1 UNK         0.0000 
     48 H48         3.9037   50.4972   20.1711 H         1 UNK         0.0000 
     49 H49         2.3896   50.3554   21.0295 H         1 UNK         0.0000 
     50 H50         4.0001   51.8384   22.0817 H         1 UNK         0.0000 
     51 H51         2.5055   52.7135   21.8002 H         1 UNK         0.0000 
     52 H52         7.2315   53.6981   22.8819 H         1 UNK         0.0000 
     53 H53         7.2373   53.9596   25.2922 H         1 UNK         0.0000 
     54 H54         3.0024   54.6989   25.2290 H         1 UNK         0.0000 
     55 H55         3.0339   54.6258   22.7910 H         1 UNK         0.0000 
     56 H56         7.5988   56.2718   20.7498 H         1 UNK         0.0000 
     57 H57         6.9158   55.6926   22.2296 H         1 UNK         0.0000 
@<TRIPOS>BOND
     1    1    2 1    
     2    1   35 1    
     3    1   36 1    
     4    1   37 1    
     5    2    3 1    
     6    2   38 1    
     7    2   39 1    
     8    3    7 1    
     9    3    4 2    
    10    4    5 1    
    11    4   40 1    
    12    5    6 2    
    13    5   11 1    
    14    6    7 1    
    15    6    8 1    
    16    8    9 1    
    17    9   10 1    
    18    9   41 1    
    19    9   42 1    
    20   10   43 1    
    21   10   44 1    
    22   10   45 1    
    23   11   12 1    
    24   11   17 1    
    25   11   13 1    
    26   13   14 2    
    27   13   33 1    
    28   14   15 1    
    29   14   32 1    
    30   15   16 1    
    31   15   23 1    
    32   16   22 1    
    33   16   17 2    
    34   17   18 1    
    35   18   19 2    
    36   18   20 1    
    37   20   21 1    
    38   20   46 1    
    39   20   47 1    
    40   21   22 1    
    41   21   48 1    
    42   21   49 1    
    43   22   50 1    
    44   22   51 1    
    45   23   28 ar   
    46   23   24 ar   
    47   24   25 ar   
    48   24   52 1    
    49   25   26 ar   
    50   25   53 1    
    51   26   27 ar   
    52   26   29 1    
    53   27   28 ar   
    54   27   54 1    
    55   28   55 1    
    56   29   30 2    
    57   29   31 1    
    58   32   56 1    
    59   32   57 1    
    60   33   34 3    
@<TRIPOS>SUBSTRUCTURE
     1 UNK         1 GROUP             0       ****    0 ROOT    
