@<TRIPOS>MOLECULE
ZINC13094789_1929
49   51    1
SMALL
USER_CHARGES


@<TRIPOS>ATOM
      1 C1          4.8483   59.7016   14.4820 C.3       1 UNK         0.0000 
      2 C2          4.8536   58.3652   15.1995 C.ar      1 UNK         0.0000 
      3 C3          5.4163   57.2473   14.5827 C.ar      1 UNK         0.0000 
      4 C4          5.3810   56.0129   15.2235 C.ar      1 UNK         0.0000 
      5 C5          4.7667   55.8960   16.4710 C.ar      1 UNK         0.0000 
      6 C6          4.2341   57.0190   17.1043 C.ar      1 UNK         0.0000 
      7 C7          4.2666   58.2550   16.4610 C.ar      1 UNK         0.0000 
      8 S8          4.6918   54.3002   17.2818 S.o2      1 UNK         0.0000 
      9 O9          4.9036   53.2897   16.2393 O.2       1 UNK         0.0000 
     10 O10         3.4812   54.2989   18.1086 O.2       1 UNK         0.0000 
     11 N11         6.1307   54.2465   18.3556 N.pl3     1 UNK         0.0000 
     12 C12         7.4207   54.3728   17.6758 C.3       1 UNK         0.0000 
     13 C13         6.0733   54.5017   19.7496 C.ar      1 UNK         0.0000 
     14 C14         7.0362   55.2982   20.3879 C.ar      1 UNK         0.0000 
     15 C15         7.0557   55.4202   21.7738 C.ar      1 UNK         0.0000 
     16 C16         6.1061   54.7638   22.5679 C.ar      1 UNK         0.0000 
     17 C17         5.1150   54.0016   21.9254 C.ar      1 UNK         0.0000 
     18 C18         5.1043   53.8706   20.5382 C.ar      1 UNK         0.0000 
     19 C19         6.1736   54.8955   24.0821 C.2       1 UNK         0.0000 
     20 O20         7.1026   55.5100   24.6097 O.2       1 UNK         0.0000 
     21 N21         5.1590   54.3483   24.7935 N.am      1 UNK         0.0000 
     22 C22         5.0608   54.2923   26.1960 C.ar      1 UNK         0.0000 
     23 C23         6.1824   54.1151   27.0166 C.ar      1 UNK         0.0000 
     24 C24         6.0444   54.0921   28.3972 C.ar      1 UNK         0.0000 
     25 C25         4.7860   54.2363   28.9732 C.ar      1 UNK         0.0000 
     26 C26         3.6407   54.3844   28.1826 C.ar      1 UNK         0.0000 
     27 C27         3.7942   54.3925   26.7830 C.ar      1 UNK         0.0000 
     28 C28         2.2956   54.5412   28.8291 C.2       1 UNK         0.0000 
     29 O29         2.2438   54.4943   30.0817 O.co2     1 UNK         0.0000 
     30 H30         4.9953   59.5876   13.4065 H         1 UNK         0.0000 
     31 H31         3.8871   60.1986   14.6191 H         1 UNK         0.0000 
     32 H32         5.6195   60.3591   14.8834 H         1 UNK         0.0000 
     33 H33         5.8745   57.3325   13.6073 H         1 UNK         0.0000 
     34 H34         5.8086   55.1478   14.7364 H         1 UNK         0.0000 
     35 H35         3.7762   56.9317   18.0776 H         1 UNK         0.0000 
     36 H36         3.8373   59.1267   16.9382 H         1 UNK         0.0000 
     37 H37         8.2158   53.8971   18.2539 H         1 UNK         0.0000 
     38 H38         7.3977   53.8890   16.7001 H         1 UNK         0.0000 
     39 H39         7.6773   55.4219   17.5246 H         1 UNK         0.0000 
     40 H40         7.8058   55.8015   19.8182 H         1 UNK         0.0000 
     41 H41         7.8377   56.0146   22.2288 H         1 UNK         0.0000 
     42 H42         4.3576   53.4694   22.4808 H         1 UNK         0.0000 
     43 H43         4.3679   53.2211   20.0872 H         1 UNK         0.0000 
     44 H44         4.3621   54.0044   24.2821 H         1 UNK         0.0000 
     45 H45         7.1688   53.9924   26.5937 H         1 UNK         0.0000 
     46 H46         6.9191   53.9760   29.0201 H         1 UNK         0.0000 
     47 H47         4.7049   54.2350   30.0508 H         1 UNK         0.0000 
     48 H48         2.9221   54.5016   26.1510 H         1 UNK         0.0000 
     49 O49         1.3048   54.7157   28.0832 O.co2     1 UNK         0.0000 
@<TRIPOS>BOND
     1    1    2 1    
     2    1   30 1    
     3    1   31 1    
     4    1   32 1    
     5    2    7 ar   
     6    2    3 ar   
     7    3    4 ar   
     8    3   33 1    
     9    4    5 ar   
    10    4   34 1    
    11    5    6 ar   
    12    5    8 1    
    13    6    7 ar   
    14    6   35 1    
    15    7   36 1    
    16    8    9 2    
    17    8   10 2    
    18    8   11 1    
    19   11   12 1    
    20   11   13 1    
    21   12   37 1    
    22   12   38 1    
    23   12   39 1    
    24   13   18 ar   
    25   13   14 ar   
    26   14   15 ar   
    27   14   40 1    
    28   15   16 ar   
    29   15   41 1    
    30   16   17 ar   
    31   16   19 1    
    32   17   18 ar   
    33   17   42 1    
    34   18   43 1    
    35   19   20 2    
    36   19   21 am   BACKBONE|DICT|INTERRES
    37   21   22 1    
    38   21   44 1    
    39   22   27 ar   
    40   22   23 ar   
    41   23   24 ar   
    42   23   45 1    
    43   24   25 ar   
    44   24   46 1    
    45   25   26 ar   
    46   25   47 1    
    47   26   27 ar   
    48   26   28 1    
    49   27   48 1    
    50   28   29 2    
    51   28   49 1    
@<TRIPOS>SUBSTRUCTURE
     1 UNK         1 GROUP             0       ****    0 ROOT    
