@<TRIPOS>MOLECULE
ZINC10031288_1117
59   63    1
SMALL
USER_CHARGES


@<TRIPOS>ATOM
      1 C1          3.9582   52.6271   15.6426 C.3       1 UNK         0.0000 
      2 C2          2.4491   52.3373   17.6616 C.3       1 UNK         0.0000 
      3 C3          2.4858   51.8736   19.1349 C.3       1 UNK         0.0000 
      4 C4          3.4779   52.6979   19.9583 C.2       1 UNK         0.0000 
      5 C5          4.4280   53.5210   19.3376 C.2       1 UNK         0.0000 
      6 S6          5.4014   54.3714   20.4779 S.3       1 UNK         0.0000 
      7 C7          4.5751   53.6020   21.8110 C.2       1 UNK         0.0000 
      8 C8          3.5174   52.7898   21.3683 C.2       1 UNK         0.0000 
      9 C9          2.5904   52.0942   22.2788 C.2       1 UNK         0.0000 
     10 N10         2.0844   52.6764   23.3331 N.2       1 UNK         0.0000 
     11 C11         1.3319   51.8248   24.0771 C.ar      1 UNK         0.0000 
     12 C12         0.6737   52.1694   25.2654 C.ar      1 UNK         0.0000 
     13 C13        -0.0198   51.1734   25.9567 C.ar      1 UNK         0.0000 
     14 C14        -0.0684   49.8648   25.4780 C.ar      1 UNK         0.0000 
     15 C15         0.5593   49.5031   24.2842 C.ar      1 UNK         0.0000 
     16 C16         1.2599   50.4967   23.5847 C.ar      1 UNK         0.0000 
     17 S17         2.1710   50.4006   22.0828 S.3       1 UNK         0.0000 
     18 N18         4.9696   53.7453   23.1400 N.am      1 UNK         0.0000 
     19 C19         5.9832   54.4797   23.6473 C.2       1 UNK         0.0000 
     20 O20         6.7044   55.2351   22.9983 O.2       1 UNK         0.0000 
     21 C21         6.2325   54.3568   25.1554 C.3       1 UNK         0.0000 
     22 C22         5.1878   55.0809   26.0217 C.3       1 UNK         0.0000 
     23 S23         3.5080   54.3847   26.0489 S.3       1 UNK         0.0000 
     24 C24         3.1893   53.7577   27.6696 C.ar      1 UNK         0.0000 
     25 C25         1.9199   53.9288   28.2177 C.ar      1 UNK         0.0000 
     26 C26         1.6256   53.3921   29.4672 C.ar      1 UNK         0.0000 
     27 C27         2.6062   52.6818   30.1760 C.ar      1 UNK         0.0000 
     28 C28         3.8807   52.5402   29.6286 C.ar      1 UNK         0.0000 
     29 C29         4.1769   53.0724   28.3769 C.ar      1 UNK         0.0000 
     30 O30         2.4001   52.0966   31.4089 O.3       1 UNK         0.0000 
     31 C31         1.0960   52.1206   31.9863 C.3       1 UNK         0.0000 
     32 C32         4.5714   53.7246   17.8385 C.3       1 UNK         0.0000 
     33 H33         3.3946   53.5150   15.3485 H         1 UNK         0.0000 
     34 H34         5.0100   52.7044   15.3623 H         1 UNK         0.0000 
     35 H35         3.5225   51.7147   15.2292 H         1 UNK         0.0000 
     36 H36         1.9536   53.3012   17.5182 H         1 UNK         0.0000 
     37 H37         1.9765   51.5740   17.0385 H         1 UNK         0.0000 
     38 H38         2.8055   50.8297   19.1666 H         1 UNK         0.0000 
     39 H39         1.4830   51.9070   19.5617 H         1 UNK         0.0000 
     40 H40         0.7233   53.1760   25.6481 H         1 UNK         0.0000 
     41 H41        -0.5167   51.4124   26.8864 H         1 UNK         0.0000 
     42 H42        -0.6003   49.1173   26.0550 H         1 UNK         0.0000 
     43 H43         0.5293   48.4841   23.9278 H         1 UNK         0.0000 
     44 H44         4.3906   53.2589   23.8093 H         1 UNK         0.0000 
     45 H45         7.2456   54.6686   25.4114 H         1 UNK         0.0000 
     46 H46         6.1927   53.2968   25.3951 H         1 UNK         0.0000 
     47 H47         5.1183   56.1091   25.6816 H         1 UNK         0.0000 
     48 H48         5.5407   55.1278   27.0526 H         1 UNK         0.0000 
     49 H49         1.1568   54.4652   27.6744 H         1 UNK         0.0000 
     50 H50         0.6314   53.5273   29.8636 H         1 UNK         0.0000 
     51 H51         4.6417   51.9987   30.1719 H         1 UNK         0.0000 
     52 H52         5.1584   52.9227   27.9516 H         1 UNK         0.0000 
     53 H53         1.0930   51.5022   32.8821 H         1 UNK         0.0000 
     54 H54         0.3405   51.7104   31.3148 H         1 UNK         0.0000 
     55 H55         0.8003   53.1294   32.2772 H         1 UNK         0.0000 
     56 H56         4.0605   54.6215   17.4816 H         1 UNK         0.0000 
     57 H57         5.6097   53.7156   17.5021 H         1 UNK         0.0000 
     58 N58         3.9053   52.4968   17.1792 N.4       1 UNK         0.0000 
     59 H59         4.4134   51.6406   17.4368 H         1 UNK         0.0000 
@<TRIPOS>BOND
     1    1   33 1    
     2    1   34 1    
     3    1   35 1    
     4    1   58 1    
     5    2    3 1    
     6    2   36 1    
     7    2   37 1    
     8    2   58 1    
     9    3    4 1    
    10    3   38 1    
    11    3   39 1    
    12    4    8 1    
    13    4    5 2    
    14    5    6 1    
    15    5   32 1    
    16    6    7 1    
    17    7    8 2    
    18    7   18 am   BACKBONE|DICT|INTERRES
    19    8    9 1    
    20    9   17 1    
    21    9   10 2    
    22   10   11 1    
    23   11   16 ar   
    24   11   12 ar   
    25   12   13 ar   
    26   12   40 1    
    27   13   14 ar   
    28   13   41 1    
    29   14   15 ar   
    30   14   42 1    
    31   15   16 ar   
    32   15   43 1    
    33   16   17 1    
    34   18   19 am   BACKBONE|DICT|INTERRES
    35   18   44 1    
    36   19   20 2    
    37   19   21 1    
    38   21   22 1    
    39   21   45 1    
    40   21   46 1    
    41   22   23 1    
    42   22   47 1    
    43   22   48 1    
    44   23   24 1    
    45   24   29 ar   
    46   24   25 ar   
    47   25   26 ar   
    48   25   49 1    
    49   26   27 ar   
    50   26   50 1    
    51   27   28 ar   
    52   27   30 1    
    53   28   29 ar   
    54   28   51 1    
    55   29   52 1    
    56   30   31 1    
    57   31   53 1    
    58   31   54 1    
    59   31   55 1    
    60   32   56 1    
    61   32   57 1    
    62   32   58 1    
    63   58   59 1    
@<TRIPOS>SUBSTRUCTURE
     1 UNK         1 GROUP             0       ****    0 ROOT    
