@<TRIPOS>MOLECULE
ZINC35768267_4990
65   68    1
SMALL
USER_CHARGES


@<TRIPOS>ATOM
      1 C1          7.1044   55.2924   25.7590 C.3       1 UNK         0.0000 
      2 C2          5.7031   54.7568   25.6018 C.ar      1 UNK         0.0000 
      3 C3          4.9305   54.4908   26.7289 C.ar      1 UNK         0.0000 
      4 C4          3.6507   53.9652   26.5893 C.ar      1 UNK         0.0000 
      5 C5          3.1263   53.6955   25.3135 C.ar      1 UNK         0.0000 
      6 C6          3.8959   53.9998   24.1729 C.ar      1 UNK         0.0000 
      7 C7          5.1892   54.5050   24.3317 C.ar      1 UNK         0.0000 
      8 C8          3.3713   53.7726   22.7587 C.3       1 UNK         0.0000 
      9 N9          1.8823   53.0725   25.0998 N.am      1 UNK         0.0000 
     10 C10         0.9710   52.5916   25.9738 C.2       1 UNK         0.0000 
     11 O11         1.0813   52.6411   27.2004 O.2       1 UNK         0.0000 
     12 N12        -0.1405   52.1176   25.3590 N.am      1 UNK         0.0000 
     13 C13        -0.0583   51.2645   24.1451 C.3       1 UNK         0.0000 
     14 C14        -0.4024   49.8025   24.5381 C.3       1 UNK         0.0000 
     15 C15        -1.7708   49.7283   25.2390 C.3       1 UNK         0.0000 
     16 C16        -1.7552   50.6414   26.4824 C.3       1 UNK         0.0000 
     17 C17        -1.4173   52.0978   26.1055 C.3       1 UNK         0.0000 
     18 N18        -2.0797   48.2833   25.6817 N.4       1 UNK         0.0000 
     19 C19        -3.6116   48.1071   25.6730 C.3       1 UNK         0.0000 
     20 H20        -3.9789   48.6634   26.5391 H         1 UNK         0.0000 
     21 C21        -4.0907   48.6920   24.3347 C.3       1 UNK         0.0000 
     22 S22        -3.1217   50.1791   24.0997 S.3       1 UNK         0.0000 
     23 C23        -4.0810   46.6524   25.7964 C.2       1 UNK         0.0000 
     24 O24        -3.2966   45.7084   25.6816 O.2       1 UNK         0.0000 
     25 N25        -5.4051   46.5125   25.9810 N.am      1 UNK         0.0000 
     26 C26        -6.1189   45.2500   26.0961 C.3       1 UNK         0.0000 
     27 C27        -6.1389   44.7123   27.5343 C.3       1 UNK         0.0000 
     28 C28        -6.9801   43.4519   27.6818 C.ar      1 UNK         0.0000 
     29 C29        -8.2453   43.5279   28.2783 C.ar      1 UNK         0.0000 
     30 C30        -9.0029   42.3716   28.4775 C.ar      1 UNK         0.0000 
     31 C31        -8.5122   41.1367   28.0599 C.ar      1 UNK         0.0000 
     32 C32        -7.2672   41.0577   27.4395 C.ar      1 UNK         0.0000 
     33 C33        -6.4948   42.2057   27.2524 C.ar      1 UNK         0.0000 
     34 Cl34       -4.9415   42.0707   26.4944 Cl        1 UNK         0.0000 
     35 Cl35       -9.4406   39.7043   28.3109 Cl        1 UNK         0.0000 
     36 H36         7.7542   54.8807   24.9863 H         1 UNK         0.0000 
     37 H37         7.1042   56.3787   25.6823 H         1 UNK         0.0000 
     38 H38         7.5032   54.9903   26.7289 H         1 UNK         0.0000 
     39 H39         5.3226   54.6804   27.7187 H         1 UNK         0.0000 
     40 H40         3.1046   53.7615   27.4954 H         1 UNK         0.0000 
     41 H41         5.7944   54.7134   23.4612 H         1 UNK         0.0000 
     42 H42         4.0665   54.1221   21.9937 H         1 UNK         0.0000 
     43 H43         3.1793   52.7122   22.5886 H         1 UNK         0.0000 
     44 H44         2.4309   54.3066   22.6136 H         1 UNK         0.0000 
     45 H45         1.6424   52.9779   24.1260 H         1 UNK         0.0000 
     46 H46         0.8972   51.3321   23.6209 H         1 UNK         0.0000 
     47 H47        -0.8014   51.6448   23.4446 H         1 UNK         0.0000 
     48 H48         0.3852   49.4051   25.1828 H         1 UNK         0.0000 
     49 H49        -0.3948   49.1774   23.6438 H         1 UNK         0.0000 
     50 H50        -2.7156   50.6183   27.0014 H         1 UNK         0.0000 
     51 H51        -1.0238   50.2887   27.2149 H         1 UNK         0.0000 
     52 H52        -1.4182   52.7729   26.9635 H         1 UNK         0.0000 
     53 H53        -2.1784   52.4886   25.4319 H         1 UNK         0.0000 
     54 H54        -1.6960   48.1023   26.6151 H         1 UNK         0.0000 
     55 H55        -3.8949   48.0345   23.4823 H         1 UNK         0.0000 
     56 H56        -5.1508   48.9556   24.3344 H         1 UNK         0.0000 
     57 H57        -5.9676   47.3461   26.0589 H         1 UNK         0.0000 
     58 H58        -5.7444   44.5002   25.3975 H         1 UNK         0.0000 
     59 H59        -7.1470   45.3972   25.7612 H         1 UNK         0.0000 
     60 H60        -6.5114   45.4838   28.2112 H         1 UNK         0.0000 
     61 H61        -5.1213   44.5065   27.8697 H         1 UNK         0.0000 
     62 H62        -8.6380   44.4758   28.6176 H         1 UNK         0.0000 
     63 H63        -9.9652   42.4270   28.9700 H         1 UNK         0.0000 
     64 H64        -6.8956   40.0948   27.1252 H         1 UNK         0.0000 
     65 H65        -1.6470   47.6255   25.0514 H         1 UNK         0.0000 
@<TRIPOS>BOND
     1    1    2 1    
     2    1   36 1    
     3    1   37 1    
     4    1   38 1    
     5    2    7 ar   
     6    2    3 ar   
     7    3    4 ar   
     8    3   39 1    
     9    4    5 ar   
    10    4   40 1    
    11    5    6 ar   
    12    5    9 1    
    13    6    7 ar   
    14    6    8 1    
    15    7   41 1    
    16    8   42 1    
    17    8   43 1    
    18    8   44 1    
    19    9   10 am   BACKBONE|DICT|INTERRES
    20    9   45 1    
    21   10   11 2    
    22   10   12 am   BACKBONE|DICT|INTERRES
    23   12   17 1    
    24   12   13 1    
    25   13   14 1    
    26   13   46 1    
    27   13   47 1    
    28   14   15 1    
    29   14   48 1    
    30   14   49 1    
    31   15   22 1    
    32   15   16 1    
    33   15   18 1    
    34   16   17 1    
    35   16   50 1    
    36   16   51 1    
    37   17   52 1    
    38   17   53 1    
    39   18   19 1    
    40   18   54 1    
    41   18   65 1    
    42   19   20 1    
    43   19   21 1    
    44   19   23 1    
    45   21   22 1    
    46   21   55 1    
    47   21   56 1    
    48   23   24 2    
    49   23   25 am   BACKBONE|DICT|INTERRES
    50   25   26 1    
    51   25   57 1    
    52   26   27 1    
    53   26   58 1    
    54   26   59 1    
    55   27   28 1    
    56   27   60 1    
    57   27   61 1    
    58   28   33 ar   
    59   28   29 ar   
    60   29   30 ar   
    61   29   62 1    
    62   30   31 ar   
    63   30   63 1    
    64   31   32 ar   
    65   31   35 1    
    66   32   33 ar   
    67   32   64 1    
    68   33   34 1    
@<TRIPOS>SUBSTRUCTURE
     1 UNK         1 GROUP             0       ****    0 ROOT    
