@<TRIPOS>MOLECULE
ZINC38546516_5248
70   74    1
SMALL
USER_CHARGES


@<TRIPOS>ATOM
      1 C1         -7.1358   52.7816   25.1322 C.3       1 UNK         0.0000 
      2 C2         -6.0173   53.8030   25.4082 C.3       1 UNK         0.0000 
      3 C3         -6.2920   54.6253   26.6840 C.3       1 UNK         0.0000 
      4 C4         -4.6376   53.1452   25.4370 C.ar      1 UNK         0.0000 
      5 C5         -3.6826   53.4832   24.4758 C.ar      1 UNK         0.0000 
      6 C6         -2.4253   52.8802   24.4908 C.ar      1 UNK         0.0000 
      7 C7         -2.1214   51.9143   25.4582 C.ar      1 UNK         0.0000 
      8 C8         -3.0764   51.5895   26.4277 C.ar      1 UNK         0.0000 
      9 C9         -4.3261   52.1991   26.4169 C.ar      1 UNK         0.0000 
     10 C10        -0.7717   51.1697   25.4586 C.3       1 UNK         0.0000 
     11 H11        -0.8939   50.3670   26.1854 H         1 UNK         0.0000 
     12 C12         0.3577   52.0971   25.9616 C.2       1 UNK         0.0000 
     13 C13         0.5183   52.4374   27.3312 C.2       1 UNK         0.0000 
     14 C14         1.5909   53.3082   27.5730 C.2       1 UNK         0.0000 
     15 S15         2.4427   53.6967   26.1284 S.3       1 UNK         0.0000 
     16 C16         1.3484   52.7232   25.1791 C.2       1 UNK         0.0000 
     17 N17         1.5170   52.5307   23.8137 N.am      1 UNK         0.0000 
     18 C18         2.3692   53.1435   22.9644 C.2       1 UNK         0.0000 
     19 O19         3.0757   54.1193   23.2262 O.2       1 UNK         0.0000 
     20 C20         2.4244   52.5073   21.6743 C.2       1 UNK         0.0000 
     21 C21         1.5252   51.6855   20.9896 C.2       1 UNK         0.0000 
     22 C22         2.1037   51.3960   19.7521 C.2       1 UNK         0.0000 
     23 C23         3.3018   52.0899   19.7090 C.2       1 UNK         0.0000 
     24 O24         3.4847   52.7830   20.8640 O.3       1 UNK         0.0000 
     25 C25         2.0386   53.8078   28.9424 C.3       1 UNK         0.0000 
     26 C26         0.9226   53.5378   29.9730 C.3       1 UNK         0.0000 
     27 C27         0.3673   52.1110   29.8378 C.3       1 UNK         0.0000 
     28 C28        -0.3340   51.8917   28.4812 C.3       1 UNK         0.0000 
     29 N29        -0.4560   50.4750   24.1742 N.3       1 UNK         0.0000 
     30 C30        -1.6106   49.9108   23.4495 C.3       1 UNK         0.0000 
     31 C31        -2.3314   48.8011   24.2363 C.3       1 UNK         0.0000 
     32 N32        -1.3476   47.6566   24.5545 N.4       1 UNK         0.0000 
     33 C33         0.0267   48.1336   25.0878 C.3       1 UNK         0.0000 
     34 C34         0.5454   49.4073   24.3745 C.3       1 UNK         0.0000 
     35 C35        -1.9995   46.6722   25.5509 C.3       1 UNK         0.0000 
     36 H36        -6.9410   52.2253   24.2142 H         1 UNK         0.0000 
     37 H37        -8.0988   53.2792   25.0120 H         1 UNK         0.0000 
     38 H38        -7.2369   52.0593   25.9433 H         1 UNK         0.0000 
     39 H39        -6.0327   54.4969   24.5666 H         1 UNK         0.0000 
     40 H40        -5.4901   55.3370   26.8834 H         1 UNK         0.0000 
     41 H41        -7.2188   55.1925   26.5925 H         1 UNK         0.0000 
     42 H42        -6.3878   53.9864   27.5628 H         1 UNK         0.0000 
     43 H43        -3.9059   54.2174   23.7156 H         1 UNK         0.0000 
     44 H44        -1.6916   53.1447   23.7425 H         1 UNK         0.0000 
     45 H45        -2.8602   50.8465   27.1839 H         1 UNK         0.0000 
     46 H46        -5.0548   51.9279   27.1677 H         1 UNK         0.0000 
     47 H47         0.9110   51.8146   23.4328 H         1 UNK         0.0000 
     48 H48         0.5736   51.3229   21.3505 H         1 UNK         0.0000 
     49 H49         1.7031   50.7635   18.9717 H         1 UNK         0.0000 
     50 H50         4.0832   52.1725   18.9648 H         1 UNK         0.0000 
     51 H51         2.9428   53.2787   29.2462 H         1 UNK         0.0000 
     52 H52         2.2838   54.8708   28.9215 H         1 UNK         0.0000 
     53 H53         1.3039   53.6954   30.9816 H         1 UNK         0.0000 
     54 H54         0.1126   54.2582   29.8439 H         1 UNK         0.0000 
     55 H55         1.1861   51.3977   29.9383 H         1 UNK         0.0000 
     56 H56        -0.3274   51.8958   30.6521 H         1 UNK         0.0000 
     57 H57        -1.2952   52.4002   28.4919 H         1 UNK         0.0000 
     58 H58        -0.5536   50.8322   28.3539 H         1 UNK         0.0000 
     59 H59        -2.3027   50.6892   23.1307 H         1 UNK         0.0000 
     60 H60        -1.2252   49.5052   22.5117 H         1 UNK         0.0000 
     61 H61        -3.1206   48.3547   23.6299 H         1 UNK         0.0000 
     62 H62        -2.7524   49.1568   25.1775 H         1 UNK         0.0000 
     63 H63         0.7040   47.2993   24.8819 H         1 UNK         0.0000 
     64 H64        -0.0849   48.2977   26.1630 H         1 UNK         0.0000 
     65 H65         0.8210   49.1128   23.3602 H         1 UNK         0.0000 
     66 H66         1.4704   49.7743   24.8270 H         1 UNK         0.0000 
     67 H67        -2.1941   47.2161   26.4790 H         1 UNK         0.0000 
     68 H68        -2.9264   46.3070   25.1079 H         1 UNK         0.0000 
     69 H69        -1.2960   45.8629   25.7305 H         1 UNK         0.0000 
     70 H70        -1.1577   47.2261   23.6589 H         1 UNK         0.0000 
@<TRIPOS>BOND
     1    1    2 1    
     2    1   36 1    
     3    1   37 1    
     4    1   38 1    
     5    2    3 1    
     6    2    4 1    
     7    2   39 1    
     8    3   40 1    
     9    3   41 1    
    10    3   42 1    
    11    4    9 ar   
    12    4    5 ar   
    13    5    6 ar   
    14    5   43 1    
    15    6    7 ar   
    16    6   44 1    
    17    7    8 ar   
    18    7   10 1    
    19    8    9 ar   
    20    8   45 1    
    21    9   46 1    
    22   10   11 1    
    23   10   12 1    
    24   10   29 1    
    25   12   16 2    
    26   12   13 1    
    27   13   28 1    
    28   13   14 2    
    29   14   15 1    
    30   14   25 1    
    31   15   16 1    
    32   16   17 am   BACKBONE|DICT|INTERRES
    33   17   18 am   BACKBONE|DICT|INTERRES
    34   17   47 1    
    35   18   19 2    
    36   18   20 1    
    37   20   24 1    
    38   20   21 2    
    39   21   22 1    
    40   21   48 1    
    41   22   23 2    
    42   22   49 1    
    43   23   24 1    
    44   23   50 1    
    45   25   26 1    
    46   25   51 1    
    47   25   52 1    
    48   26   27 1    
    49   26   53 1    
    50   26   54 1    
    51   27   28 1    
    52   27   55 1    
    53   27   56 1    
    54   28   57 1    
    55   28   58 1    
    56   29   34 1    
    57   29   30 1    
    58   30   31 1    
    59   30   59 1    
    60   30   60 1    
    61   31   32 1    
    62   31   61 1    
    63   31   62 1    
    64   32   33 1    
    65   32   35 1    
    66   32   70 1    
    67   33   34 1    
    68   33   63 1    
    69   33   64 1    
    70   34   65 1    
    71   34   66 1    
    72   35   67 1    
    73   35   68 1    
    74   35   69 1    
@<TRIPOS>SUBSTRUCTURE
     1 UNK         1 GROUP             0       ****    0 ROOT    
