@<TRIPOS>MOLECULE
ZINC07987370_206
53   55    1
SMALL
USER_CHARGES


@<TRIPOS>ATOM
      1 C1          1.9045   50.7261   17.3370 C.3       1 UNK         0.0000 
      2 C2          1.3906   52.0431   17.9487 C.3       1 UNK         0.0000 
      3 C3          3.6213   53.2825   17.6361 C.3       1 UNK         0.0000 
      4 C4          4.4394   54.4395   18.2587 C.3       1 UNK         0.0000 
      5 C5          4.7363   54.2128   19.7498 C.2       1 UNK         0.0000 
      6 C6          4.0919   53.1785   20.4409 C.2       1 UNK         0.0000 
      7 S7          4.5793   53.0893   22.0815 S.3       1 UNK         0.0000 
      8 C8          5.6478   54.4503   21.8869 C.2       1 UNK         0.0000 
      9 C9          5.6614   54.9431   20.5611 C.2       1 UNK         0.0000 
     10 C10         6.4934   56.0819   20.1250 C.2       1 UNK         0.0000 
     11 O11         7.5015   56.4561   20.7259 O.2       1 UNK         0.0000 
     12 O12         5.9971   56.6915   19.0290 O.3       1 UNK         0.0000 
     13 C13         6.6163   57.8471   18.4822 C.3       1 UNK         0.0000 
     14 C14         5.8688   58.2599   17.2105 C.3       1 UNK         0.0000 
     15 N15         6.4362   54.9151   22.9510 N.am      1 UNK         0.0000 
     16 C16         6.2288   54.8857   24.2889 C.2       1 UNK         0.0000 
     17 O17         7.1044   55.3014   25.0399 O.2       1 UNK         0.0000 
     18 N18         5.0186   54.4748   24.7251 N.am      1 UNK         0.0000 
     19 C19         4.5531   54.2965   26.0390 C.ar      1 UNK         0.0000 
     20 C20         3.1777   54.0959   26.1778 C.ar      1 UNK         0.0000 
     21 C21         2.6219   53.8875   27.4366 C.ar      1 UNK         0.0000 
     22 C22         3.4432   53.8773   28.5643 C.ar      1 UNK         0.0000 
     23 C23         4.8191   54.0661   28.4304 C.ar      1 UNK         0.0000 
     24 C24         5.3759   54.2695   27.1744 C.ar      1 UNK         0.0000 
     25 C25         2.8355   53.6320   29.9318 C.3       1 UNK         0.0000 
     26 C26         3.1144   52.1794   19.8421 C.3       1 UNK         0.0000 
     27 H27         1.0912   50.1829   16.8556 H         1 UNK         0.0000 
     28 H28         2.3305   50.0545   18.0804 H         1 UNK         0.0000 
     29 H29         2.6650   50.8969   16.5749 H         1 UNK         0.0000 
     30 H30         0.9526   52.6955   17.1913 H         1 UNK         0.0000 
     31 H31         0.6383   51.8752   18.7217 H         1 UNK         0.0000 
     32 H32         4.2246   52.3881   17.4531 H         1 UNK         0.0000 
     33 H33         3.1549   53.6046   16.7036 H         1 UNK         0.0000 
     34 H34         5.3552   54.5773   17.6836 H         1 UNK         0.0000 
     35 H35         3.8713   55.3670   18.1598 H         1 UNK         0.0000 
     36 H36         6.5941   58.6617   19.2068 H         1 UNK         0.0000 
     37 H37         7.6622   57.6432   18.2494 H         1 UNK         0.0000 
     38 H38         6.3050   59.1628   16.7805 H         1 UNK         0.0000 
     39 H39         5.9109   57.4765   16.4535 H         1 UNK         0.0000 
     40 H40         4.8197   58.4729   17.4165 H         1 UNK         0.0000 
     41 H41         7.2187   55.4916   22.6719 H         1 UNK         0.0000 
     42 H42         4.3321   54.2865   24.0126 H         1 UNK         0.0000 
     43 H43         2.5288   54.0968   25.3147 H         1 UNK         0.0000 
     44 H44         1.5574   53.7335   27.5344 H         1 UNK         0.0000 
     45 H45         5.4717   54.0528   29.2872 H         1 UNK         0.0000 
     46 H46         6.4446   54.3903   27.1130 H         1 UNK         0.0000 
     47 H47         2.0799   52.8482   29.8749 H         1 UNK         0.0000 
     48 H48         3.5852   53.2959   30.6499 H         1 UNK         0.0000 
     49 H49         2.3494   54.5381   30.2925 H         1 UNK         0.0000 
     50 H50         2.2830   51.9392   20.5081 H         1 UNK         0.0000 
     51 H51         3.6005   51.2619   19.5082 H         1 UNK         0.0000 
     52 N52         2.4962   52.8968   18.6227 N.4       1 UNK         0.0000 
     53 H53         2.0442   53.7521   18.9368 H         1 UNK         0.0000 
@<TRIPOS>BOND
     1    1    2 1    
     2    1   27 1    
     3    1   28 1    
     4    1   29 1    
     5    2   30 1    
     6    2   31 1    
     7    2   52 1    
     8    3    4 1    
     9    3   32 1    
    10    3   33 1    
    11    3   52 1    
    12    4    5 1    
    13    4   34 1    
    14    4   35 1    
    15    5    9 1    
    16    5    6 2    
    17    6    7 1    
    18    6   26 1    
    19    7    8 1    
    20    8    9 2    
    21    8   15 am   BACKBONE|DICT|INTERRES
    22    9   10 1    
    23   10   11 2    
    24   10   12 1    
    25   12   13 1    
    26   13   14 1    
    27   13   36 1    
    28   13   37 1    
    29   14   38 1    
    30   14   39 1    
    31   14   40 1    
    32   15   16 am   BACKBONE|DICT|INTERRES
    33   15   41 1    
    34   16   17 2    
    35   16   18 am   BACKBONE|DICT|INTERRES
    36   18   19 1    
    37   18   42 1    
    38   19   24 ar   
    39   19   20 ar   
    40   20   21 ar   
    41   20   43 1    
    42   21   22 ar   
    43   21   44 1    
    44   22   23 ar   
    45   22   25 1    
    46   23   24 ar   
    47   23   45 1    
    48   24   46 1    
    49   25   47 1    
    50   25   48 1    
    51   25   49 1    
    52   26   50 1    
    53   26   51 1    
    54   26   52 1    
    55   52   53 1    
@<TRIPOS>SUBSTRUCTURE
     1 UNK         1 GROUP             0       ****    0 ROOT    
