@<TRIPOS>MOLECULE
ZINC35664859_1036
74   78    1
SMALL
USER_CHARGES


@<TRIPOS>ATOM
      1 C1          1.5197   52.0984   31.5674 C.2       1 UNK         0.0000 
      2 C2          1.0360   52.3708   30.2847 C.2       1 UNK         0.0000 
      3 C3          2.0592   52.5381   29.3478 C.2       1 UNK         0.0000 
      4 S4          3.6277   52.4966   30.0939 S.3       1 UNK         0.0000 
      5 C5          2.9075   52.0967   31.6176 C.2       1 UNK         0.0000 
      6 C6          1.9565   52.8162   27.9479 C.2       1 UNK         0.0000 
      7 O7          2.7407   53.5810   27.3834 O.2       1 UNK         0.0000 
      8 N8          0.9770   52.1044   27.3570 N.am      1 UNK         0.0000 
      9 C9          0.7040   51.9715   25.9895 C.ar      1 UNK         0.0000 
     10 C10         1.0650   52.9087   25.0217 C.ar      1 UNK         0.0000 
     11 C11         0.7599   52.6792   23.6868 C.ar      1 UNK         0.0000 
     12 C12         0.0765   51.5247   23.2677 C.ar      1 UNK         0.0000 
     13 C13        -0.3035   50.5691   24.2559 C.ar      1 UNK         0.0000 
     14 C14         0.0448   50.8113   25.5977 C.ar      1 UNK         0.0000 
     15 C15        -0.8546   49.1901   23.9107 C.2       1 UNK         0.0000 
     16 O16        -0.4702   48.6244   22.8842 O.2       1 UNK         0.0000 
     17 N17        -1.7123   48.5829   24.7822 N.am      1 UNK         0.0000 
     18 C18        -2.1216   47.1839   24.5490 C.3       1 UNK         0.0000 
     19 C19        -3.3899   47.2021   23.6610 C.3       1 UNK         0.0000 
     20 C20        -4.5159   48.0474   24.2905 C.3       1 UNK         0.0000 
     21 C21        -4.0032   49.4349   24.7301 C.3       1 UNK         0.0000 
     22 C22        -2.7089   49.3384   25.5730 C.3       1 UNK         0.0000 
     23 N23        -0.2251   51.3909   21.9070 N.pl3     1 UNK         0.0000 
     24 C24         0.5835   52.0676   20.8711 C.3       1 UNK         0.0000 
     25 C25         0.3649   51.5652   19.4267 C.3       1 UNK         0.0000 
     26 N26        -1.0790   51.5554   19.1382 N.am      1 UNK         0.0000 
     27 C27        -1.8695   50.7518   20.0822 C.3       1 UNK         0.0000 
     28 C28        -1.6405   51.2915   21.5084 C.3       1 UNK         0.0000 
     29 C29        -1.6965   52.4976   18.3730 C.2       1 UNK         0.0000 
     30 O30        -2.8958   52.7565   18.4817 O.2       1 UNK         0.0000 
     31 N31        -0.9250   53.0975   17.4436 N.am      1 UNK         0.0000 
     32 C32        -1.3810   53.8834   16.2866 C.3       1 UNK         0.0000 
     33 C33        -2.2284   55.1441   16.6279 C.3       1 UNK         0.0000 
     34 C34        -1.4364   56.2030   17.4239 C.3       1 UNK         0.0000 
     35 C35        -0.1567   56.6264   16.6745 C.3       1 UNK         0.0000 
     36 C36         0.6912   55.4134   16.2396 C.3       1 UNK         0.0000 
     37 C37        -0.1639   54.3809   15.4684 C.3       1 UNK         0.0000 
     38 H38         0.8801   51.9136   32.4221 H         1 UNK         0.0000 
     39 H39        -0.0188   52.4155   30.0510 H         1 UNK         0.0000 
     40 H40         3.5308   51.9248   32.4814 H         1 UNK         0.0000 
     41 H41         0.4601   51.4808   27.9583 H         1 UNK         0.0000 
     42 H42         1.5714   53.8253   25.2827 H         1 UNK         0.0000 
     43 H43         1.0547   53.4404   22.9798 H         1 UNK         0.0000 
     44 H44        -0.1670   50.0645   26.3538 H         1 UNK         0.0000 
     45 H45        -1.3004   46.5728   24.1699 H         1 UNK         0.0000 
     46 H46        -2.3445   46.7535   25.5278 H         1 UNK         0.0000 
     47 H47        -3.1385   47.5868   22.6704 H         1 UNK         0.0000 
     48 H48        -3.7422   46.1836   23.5013 H         1 UNK         0.0000 
     49 H49        -4.9152   47.5228   25.1611 H         1 UNK         0.0000 
     50 H50        -5.3464   48.1556   23.5905 H         1 UNK         0.0000 
     51 H51        -4.7757   49.9417   25.3093 H         1 UNK         0.0000 
     52 H52        -3.8297   50.0669   23.8579 H         1 UNK         0.0000 
     53 H53        -2.8918   48.7578   26.4808 H         1 UNK         0.0000 
     54 H54        -2.3600   50.2960   25.9543 H         1 UNK         0.0000 
     55 H55         0.3040   53.1201   20.8826 H         1 UNK         0.0000 
     56 H56         1.6429   51.9808   21.1182 H         1 UNK         0.0000 
     57 H57         0.9576   52.1461   18.7194 H         1 UNK         0.0000 
     58 H58         0.7352   50.5405   19.3653 H         1 UNK         0.0000 
     59 H59        -1.5267   49.7168   20.0483 H         1 UNK         0.0000 
     60 H60        -2.9302   50.7288   19.8284 H         1 UNK         0.0000 
     61 H61        -2.2221   50.7005   22.2133 H         1 UNK         0.0000 
     62 H62        -2.0372   52.3086   21.5411 H         1 UNK         0.0000 
     63 H63         0.0260   52.7692   17.3759 H         1 UNK         0.0000 
     64 H64        -1.9823   53.2131   15.6686 H         1 UNK         0.0000 
     65 H65        -2.5882   55.5943   15.7010 H         1 UNK         0.0000 
     66 H66        -3.1331   54.8719   17.1693 H         1 UNK         0.0000 
     67 H67        -2.0604   57.0772   17.6144 H         1 UNK         0.0000 
     68 H68        -1.1704   55.8012   18.4005 H         1 UNK         0.0000 
     69 H69        -0.4340   57.2056   15.7923 H         1 UNK         0.0000 
     70 H70         0.4402   57.2948   17.2945 H         1 UNK         0.0000 
     71 H71         1.5222   55.7474   15.6178 H         1 UNK         0.0000 
     72 H72         1.1401   54.9466   17.1177 H         1 UNK         0.0000 
     73 H73         0.4604   53.5339   15.1783 H         1 UNK         0.0000 
     74 H74        -0.5051   54.8216   14.5296 H         1 UNK         0.0000 
@<TRIPOS>BOND
     1    1    5 2    
     2    1    2 1    
     3    1   38 1    
     4    2    3 2    
     5    2   39 1    
     6    3    4 1    
     7    3    6 1    
     8    4    5 1    
     9    5   40 1    
    10    6    7 2    
    11    6    8 am   BACKBONE|DICT|INTERRES
    12    8    9 1    
    13    8   41 1    
    14    9   14 ar   
    15    9   10 ar   
    16   10   11 ar   
    17   10   42 1    
    18   11   12 ar   
    19   11   43 1    
    20   12   13 ar   
    21   12   23 1    
    22   13   14 ar   
    23   13   15 1    
    24   14   44 1    
    25   15   16 2    
    26   15   17 am   BACKBONE|DICT|INTERRES
    27   17   22 1    
    28   17   18 1    
    29   18   19 1    
    30   18   45 1    
    31   18   46 1    
    32   19   20 1    
    33   19   47 1    
    34   19   48 1    
    35   20   21 1    
    36   20   49 1    
    37   20   50 1    
    38   21   22 1    
    39   21   51 1    
    40   21   52 1    
    41   22   53 1    
    42   22   54 1    
    43   23   28 1    
    44   23   24 1    
    45   24   25 1    
    46   24   55 1    
    47   24   56 1    
    48   25   26 1    
    49   25   57 1    
    50   25   58 1    
    51   26   27 1    
    52   26   29 am   BACKBONE|DICT|INTERRES
    53   27   28 1    
    54   27   59 1    
    55   27   60 1    
    56   28   61 1    
    57   28   62 1    
    58   29   30 2    
    59   29   31 am   BACKBONE|DICT|INTERRES
    60   31   32 1    
    61   31   63 1    
    62   32   37 1    
    63   32   33 1    
    64   32   64 1    
    65   33   34 1    
    66   33   65 1    
    67   33   66 1    
    68   34   35 1    
    69   34   67 1    
    70   34   68 1    
    71   35   36 1    
    72   35   69 1    
    73   35   70 1    
    74   36   37 1    
    75   36   71 1    
    76   36   72 1    
    77   37   73 1    
    78   37   74 1    
@<TRIPOS>SUBSTRUCTURE
     1 UNK         1 GROUP             0       ****    0 ROOT    
