ZINC39198218_6051
                    3D
 Schrodinger Suite 2024-2.
 68 73  0  0  1  0            999 V2000
   -1.8756   51.9230   17.6808 C   0  0  0  0  0  0
   -2.1475   53.2806   17.5529 C   0  0  0  0  0  0
   -1.1091   54.1661   17.2816 C   0  0  0  0  0  0
    0.2179   53.7179   17.1347 C   0  0  0  0  0  0
    0.4555   52.3410   17.2432 C   0  0  0  0  0  0
   -0.5774   51.4500   17.5230 C   0  0  0  0  0  0
    1.3258   54.7151   16.8425 C   0  0  0  0  0  0
    2.7383   54.5571   16.7802 C   0  0  0  0  0  0
    3.2217   55.8022   16.4037 N   0  0  0  0  0  0
    4.4882   56.2721   16.1373 C   0  0  0  0  0  0
    4.6795   57.6272   15.8756 C   0  0  0  0  0  0
    3.5912   58.4944   15.8607 C   0  0  0  0  0  0
    2.2982   58.0200   16.0820 C   0  0  0  0  0  0
    2.1090   56.6536   16.3573 C   0  0  0  0  0  0
    0.9747   55.9722   16.6120 N   0  0  0  0  0  0
    3.7147   53.3995   17.0472 C   0  0  0  0  0  0
    4.1760   53.3287   18.5327 N   0  3  1  0  0  0
    4.6136   54.7112   19.0848 C   0  0  0  0  0  0
    5.1850   54.5478   20.4961 C   0  0  0  0  0  0
    4.1414   53.8879   21.4304 C   0  0  1  0  0  0
    3.7100   52.5096   20.8671 C   0  0  0  0  0  0
    3.1160   52.6708   19.4482 C   0  0  0  0  0  0
    4.8009   53.7033   22.8167 C   0  0  0  0  0  0
    5.9044   53.1672   22.8818 O   0  0  0  0  0  0
    4.1354   54.1511   23.9055 N   0  0  0  0  0  0
    4.6226   54.1926   25.2341 C   0  0  0  0  0  0
    5.9663   54.5037   25.4965 C   0  0  0  0  0  0
    6.4511   54.4969   26.7965 C   0  0  0  0  0  0
    5.5955   54.2033   27.8469 C   0  0  0  0  0  0
    4.2459   53.9179   27.6264 C   0  0  0  0  0  0
    3.7395   53.9108   26.2995 C   0  0  0  0  0  0
    2.2827   53.4902   26.0311 C   0  0  0  0  0  0
    1.3919   53.4607   27.2863 C   0  0  0  0  0  0
    2.1158   52.8049   28.4647 C   0  0  0  0  0  0
    3.3485   53.6427   28.8318 C   0  0  0  0  0  0
   -2.6763   51.2279   17.8870 H   0  0  0  0  0  0
   -3.1596   53.6427   17.6548 H   0  0  0  0  0  0
   -1.3512   55.2143   17.1902 H   0  0  0  0  0  0
    1.4328   51.9223   17.1078 H   0  0  0  0  0  0
   -0.3696   50.3943   17.6044 H   0  0  0  0  0  0
    5.3051   55.5668   16.1611 H   0  0  0  0  0  0
    5.6727   58.0161   15.6919 H   0  0  0  0  0  0
    3.7546   59.5517   15.6805 H   0  0  0  0  0  0
    1.4595   58.7030   16.0806 H   0  0  0  0  0  0
    4.6600   53.5059   16.5159 H   0  0  0  0  0  0
    3.3732   52.3997   16.7895 H   0  0  0  0  0  0
    3.7459   55.3726   19.0701 H   0  0  0  0  0  0
    5.3958   55.0801   18.4229 H   0  0  0  0  0  0
    5.4609   55.5470   20.8396 H   0  0  0  0  0  0
    6.0675   53.9235   20.3617 H   0  0  0  0  0  0
    3.2754   54.5380   21.5731 H   0  0  0  0  0  0
    4.5588   51.8318   20.7535 H   0  0  0  0  0  0
    2.9271   52.0571   21.4765 H   0  0  0  0  0  0
    2.2215   53.2951   19.4203 H   0  0  0  0  0  0
    2.9086   51.6863   19.0242 H   0  0  0  0  0  0
    3.1643   54.3936   23.7895 H   0  0  0  0  0  0
    6.6492   54.7354   24.6922 H   0  0  0  0  0  0
    7.4874   54.7148   26.9994 H   0  0  0  0  0  0
    5.9913   54.2169   28.8525 H   0  0  0  0  0  0
    2.3043   52.4927   25.5925 H   0  0  0  0  0  0
    1.8220   54.1281   25.2775 H   0  0  0  0  0  0
    1.1052   54.4778   27.5598 H   0  0  0  0  0  0
    0.4652   52.9285   27.0709 H   0  0  0  0  0  0
    1.4478   52.7246   29.3241 H   0  0  0  0  0  0
    2.4128   51.7865   28.2017 H   0  0  0  0  0  0
    3.0254   54.6009   29.2425 H   0  0  0  0  0  0
    3.9101   53.1432   29.6212 H   0  0  0  0  0  0
    4.9785   52.7055   18.5352 H   0  0  0  0  0  0
  1  6  2  0  0  0
  1  2  1  0  0  0
  1 36  1  0  0  0
  2  3  2  0  0  0
  2 37  1  0  0  0
  3  4  1  0  0  0
  3 38  1  0  0  0
  4  5  2  0  0  0
  4  7  1  0  0  0
  5  6  1  0  0  0
  5 39  1  0  0  0
  6 40  1  0  0  0
  7 15  1  0  0  0
  7  8  2  0  0  0
  8  9  1  0  0  0
  8 16  1  0  0  0
  9 14  1  0  0  0
  9 10  1  0  0  0
 10 11  2  0  0  0
 10 41  1  0  0  0
 11 12  1  0  0  0
 11 42  1  0  0  0
 12 13  2  0  0  0
 12 43  1  0  0  0
 13 14  1  0  0  0
 13 44  1  0  0  0
 14 15  2  0  0  0
 16 17  1  0  0  0
 16 45  1  0  0  0
 16 46  1  0  0  0
 17 22  1  0  0  0
 17 18  1  0  0  0
 17 68  1  0  0  0
 18 19  1  0  0  0
 18 47  1  0  0  0
 18 48  1  0  0  0
 19 20  1  0  0  0
 19 49  1  0  0  0
 19 50  1  0  0  0
 20 21  1  0  0  0
 20 23  1  0  0  0
 20 51  1  0  0  0
 21 22  1  0  0  0
 21 52  1  0  0  0
 21 53  1  0  0  0
 22 54  1  0  0  0
 22 55  1  0  0  0
 23 24  2  0  0  0
 23 25  1  0  0  0
 25 26  1  0  0  0
 25 56  1  0  0  0
 26 31  2  0  0  0
 26 27  1  0  0  0
 27 28  2  0  0  0
 27 57  1  0  0  0
 28 29  1  0  0  0
 28 58  1  0  0  0
 29 30  2  0  0  0
 29 59  1  0  0  0
 30 35  1  0  0  0
 30 31  1  0  0  0
 31 32  1  0  0  0
 32 33  1  0  0  0
 32 60  1  0  0  0
 32 61  1  0  0  0
 33 34  1  0  0  0
 33 62  1  0  0  0
 33 63  1  0  0  0
 34 35  1  0  0  0
 34 64  1  0  0  0
 34 65  1  0  0  0
 35 66  1  0  0  0
 35 67  1  0  0  0
M  CHG  1  17   1
M  END
> <i_i_glide_confnum>
79

> <i_i_glide_lignum>
6052

> <i_i_glide_posenum>
274

> <i_i_glide_rotatable_bonds>
6

> <i_m_Source_File_Index>
5613

> <b_m_subgroup_collapsed>
0

> <r_i_docking_score>
-5.06152

> <r_i_glide_ecoul>
-2.49579

> <r_i_glide_eff_state_penalty>
0

> <r_i_glide_einternal>
6.43922

> <r_i_glide_emodel>
-53.6474

> <r_i_glide_energy>
-42.4201

> <r_i_glide_erotb>
0.558186

> <r_i_glide_esite>
-0.0517029

> <r_i_glide_evdw>
-39.9243

> <r_i_glide_gscore>
-5.06152

> <r_i_glide_hbond>
-0.0105875

> <r_i_glide_ligand_efficiency>
-0.144615

> <r_i_glide_ligand_efficiency_ln>
-1.11112

> <r_i_glide_ligand_efficiency_sa>
-0.473045

> <r_i_glide_lipo>
-2.58139

> <r_i_glide_metal>
0

> <r_i_glide_rewards>
-0.605445

> <s_i_glide_gridfile>
wee1_glide-grid

> <s_m_Source_File>
wee1_decoys_glide_SP.sdf

> <s_m_Source_Path>
/Users/zhangxujun/Desktop

> <s_m_entry_id>
5888

> <s_m_entry_name>
wee1_decoys_glide_SP.5613

> <s_m_subgroup_title>
wee1_decoys_glide_SP

> <s_m_subgroupid>
wee1_decoys_glide_SP


$$$$
