@<TRIPOS>MOLECULE
ZINC00921953_5765
73   77    1
SMALL
USER_CHARGES


@<TRIPOS>ATOM
      1 C1          0.1546   54.1574   32.0278 C.3       1 UNK         0.0000 
      2 O2          1.1062   53.2935   31.4316 O.3       1 UNK         0.0000 
      3 C3          0.9432   52.9169   30.1148 C.ar      1 UNK         0.0000 
      4 C4         -0.0975   53.3542   29.2935 C.ar      1 UNK         0.0000 
      5 C5         -0.2599   52.8526   28.0029 C.ar      1 UNK         0.0000 
      6 C6          0.6046   51.8747   27.5071 C.ar      1 UNK         0.0000 
      7 C7          1.6579   51.4637   28.3271 C.ar      1 UNK         0.0000 
      8 C8          1.8779   52.0318   29.5875 C.ar      1 UNK         0.0000 
      9 O9          2.9706   51.6966   30.3510 O.3       1 UNK         0.0000 
     10 C10         4.2282   52.0855   29.8145 C.3       1 UNK         0.0000 
     11 C11         0.4917   51.2826   26.0988 C.3       1 UNK         0.0000 
     12 H12         1.1039   50.3849   26.1552 H         1 UNK         0.0000 
     13 C13        -0.9174   50.6793   25.7929 C.2       1 UNK         0.0000 
     14 O14        -1.9390   51.0760   26.3530 O.2       1 UNK         0.0000 
     15 N15        -0.9138   49.6894   24.8860 N.am      1 UNK         0.0000 
     16 C16        -2.0526   48.8825   24.4770 C.3       1 UNK         0.0000 
     17 C17        -1.8848   48.3630   23.0287 C.3       1 UNK         0.0000 
     18 C18        -2.9955   47.3973   22.5779 C.3       1 UNK         0.0000 
     19 C19        -3.1862   46.2464   23.5793 C.3       1 UNK         0.0000 
     20 C20        -3.4982   46.7853   24.9859 C.3       1 UNK         0.0000 
     21 C21        -2.4096   47.7541   25.4848 C.3       1 UNK         0.0000 
     22 N22         1.0906   52.1309   24.9757 N.am      1 UNK         0.0000 
     23 C23         0.9221   51.6658   23.6497 C.ar      1 UNK         0.0000 
     24 C24         1.7875   50.6930   23.1154 C.ar      1 UNK         0.0000 
     25 C25         1.5703   50.1736   21.8376 C.ar      1 UNK         0.0000 
     26 C26         0.4862   50.6227   21.0883 C.ar      1 UNK         0.0000 
     27 C27        -0.3881   51.5938   21.6162 C.ar      1 UNK         0.0000 
     28 C28        -0.1701   52.1109   22.8931 C.ar      1 UNK         0.0000 
     29 O29        -1.4544   52.0971   20.8935 O.3       1 UNK         0.0000 
     30 C30        -1.8302   51.2901   19.7713 C.3       1 UNK         0.0000 
     31 C31        -0.5796   50.7883   18.9980 C.3       1 UNK         0.0000 
     32 O32         0.2645   50.0239   19.8651 O.3       1 UNK         0.0000 
     33 C33         1.8951   53.2427   25.1558 C.2       1 UNK         0.0000 
     34 O34         2.1782   53.6963   26.2636 O.2       1 UNK         0.0000 
     35 C35         2.4927   54.0464   23.9679 C.3       1 UNK         0.0000 
     36 C36         4.0173   54.1390   23.9754 C.2       1 UNK         0.0000 
     37 C37         4.9210   53.7028   23.0019 C.2       1 UNK         0.0000 
     38 C38         6.2636   53.9661   23.2996 C.2       1 UNK         0.0000 
     39 C39         6.4303   54.5903   24.5163 C.2       1 UNK         0.0000 
     40 S40         4.9165   54.8515   25.3019 S.3       1 UNK         0.0000 
     41 H41         0.4557   54.3980   33.0475 H         1 UNK         0.0000 
     42 H42         0.0889   55.0907   31.4658 H         1 UNK         0.0000 
     43 H43        -0.8273   53.6902   32.0815 H         1 UNK         0.0000 
     44 H44        -0.8224   54.0619   29.6544 H         1 UNK         0.0000 
     45 H45        -1.0683   53.2199   27.3897 H         1 UNK         0.0000 
     46 H46         2.3053   50.6915   27.9666 H         1 UNK         0.0000 
     47 H47         5.0096   51.8022   30.5186 H         1 UNK         0.0000 
     48 H48         4.4448   51.5690   28.8821 H         1 UNK         0.0000 
     49 H49         4.2886   53.1637   29.6495 H         1 UNK         0.0000 
     50 H50        -0.0179   49.4045   24.5197 H         1 UNK         0.0000 
     51 H51        -2.9334   49.5289   24.4355 H         1 UNK         0.0000 
     52 H52        -1.8348   49.2034   22.3331 H         1 UNK         0.0000 
     53 H53        -0.9373   47.8290   22.9544 H         1 UNK         0.0000 
     54 H54        -3.9337   47.9458   22.4646 H         1 UNK         0.0000 
     55 H55        -2.7569   47.0004   21.5894 H         1 UNK         0.0000 
     56 H56        -3.9861   45.5861   23.2372 H         1 UNK         0.0000 
     57 H57        -2.2692   45.6542   23.6082 H         1 UNK         0.0000 
     58 H58        -4.4623   47.2988   24.9764 H         1 UNK         0.0000 
     59 H59        -3.6015   45.9639   25.6994 H         1 UNK         0.0000 
     60 H60        -1.5110   47.1668   25.6930 H         1 UNK         0.0000 
     61 H61        -2.7274   48.1884   26.4363 H         1 UNK         0.0000 
     62 H62         2.6178   50.3041   23.6837 H         1 UNK         0.0000 
     63 H63         2.2258   49.4110   21.4392 H         1 UNK         0.0000 
     64 H64        -0.8579   52.8387   23.3021 H         1 UNK         0.0000 
     65 H65        -2.4055   50.4286   20.1230 H         1 UNK         0.0000 
     66 H66        -2.4732   51.8743   19.1114 H         1 UNK         0.0000 
     67 H67        -0.8700   50.1722   18.1461 H         1 UNK         0.0000 
     68 H68        -0.0194   51.6491   18.6204 H         1 UNK         0.0000 
     69 H69         2.1377   53.7174   22.9940 H         1 UNK         0.0000 
     70 H70         2.0872   55.0512   24.0769 H         1 UNK         0.0000 
     71 H71         4.6048   53.2211   22.0868 H         1 UNK         0.0000 
     72 H72         7.0925   53.7054   22.6621 H         1 UNK         0.0000 
     73 H73         7.3575   54.9002   24.9735 H         1 UNK         0.0000 
@<TRIPOS>BOND
     1    1    2 1    
     2    1   41 1    
     3    1   42 1    
     4    1   43 1    
     5    2    3 1    
     6    3    8 ar   
     7    3    4 ar   
     8    4    5 ar   
     9    4   44 1    
    10    5    6 ar   
    11    5   45 1    
    12    6    7 ar   
    13    6   11 1    
    14    7    8 ar   
    15    7   46 1    
    16    8    9 1    
    17    9   10 1    
    18   10   47 1    
    19   10   48 1    
    20   10   49 1    
    21   11   12 1    
    22   11   13 1    
    23   11   22 1    
    24   13   14 2    
    25   13   15 am   BACKBONE|DICT|INTERRES
    26   15   16 1    
    27   15   50 1    
    28   16   21 1    
    29   16   17 1    
    30   16   51 1    
    31   17   18 1    
    32   17   52 1    
    33   17   53 1    
    34   18   19 1    
    35   18   54 1    
    36   18   55 1    
    37   19   20 1    
    38   19   56 1    
    39   19   57 1    
    40   20   21 1    
    41   20   58 1    
    42   20   59 1    
    43   21   60 1    
    44   21   61 1    
    45   22   23 1    
    46   22   33 am   BACKBONE|DICT|INTERRES
    47   23   28 ar   
    48   23   24 ar   
    49   24   25 ar   
    50   24   62 1    
    51   25   26 ar   
    52   25   63 1    
    53   26   32 1    
    54   26   27 ar   
    55   27   28 ar   
    56   27   29 1    
    57   28   64 1    
    58   29   30 1    
    59   30   31 1    
    60   30   65 1    
    61   30   66 1    
    62   31   32 1    
    63   31   67 1    
    64   31   68 1    
    65   33   34 2    
    66   33   35 1    
    67   35   36 1    
    68   35   69 1    
    69   35   70 1    
    70   36   40 1    
    71   36   37 2    
    72   37   38 1    
    73   37   71 1    
    74   38   39 2    
    75   38   72 1    
    76   39   40 1    
    77   39   73 1    
@<TRIPOS>SUBSTRUCTURE
     1 UNK         1 GROUP             0       ****    0 ROOT    
