@<TRIPOS>MOLECULE
ZINC39964317_5059
55   58    1
SMALL
USER_CHARGES


@<TRIPOS>ATOM
      1 C1          5.2856   53.8358   27.7791 C.3       1 UNK         0.0000 
      2 C2          3.9987   53.1375   28.2409 C.3       1 UNK         0.0000 
      3 C3          2.8615   53.2174   27.1976 C.3       1 UNK         0.0000 
      4 C4          1.5923   52.4233   27.5097 C.2       1 UNK         0.0000 
      5 C5          0.6910   51.7787   26.7419 C.2       1 UNK         0.0000 
      6 C6          0.3670   51.5605   25.2497 C.3       1 UNK         0.0000 
      7 H7          0.4992   50.5002   25.0292 H         1 UNK         0.0000 
      8 C8         -1.1360   51.8698   25.1138 C.2       1 UNK         0.0000 
      9 C9         -1.9779   51.8616   26.1747 C.2       1 UNK         0.0000 
     10 O10        -1.6444   51.6216   27.4707 O.3       1 UNK         0.0000 
     11 C11        -0.2941   51.1938   27.7093 C.3       1 UNK         0.0000 
     12 H12        -0.2949   50.1007   27.6855 H         1 UNK         0.0000 
     13 N13         0.1751   51.6595   28.9737 N.2       1 UNK         0.0000 
     14 N14         1.2399   52.3257   28.8154 N.2       1 UNK         0.0000 
     15 N15        -3.3214   52.1181   26.1494 N.pl3     1 UNK         0.0000 
     16 C16        -1.6658   52.2088   23.8347 C.1       1 UNK         0.0000 
     17 N17        -2.1516   52.4966   22.8270 N.1       1 UNK         0.0000 
     18 C18         1.2571   52.3348   24.2655 C.ar      1 UNK         0.0000 
     19 C19         1.4116   53.6963   24.4802 C.ar      1 UNK         0.0000 
     20 C20         2.3259   54.4548   23.7746 C.ar      1 UNK         0.0000 
     21 C21         3.0667   53.8610   22.7614 C.ar      1 UNK         0.0000 
     22 C22         2.8986   52.4967   22.4706 C.ar      1 UNK         0.0000 
     23 C23         1.9635   51.7373   23.2077 C.ar      1 UNK         0.0000 
     24 O24         1.8333   50.3882   22.9494 O.3       1 UNK         0.0000 
     25 C25         0.7548   50.0061   22.0885 C.3       1 UNK         0.0000 
     26 C26         0.9234   50.5613   20.6764 C.ar      1 UNK         0.0000 
     27 C27         2.0042   50.1467   19.8947 C.ar      1 UNK         0.0000 
     28 C28         2.2326   50.7434   18.6589 C.ar      1 UNK         0.0000 
     29 C29         1.3584   51.7171   18.1845 C.ar      1 UNK         0.0000 
     30 C30         0.2519   52.0991   18.9374 C.ar      1 UNK         0.0000 
     31 C31         0.0359   51.5232   20.1858 C.ar      1 UNK         0.0000 
     32 Br32        1.6849   52.5435   16.5021 Br        1 UNK         0.0000 
     33 O33         3.6689   51.8253   21.5394 O.3       1 UNK         0.0000 
     34 C34         4.6060   52.5403   20.7425 C.3       1 UNK         0.0000 
     35 H35         6.0604   53.7737   28.5444 H         1 UNK         0.0000 
     36 H36         5.6804   53.3746   26.8733 H         1 UNK         0.0000 
     37 H37         5.1126   54.8921   27.5710 H         1 UNK         0.0000 
     38 H38         4.2239   52.0964   28.4686 H         1 UNK         0.0000 
     39 H39         3.6700   53.5842   29.1801 H         1 UNK         0.0000 
     40 H40         2.5724   54.2626   27.0810 H         1 UNK         0.0000 
     41 H41         3.2469   52.8967   26.2310 H         1 UNK         0.0000 
     42 H42        -3.7774   52.3449   25.2782 H         1 UNK         0.0000 
     43 H43        -3.9046   51.7672   26.8948 H         1 UNK         0.0000 
     44 H44         0.8648   54.1337   25.2816 H         1 UNK         0.0000 
     45 H45         2.4793   55.4798   24.0769 H         1 UNK         0.0000 
     46 H46         3.7861   54.4668   22.2331 H         1 UNK         0.0000 
     47 H47         0.7278   48.9173   22.0351 H         1 UNK         0.0000 
     48 H48        -0.2020   50.3056   22.5170 H         1 UNK         0.0000 
     49 H49         2.7048   49.4147   20.2703 H         1 UNK         0.0000 
     50 H50         3.1040   50.4721   18.0829 H         1 UNK         0.0000 
     51 H51        -0.4195   52.8567   18.5633 H         1 UNK         0.0000 
     52 H52        -0.8052   51.8459   20.7757 H         1 UNK         0.0000 
     53 H53         5.1111   51.8389   20.0792 H         1 UNK         0.0000 
     54 H54         4.1116   53.2890   20.1215 H         1 UNK         0.0000 
     55 H55         5.3714   53.0216   21.3529 H         1 UNK         0.0000 
@<TRIPOS>BOND
     1    1    2 1    
     2    1   35 1    
     3    1   36 1    
     4    1   37 1    
     5    2    3 1    
     6    2   38 1    
     7    2   39 1    
     8    3    4 1    
     9    3   40 1    
    10    3   41 1    
    11    4   14 1    
    12    4    5 2    
    13    5   11 1    
    14    5    6 1    
    15    6    7 1    
    16    6    8 1    
    17    6   18 1    
    18    8    9 2    
    19    8   16 1    
    20    9   10 1    
    21    9   15 1    
    22   10   11 1    
    23   11   12 1    
    24   11   13 1    
    25   13   14 2    
    26   15   42 1    
    27   15   43 1    
    28   16   17 3    
    29   18   23 ar   
    30   18   19 ar   
    31   19   20 ar   
    32   19   44 1    
    33   20   21 ar   
    34   20   45 1    
    35   21   22 ar   
    36   21   46 1    
    37   22   23 ar   
    38   22   33 1    
    39   23   24 1    
    40   24   25 1    
    41   25   26 1    
    42   25   47 1    
    43   25   48 1    
    44   26   31 ar   
    45   26   27 ar   
    46   27   28 ar   
    47   27   49 1    
    48   28   29 ar   
    49   28   50 1    
    50   29   30 ar   
    51   29   32 1    
    52   30   31 ar   
    53   30   51 1    
    54   31   52 1    
    55   33   34 1    
    56   34   53 1    
    57   34   54 1    
    58   34   55 1    
@<TRIPOS>SUBSTRUCTURE
     1 UNK         1 GROUP             0       ****    0 ROOT    
