ZINC43218760_2732
                    3D
 Schrodinger Suite 2024-2.
 61 65  0  0  1  0            999 V2000
   -2.5960   52.7368   24.0005 C   0  0  0  0  0  0
   -1.3649   52.7373   23.2834 O   0  0  0  0  0  0
   -0.9503   51.5686   22.6706 C   0  0  0  0  0  0
   -1.7626   50.4216   22.5882 C   0  0  0  0  0  0
   -1.3047   49.2603   21.9735 C   0  0  0  0  0  0
   -0.0262   49.2257   21.4318 C   0  0  0  0  0  0
    0.7910   50.3481   21.5089 C   0  0  0  0  0  0
    0.3420   51.5335   22.1127 C   0  0  0  0  0  0
    1.2590   52.7654   22.1899 C   0  0  1  0  0  0
    0.7044   53.6960   22.1591 H   0  0  0  0  0  0
    2.2820   52.8222   23.3109 C   0  0  1  0  0  0
    2.6987   51.8152   23.3966 H   0  0  0  0  0  0
    3.1998   53.8732   22.8175 C   0  0  1  0  0  0
    2.7307   54.8457   22.6260 H   0  0  0  0  0  0
    4.0450   54.0970   24.0670 C   0  0  0  0  0  0
    5.1943   54.5329   24.0977 O   0  0  0  0  0  0
    3.1992   53.8521   25.1214 N   0  0  0  0  0  0
    2.0259   53.2529   24.7350 C   0  0  0  0  0  0
    1.0275   52.9656   25.3902 O   0  0  0  0  0  0
    3.5697   54.2329   26.5180 C   0  0  0  0  0  0
    2.4524   54.2543   27.6076 C   0  0  0  0  0  0
    2.9129   54.7798   28.9811 C   0  0  0  0  0  0
    4.1759   54.0656   29.4830 C   0  0  0  0  0  0
    5.3050   54.1601   28.4495 C   0  0  0  0  0  0
    4.8807   53.6007   27.0771 C   0  0  0  0  0  0
    3.6248   53.3175   21.4231 C   0  0  1  0  0  0
    2.1922   52.8964   20.9474 N   0  3  0  0  0  0
    4.3138   54.2865   20.4205 C   0  0  0  0  0  0
    5.4582   54.9988   20.8172 C   0  0  0  0  0  0
    6.1382   55.8207   19.9235 C   0  0  0  0  0  0
    5.6851   55.9368   18.6136 C   0  0  0  0  0  0
    4.5744   55.2166   18.1863 C   0  0  0  0  0  0
    3.9045   54.3840   19.0789 C   0  0  0  0  0  0
    4.4773   52.0281   21.3930 C   0  0  0  0  0  0
    5.5045   52.0959   22.0815 O   0  0  0  0  0  0
    4.0955   51.0030   20.7862 O   0  5  0  0  0  0
   -2.7437   53.6967   24.4845 H   0  0  0  0  0  0
   -3.4461   52.5769   23.3372 H   0  0  0  0  0  0
   -2.6004   51.9764   24.7838 H   0  0  0  0  0  0
   -2.7588   50.4042   23.0009 H   0  0  0  0  0  0
   -1.9397   48.3880   21.9212 H   0  0  0  0  0  0
    0.3366   48.3264   20.9562 H   0  0  0  0  0  0
    1.7778   50.2683   21.0890 H   0  0  0  0  0  0
    3.8131   55.2903   26.4055 H   0  0  0  0  0  0
    1.6006   54.8496   27.2826 H   0  0  0  0  0  0
    2.0824   53.2387   27.7530 H   0  0  0  0  0  0
    3.1017   55.8498   28.9128 H   0  0  0  0  0  0
    2.1080   54.6643   29.7064 H   0  0  0  0  0  0
    4.5046   54.4959   30.4290 H   0  0  0  0  0  0
    3.9506   53.0175   29.6854 H   0  0  0  0  0  0
    5.6116   55.2036   28.3402 H   0  0  0  0  0  0
    6.1847   53.6262   28.8120 H   0  0  0  0  0  0
    4.7451   52.5229   27.1677 H   0  0  0  0  0  0
    5.7158   53.7408   26.3931 H   0  0  0  0  0  0
    2.2751   52.0288   20.4310 H   0  0  0  0  0  0
    5.8473   54.9017   21.8163 H   0  0  0  0  0  0
    7.0190   56.3566   20.2425 H   0  0  0  0  0  0
    6.2097   56.5753   17.9177 H   0  0  0  0  0  0
    4.2416   55.2920   17.1610 H   0  0  0  0  0  0
    3.0674   53.8150   18.7062 H   0  0  0  0  0  0
    1.8214   53.6097   20.3281 H   0  0  0  0  0  0
  1  2  1  0  0  0
  1 37  1  0  0  0
  1 38  1  0  0  0
  1 39  1  0  0  0
  2  3  1  0  0  0
  3  8  2  0  0  0
  3  4  1  0  0  0
  4  5  2  0  0  0
  4 40  1  0  0  0
  5  6  1  0  0  0
  5 41  1  0  0  0
  6  7  2  0  0  0
  6 42  1  0  0  0
  7  8  1  0  0  0
  7 43  1  0  0  0
  8  9  1  0  0  0
  9 10  1  0  0  0
  9 27  1  0  0  0
  9 11  1  0  0  0
 11 12  1  0  0  0
 11 18  1  0  0  0
 11 13  1  0  0  0
 13 14  1  0  0  0
 13 15  1  0  0  0
 13 26  1  0  0  0
 15 16  2  0  0  0
 15 17  1  0  0  0
 17 18  1  0  0  0
 17 20  1  0  0  0
 18 19  2  0  0  0
 20 25  1  0  0  0
 20 21  1  0  0  0
 20 44  1  0  0  0
 21 22  1  0  0  0
 21 45  1  0  0  0
 21 46  1  0  0  0
 22 23  1  0  0  0
 22 47  1  0  0  0
 22 48  1  0  0  0
 23 24  1  0  0  0
 23 49  1  0  0  0
 23 50  1  0  0  0
 24 25  1  0  0  0
 24 51  1  0  0  0
 24 52  1  0  0  0
 25 53  1  0  0  0
 25 54  1  0  0  0
 26 27  1  0  0  0
 26 28  1  0  0  0
 26 34  1  0  0  0
 27 55  1  0  0  0
 27 61  1  0  0  0
 28 33  2  0  0  0
 28 29  1  0  0  0
 29 30  2  0  0  0
 29 56  1  0  0  0
 30 31  1  0  0  0
 30 57  1  0  0  0
 31 32  2  0  0  0
 31 58  1  0  0  0
 32 33  1  0  0  0
 32 59  1  0  0  0
 33 60  1  0  0  0
 34 35  2  0  0  0
 34 36  1  0  0  0
M  CHG  2  27   1  36  -1
M  END
> <i_i_glide_confnum>
6

> <i_i_glide_lignum>
2733

> <i_i_glide_posenum>
105

> <i_i_glide_rotatable_bonds>
5

> <i_m_Source_File_Index>
3381

> <b_m_subgroup_collapsed>
0

> <r_i_docking_score>
-5.64872

> <r_i_glide_ecoul>
-3.83865

> <r_i_glide_eff_state_penalty>
0

> <r_i_glide_einternal>
14.5086

> <r_i_glide_emodel>
-41.3916

> <r_i_glide_energy>
-36.8668

> <r_i_glide_erotb>
0.298765

> <r_i_glide_esite>
-0.0390486

> <r_i_glide_evdw>
-33.0282

> <r_i_glide_gscore>
-5.64872

> <r_i_glide_hbond>
-0.028414

> <r_i_glide_ligand_efficiency>
-0.171173

> <r_i_glide_ligand_efficiency_ln>
-1.25625

> <r_i_glide_ligand_efficiency_sa>
-0.549044

> <r_i_glide_lipo>
-2.24224

> <r_i_glide_metal>
0

> <r_i_glide_rewards>
-1.41057

> <s_i_glide_gridfile>
wee1_glide-grid

> <s_m_Source_File>
wee1_decoys_glide_SP.sdf

> <s_m_Source_Path>
/Users/zhangxujun/Desktop

> <s_m_entry_id>
3656

> <s_m_entry_name>
wee1_decoys_glide_SP.3381

> <s_m_subgroup_title>
wee1_decoys_glide_SP

> <s_m_subgroupid>
wee1_decoys_glide_SP


$$$$
