ZINC39326705_4244
                    3D
 Schrodinger Suite 2024-2.
 66 69  0  0  1  0            999 V2000
   -4.0526   53.5283   26.4300 C   0  0  0  0  0  0
   -4.0124   52.8509   25.0631 C   0  0  0  0  0  0
   -5.0891   52.7151   24.4827 O   0  0  0  0  0  0
   -2.8180   52.5214   24.4993 N   0  0  0  0  0  0
   -1.5652   52.5029   25.2848 C   0  0  0  0  0  0
   -1.2517   51.0496   25.6666 C   0  0  0  0  0  0
   -0.6193   50.7468   26.8262 C   0  0  0  0  0  0
   -0.0723   51.7316   27.7826 C   0  0  0  0  0  0
   -0.5102   51.7016   29.1106 C   0  0  0  0  0  0
   -0.0971   52.6857   30.0098 C   0  0  0  0  0  0
    0.7403   53.7220   29.5974 C   0  0  0  0  0  0
    1.2469   53.6978   28.2890 C   0  0  0  0  0  0
    0.8671   52.6978   27.3795 C   0  0  0  0  0  0
    1.3634   52.6192   26.0872 O   0  0  0  0  0  0
    2.5093   53.3826   25.7273 C   0  0  0  0  0  0
    1.0155   54.7131   30.5155 O   0  0  0  0  0  0
    1.6637   55.9066   30.0833 C   0  0  0  0  0  0
   -1.6495   50.0130   24.7181 C   0  0  0  0  0  0
   -2.2791   50.3067   23.5498 C   0  0  0  0  0  0
   -2.8287   51.7113   23.2600 C   0  0  0  0  0  0
   -2.4567   49.2266   22.4629 C   0  0  2  0  0  0
   -3.5098   49.2346   22.1743 H   0  0  0  0  0  0
   -2.1829   47.8382   23.0468 C   0  0  0  0  0  0
   -1.5978   47.7117   24.2525 C   0  0  0  0  0  0
   -1.2433   48.7523   25.0334 O   0  0  0  0  0  0
   -1.2965   46.5555   24.9054 N   0  0  0  0  0  0
   -2.5209   46.6708   22.3026 C   0  0  0  0  0  0
   -2.7688   45.6751   21.7675 N   0  0  0  0  0  0
   -1.6207   49.5340   21.2138 C   0  0  0  0  0  0
   -2.2717   49.7342   19.9913 C   0  0  0  0  0  0
   -1.5453   50.0457   18.8459 C   0  0  0  0  0  0
   -0.1576   50.1545   18.8893 C   0  0  0  0  0  0
    0.4954   49.9518   20.1162 C   0  0  0  0  0  0
   -0.2194   49.6519   21.2839 C   0  0  0  0  0  0
    0.3954   49.4674   22.5111 O   0  0  0  0  0  0
    1.7895   49.7208   22.6647 C   0  0  0  0  0  0
    0.4825   50.4551   17.7043 O   0  0  0  0  0  0
    1.9079   50.4619   17.6832 C   0  0  0  0  0  0
   -5.0664   53.8539   26.6643 H   0  0  0  0  0  0
   -3.7508   52.8167   27.1987 H   0  0  0  0  0  0
   -3.4072   54.4014   26.4815 H   0  0  0  0  0  0
   -0.7606   52.9470   24.6954 H   0  0  0  0  0  0
   -1.6438   53.0991   26.1941 H   0  0  0  0  0  0
   -0.4514   49.7111   27.0855 H   0  0  0  0  0  0
   -1.2028   50.9394   29.4405 H   0  0  0  0  0  0
   -0.4756   52.6691   31.0217 H   0  0  0  0  0  0
    1.9267   54.4685   27.9744 H   0  0  0  0  0  0
    3.3427   53.1988   26.4056 H   0  0  0  0  0  0
    2.8333   53.0926   24.7288 H   0  0  0  0  0  0
    2.2983   54.4524   25.7035 H   0  0  0  0  0  0
    1.1044   56.4085   29.2922 H   0  0  0  0  0  0
    1.7323   56.6019   30.9217 H   0  0  0  0  0  0
    2.6786   55.7152   29.7346 H   0  0  0  0  0  0
   -3.8282   51.5939   22.8448 H   0  0  0  0  0  0
   -2.2613   52.1947   22.4647 H   0  0  0  0  0  0
   -1.4119   45.6780   24.4261 H   0  0  0  0  0  0
   -0.7023   46.5758   25.7298 H   0  0  0  0  0  0
   -3.3466   49.6544   19.9211 H   0  0  0  0  0  0
   -2.0632   50.2005   17.9105 H   0  0  0  0  0  0
    1.5693   50.0370   20.1611 H   0  0  0  0  0  0
    2.0415   49.6906   23.7245 H   0  0  0  0  0  0
    2.3876   48.9673   22.1525 H   0  0  0  0  0  0
    2.0637   50.7108   22.3019 H   0  0  0  0  0  0
    2.3128   51.2581   18.3095 H   0  0  0  0  0  0
    2.3049   49.5054   18.0273 H   0  0  0  0  0  0
    2.2743   50.6192   16.6695 H   0  0  0  0  0  0
  1  2  1  0  0  0
  1 39  1  0  0  0
  1 40  1  0  0  0
  1 41  1  0  0  0
  2  3  2  0  0  0
  2  4  1  0  0  0
  4 20  1  0  0  0
  4  5  1  0  0  0
  5  6  1  0  0  0
  5 42  1  0  0  0
  5 43  1  0  0  0
  6  7  2  0  0  0
  6 18  1  0  0  0
  7  8  1  0  0  0
  7 44  1  0  0  0
  8 13  2  0  0  0
  8  9  1  0  0  0
  9 10  2  0  0  0
  9 45  1  0  0  0
 10 11  1  0  0  0
 10 46  1  0  0  0
 11 12  2  0  0  0
 11 16  1  0  0  0
 12 13  1  0  0  0
 12 47  1  0  0  0
 13 14  1  0  0  0
 14 15  1  0  0  0
 15 48  1  0  0  0
 15 49  1  0  0  0
 15 50  1  0  0  0
 16 17  1  0  0  0
 17 51  1  0  0  0
 17 52  1  0  0  0
 17 53  1  0  0  0
 18 25  1  0  0  0
 18 19  2  0  0  0
 19 20  1  0  0  0
 19 21  1  0  0  0
 20 54  1  0  0  0
 20 55  1  0  0  0
 21 22  1  0  0  0
 21 23  1  0  0  0
 21 29  1  0  0  0
 23 24  2  0  0  0
 23 27  1  0  0  0
 24 25  1  0  0  0
 24 26  1  0  0  0
 26 56  1  0  0  0
 26 57  1  0  0  0
 27 28  3  0  0  0
 29 34  2  0  0  0
 29 30  1  0  0  0
 30 31  2  0  0  0
 30 58  1  0  0  0
 31 32  1  0  0  0
 31 59  1  0  0  0
 32 33  2  0  0  0
 32 37  1  0  0  0
 33 34  1  0  0  0
 33 60  1  0  0  0
 34 35  1  0  0  0
 35 36  1  0  0  0
 36 61  1  0  0  0
 36 62  1  0  0  0
 36 63  1  0  0  0
 37 38  1  0  0  0
 38 64  1  0  0  0
 38 65  1  0  0  0
 38 66  1  0  0  0
M  END
> <i_i_glide_confnum>
4

> <i_i_glide_lignum>
4245

> <i_i_glide_posenum>
232

> <i_i_glide_rotatable_bonds>
8

> <i_m_Source_File_Index>
2693

> <b_m_subgroup_collapsed>
0

> <r_i_docking_score>
-4.18086

> <r_i_glide_ecoul>
-4.3586

> <r_i_glide_eff_state_penalty>
0

> <r_i_glide_einternal>
4.55159

> <r_i_glide_emodel>
-49.7889

> <r_i_glide_energy>
-40.574

> <r_i_glide_erotb>
0.16123

> <r_i_glide_esite>
-0.107015

> <r_i_glide_evdw>
-36.2154

> <r_i_glide_gscore>
-4.18086

> <r_i_glide_hbond>
-0.337864

> <r_i_glide_ligand_efficiency>
-0.112996

> <r_i_glide_ligand_efficiency_ln>
-0.906731

> <r_i_glide_ligand_efficiency_sa>
-0.376529

> <r_i_glide_lipo>
-1.20647

> <r_i_glide_metal>
0

> <r_i_glide_rewards>
-0.226186

> <s_i_glide_gridfile>
wee1_glide-grid

> <s_m_Source_File>
wee1_decoys_glide_SP.sdf

> <s_m_Source_Path>
/Users/zhangxujun/Desktop

> <s_m_entry_id>
2968

> <s_m_entry_name>
wee1_decoys_glide_SP.2693

> <s_m_subgroup_title>
wee1_decoys_glide_SP

> <s_m_subgroupid>
wee1_decoys_glide_SP


$$$$
