ZINC39685761_396
                    3D
 Schrodinger Suite 2024-2.
 74 76  0  0  1  0            999 V2000
   -1.8645   52.5136   23.3788 C   0  0  0  0  0  0
   -1.1611   51.2440   22.8550 C   0  0  0  0  0  0
   -2.1521   50.0673   22.7733 C   0  0  0  0  0  0
   -0.3241   51.4364   21.5468 C   0  0  1  0  0  0
    0.2241   50.5066   21.3735 H   0  0  0  0  0  0
   -1.1653   51.6932   20.2803 C   0  0  0  0  0  0
   -2.3255   52.0937   20.3514 O   0  0  0  0  0  0
   -0.4938   51.5418   19.1250 N   0  0  0  0  0  0
   -0.9498   51.8716   17.7687 C   0  0  0  0  0  0
    0.2171   51.5854   16.8017 C   0  0  0  0  0  0
   -1.3189   53.3716   17.6604 C   0  0  0  0  0  0
   -2.1549   50.9946   17.3565 C   0  0  0  0  0  0
    0.6546   52.5180   21.6503 N   0  0  0  0  0  0
    1.7953   52.4796   22.3479 C   0  0  0  0  0  0
    2.1158   51.4879   23.0036 O   0  0  0  0  0  0
    2.7273   53.7160   22.2260 C   0  0  1  0  0  0
    2.1039   54.5954   22.0810 H   0  0  0  0  0  0
    3.2789   53.9622   23.6404 C   0  0  0  0  0  0
    4.6531   54.4176   23.4524 N   0  0  0  0  0  0
    5.0190   54.4943   22.0331 C   0  0  0  0  0  0
    3.9872   53.6333   21.2848 C   0  0  0  0  0  0
    3.9032   54.1959   19.8284 C   0  0  0  0  0  0
    2.9674   53.3648   18.9317 C   0  0  0  0  0  0
    3.5035   51.9253   18.8775 N   0  3  0  0  0  0
    3.7597   51.2606   20.2434 C   0  0  0  0  0  0
    4.6008   52.2105   21.1187 C   0  0  0  0  0  0
    5.5683   54.6859   24.4242 C   0  0  0  0  0  0
    6.7014   55.0736   24.1260 O   0  0  0  0  0  0
    5.2619   54.4708   25.8991 C   0  0  0  0  0  0
    3.9835   54.5815   26.4798 C   0  0  0  0  0  0
    3.7678   54.3388   27.8396 C   0  0  0  0  0  0
    4.8583   54.0170   28.6453 C   0  0  0  0  0  0
    6.1382   53.9558   28.1027 C   0  0  0  0  0  0
    6.3317   54.1726   26.7502 C   0  0  0  0  0  0
    7.2041   53.6968   28.8815 F   0  0  0  0  0  0
    2.3570   54.4253   28.4223 C   0  0  0  0  0  0
    2.2864   53.9091   29.6525 F   0  0  0  0  0  0
    1.9755   55.7011   28.4849 F   0  0  0  0  0  0
    1.5039   53.7584   27.6431 F   0  0  0  0  0  0
   -2.6164   52.8966   22.6910 H   0  0  0  0  0  0
   -2.3696   52.3101   24.3239 H   0  0  0  0  0  0
   -1.1451   53.3090   23.5724 H   0  0  0  0  0  0
   -0.4472   50.9610   23.6303 H   0  0  0  0  0  0
   -2.9616   50.2522   22.0677 H   0  0  0  0  0  0
   -1.6469   49.1506   22.4651 H   0  0  0  0  0  0
   -2.6066   49.8760   23.7465 H   0  0  0  0  0  0
    0.4458   51.1820   19.1834 H   0  0  0  0  0  0
   -0.0648   51.7734   15.7656 H   0  0  0  0  0  0
    0.5475   50.5474   16.8585 H   0  0  0  0  0  0
    1.0793   52.2171   17.0124 H   0  0  0  0  0  0
   -2.2295   53.6078   18.2115 H   0  0  0  0  0  0
   -0.5261   54.0049   18.0648 H   0  0  0  0  0  0
   -1.4903   53.6708   16.6257 H   0  0  0  0  0  0
   -3.0238   51.1643   17.9940 H   0  0  0  0  0  0
   -2.4663   51.2005   16.3306 H   0  0  0  0  0  0
   -1.9114   49.9312   17.4157 H   0  0  0  0  0  0
    0.4542   53.3415   21.0985 H   0  0  0  0  0  0
    2.6601   54.7428   24.0791 H   0  0  0  0  0  0
    3.3335   53.0595   24.2542 H   0  0  0  0  0  0
    6.0468   54.2249   21.7821 H   0  0  0  0  0  0
    4.8834   55.5192   21.6819 H   0  0  0  0  0  0
    3.5898   55.2513   19.7973 H   0  0  0  0  0  0
    4.8974   54.2156   19.3763 H   0  0  0  0  0  0
    1.9463   53.2932   19.3024 H   0  0  0  0  0  0
    2.9465   53.7278   17.9026 H   0  0  0  0  0  0
    2.9028   51.3308   18.3209 H   0  0  0  0  0  0
    2.7887   50.9557   20.6142 H   0  0  0  0  0  0
    4.3042   50.3425   20.0750 H   0  0  0  0  0  0
    5.5846   52.2813   20.6578 H   0  0  0  0  0  0
    4.7904   51.7468   22.0815 H   0  0  0  0  0  0
    3.1212   54.8908   25.9274 H   0  0  0  0  0  0
    4.7047   53.8281   29.6909 H   0  0  0  0  0  0
    7.3369   54.0970   26.3718 H   0  0  0  0  0  0
    4.3973   51.8763   18.3917 H   0  0  0  0  0  0
  1  2  1  0  0  0
  1 40  1  0  0  0
  1 41  1  0  0  0
  1 42  1  0  0  0
  2  3  1  0  0  0
  2  4  1  0  0  0
  2 43  1  0  0  0
  3 44  1  0  0  0
  3 45  1  0  0  0
  3 46  1  0  0  0
  4  5  1  0  0  0
  4  6  1  0  0  0
  4 13  1  0  0  0
  6  7  2  0  0  0
  6  8  1  0  0  0
  8  9  1  0  0  0
  8 47  1  0  0  0
  9 10  1  0  0  0
  9 11  1  0  0  0
  9 12  1  0  0  0
 10 48  1  0  0  0
 10 49  1  0  0  0
 10 50  1  0  0  0
 11 51  1  0  0  0
 11 52  1  0  0  0
 11 53  1  0  0  0
 12 54  1  0  0  0
 12 55  1  0  0  0
 12 56  1  0  0  0
 13 14  1  0  0  0
 13 57  1  0  0  0
 14 15  2  0  0  0
 14 16  1  0  0  0
 16 17  1  0  0  0
 16 21  1  0  0  0
 16 18  1  0  0  0
 18 19  1  0  0  0
 18 58  1  0  0  0
 18 59  1  0  0  0
 19 20  1  0  0  0
 19 27  1  0  0  0
 20 21  1  0  0  0
 20 60  1  0  0  0
 20 61  1  0  0  0
 21 26  1  0  0  0
 21 22  1  0  0  0
 22 23  1  0  0  0
 22 62  1  0  0  0
 22 63  1  0  0  0
 23 24  1  0  0  0
 23 64  1  0  0  0
 23 65  1  0  0  0
 24 25  1  0  0  0
 24 66  1  0  0  0
 24 74  1  0  0  0
 25 26  1  0  0  0
 25 67  1  0  0  0
 25 68  1  0  0  0
 26 69  1  0  0  0
 26 70  1  0  0  0
 27 28  2  0  0  0
 27 29  1  0  0  0
 29 34  2  0  0  0
 29 30  1  0  0  0
 30 31  2  0  0  0
 30 71  1  0  0  0
 31 32  1  0  0  0
 31 36  1  0  0  0
 32 33  2  0  0  0
 32 72  1  0  0  0
 33 34  1  0  0  0
 33 35  1  0  0  0
 34 73  1  0  0  0
 36 37  1  0  0  0
 36 38  1  0  0  0
 36 39  1  0  0  0
M  CHG  1  24   1
M  END
> <i_i_glide_confnum>
40

> <i_i_glide_lignum>
397

> <i_i_glide_posenum>
50

> <i_i_glide_rotatable_bonds>
10

> <i_m_Source_File_Index>
969

> <b_m_subgroup_collapsed>
0

> <r_i_docking_score>
-6.78904

> <r_i_glide_ecoul>
-6.15429

> <r_i_glide_eff_state_penalty>
0

> <r_i_glide_einternal>
3.86724

> <r_i_glide_emodel>
-53.9351

> <r_i_glide_energy>
-42.7097

> <r_i_glide_erotb>
0.514358

> <r_i_glide_esite>
-0.167589

> <r_i_glide_evdw>
-36.5554

> <r_i_glide_gscore>
-6.78904

> <r_i_glide_hbond>
-0.516358

> <r_i_glide_ligand_efficiency>
-0.183488

> <r_i_glide_ligand_efficiency_ln>
-1.47238

> <r_i_glide_ligand_efficiency_sa>
-0.611422

> <r_i_glide_lipo>
-2.49372

> <r_i_glide_metal>
0

> <r_i_glide_rewards>
-1.37483

> <s_i_glide_gridfile>
wee1_glide-grid

> <s_m_Source_File>
wee1_decoys_glide_SP.sdf

> <s_m_Source_Path>
/Users/zhangxujun/Desktop

> <s_m_entry_id>
1244

> <s_m_entry_name>
wee1_decoys_glide_SP.969

> <s_m_subgroup_title>
wee1_decoys_glide_SP

> <s_m_subgroupid>
wee1_decoys_glide_SP


$$$$
