@<TRIPOS>MOLECULE
ZINC02625100_718
51   53    1
SMALL
USER_CHARGES


@<TRIPOS>ATOM
      1 C1          4.4912   51.3178   20.7591 C.3       1 UNK         0.0000 
      2 C2          3.6324   52.3516   20.0045 C.3       1 UNK         0.0000 
      3 H3          2.7688   52.6354   20.6061 H         1 UNK         0.0000 
      4 C4          4.4832   53.5678   19.5912 C.ar      1 UNK         0.0000 
      5 N5          4.7575   53.8983   18.3505 N.2       1 UNK         0.0000 
      6 N6          5.5426   55.0369   18.3750 N.2       1 UNK         0.0000 
      7 C7          5.7568   55.3415   19.6290 C.ar      1 UNK         0.0000 
      8 N8          5.1102   54.4435   20.4694 N.pl3     1 UNK         0.0000 
      9 C9          5.1008   54.4217   21.8885 C.ar      1 UNK         0.0000 
     10 C10         6.3040   54.5313   22.5981 C.ar      1 UNK         0.0000 
     11 C11         6.2979   54.4965   23.9895 C.ar      1 UNK         0.0000 
     12 C12         5.0952   54.3492   24.6746 C.ar      1 UNK         0.0000 
     13 C13         3.8944   54.2340   23.9788 C.ar      1 UNK         0.0000 
     14 C14         3.8936   54.2798   22.5865 C.ar      1 UNK         0.0000 
     15 F15         5.0928   54.3236   26.0262 F         1 UNK         0.0000 
     16 S16         6.7044   56.7445   20.1428 S.3       1 UNK         0.0000 
     17 C17         6.3458   57.9434   18.8035 C.3       1 UNK         0.0000 
     18 C18         7.4565   58.1035   17.7603 C.2       1 UNK         0.0000 
     19 O19         8.2541   57.1879   17.5516 O.2       1 UNK         0.0000 
     20 N20         7.5045   59.2964   17.1313 N.am      1 UNK         0.0000 
     21 C21         8.4694   59.6651   16.1831 C.ar      1 UNK         0.0000 
     22 C22         8.6123   58.9785   14.9655 C.ar      1 UNK         0.0000 
     23 C23         9.5773   59.3915   14.0443 C.ar      1 UNK         0.0000 
     24 C24        10.3924   60.4892   14.3273 C.ar      1 UNK         0.0000 
     25 C25        10.2422   61.1810   15.5307 C.ar      1 UNK         0.0000 
     26 C26         9.2802   60.7743   16.4568 C.ar      1 UNK         0.0000 
     27 F27         9.1529   61.4491   17.6265 F         1 UNK         0.0000 
     28 F28        11.0326   62.2459   15.8026 F         1 UNK         0.0000 
     29 F29        11.3275   60.8857   13.4329 F         1 UNK         0.0000 
     30 F30         9.7195   58.7301   12.8717 F         1 UNK         0.0000 
     31 F31         7.8122   57.9277   14.6629 F         1 UNK         0.0000 
     32 C32         2.3976   50.2719   18.9438 C.3       1 UNK         0.0000 
     33 C33         1.8610   52.5967   18.1321 C.3       1 UNK         0.0000 
     34 H34         5.0176   51.7525   21.6074 H         1 UNK         0.0000 
     35 H35         3.8974   50.4969   21.1583 H         1 UNK         0.0000 
     36 H36         5.2423   50.9145   20.0830 H         1 UNK         0.0000 
     37 H37         7.2463   54.6556   22.0838 H         1 UNK         0.0000 
     38 H38         7.2223   54.5834   24.5385 H         1 UNK         0.0000 
     39 H39         2.9666   54.1297   24.5216 H         1 UNK         0.0000 
     40 H40         2.9477   54.2318   22.0697 H         1 UNK         0.0000 
     41 H41         6.2082   58.9139   19.2817 H         1 UNK         0.0000 
     42 H42         5.4088   57.7026   18.3020 H         1 UNK         0.0000 
     43 H43         6.8515   60.0335   17.4048 H         1 UNK         0.0000 
     44 H44         1.6596   50.2979   19.7464 H         1 UNK         0.0000 
     45 H45         1.9559   49.9617   17.9952 H         1 UNK         0.0000 
     46 H46         3.2280   49.6046   19.1733 H         1 UNK         0.0000 
     47 H47         1.0293   52.6398   18.8371 H         1 UNK         0.0000 
     48 H48         2.2563   53.5957   17.9529 H         1 UNK         0.0000 
     49 H49         1.5596   52.1398   17.1880 H         1 UNK         0.0000 
     50 N50         2.9622   51.7004   18.7536 N.4       1 UNK         0.0000 
     51 H51         3.7203   51.5859   18.0822 H         1 UNK         0.0000 
@<TRIPOS>BOND
     1    1    2 1    
     2    1   34 1    
     3    1   35 1    
     4    1   36 1    
     5    2    3 1    
     6    2    4 1    
     7    2   50 1    
     8    4    8 ar   
     9    4    5 ar   
    10    5    6 ar   
    11    6    7 ar   
    12    7    8 ar   
    13    7   16 1    
    14    8    9 1    
    15    9   14 ar   
    16    9   10 ar   
    17   10   11 ar   
    18   10   37 1    
    19   11   12 ar   
    20   11   38 1    
    21   12   13 ar   
    22   12   15 1    
    23   13   14 ar   
    24   13   39 1    
    25   14   40 1    
    26   16   17 1    
    27   17   18 1    
    28   17   41 1    
    29   17   42 1    
    30   18   19 2    
    31   18   20 am   BACKBONE|DICT|INTERRES
    32   20   21 1    
    33   20   43 1    
    34   21   26 ar   
    35   21   22 ar   
    36   22   23 ar   
    37   22   31 1    
    38   23   24 ar   
    39   23   30 1    
    40   24   25 ar   
    41   24   29 1    
    42   25   26 ar   
    43   25   28 1    
    44   26   27 1    
    45   32   44 1    
    46   32   45 1    
    47   32   46 1    
    48   32   50 1    
    49   33   47 1    
    50   33   48 1    
    51   33   49 1    
    52   33   50 1    
    53   50   51 1    
@<TRIPOS>SUBSTRUCTURE
     1 UNK         1 GROUP             0       ****    0 ROOT    
