@<TRIPOS>MOLECULE
ZINC39426043_4401
50   53    1
SMALL
USER_CHARGES


@<TRIPOS>ATOM
      1 C1          2.1354   52.3378   22.3994 C.3       1 UNK         0.0000 
      2 C2          1.0404   51.6491   23.2423 C.3       1 UNK         0.0000 
      3 C3          0.9273   52.3936   24.6063 C.3       1 UNK         0.0000 
      4 C4         -0.3489   52.0090   25.4008 C.2       1 UNK         0.0000 
      5 C5         -1.4675   51.5696   24.7458 C.2       1 UNK         0.0000 
      6 C6         -2.7386   51.1070   25.5034 C.3       1 UNK         0.0000 
      7 H7         -3.5170   51.8024   25.1929 H         1 UNK         0.0000 
      8 C8         -2.5831   51.2745   27.0120 C.2       1 UNK         0.0000 
      9 C9         -1.4217   51.6516   27.5842 C.2       1 UNK         0.0000 
     10 N10        -0.3009   52.0141   26.8140 N.pl3     1 UNK         0.0000 
     11 C11         0.8459   52.4717   27.4574 C.2       1 UNK         0.0000 
     12 N12         1.3359   53.6885   27.3948 N.2       1 UNK         0.0000 
     13 N13         2.5031   53.8364   28.1258 N.2       1 UNK         0.0000 
     14 C14         2.8569   52.7303   28.7328 C.2       1 UNK         0.0000 
     15 S15         1.7711   51.4125   28.4815 S.3       1 UNK         0.0000 
     16 S16         4.3044   52.4968   29.6757 S.3       1 UNK         0.0000 
     17 C17         5.4235   53.5009   28.6432 C.3       1 UNK         0.0000 
     18 N18        -1.2960   51.6967   28.9604 N.pl3     1 UNK         0.0000 
     19 C19        -3.7229   50.9690   27.8223 C.1       1 UNK         0.0000 
     20 N20        -4.6559   50.7843   28.4814 N.1       1 UNK         0.0000 
     21 C21        -3.2391   49.6971   25.1254 C.ar      1 UNK         0.0000 
     22 C22        -2.3600   48.6086   25.2587 C.ar      1 UNK         0.0000 
     23 C23        -2.7753   47.3146   24.9526 C.ar      1 UNK         0.0000 
     24 C24        -4.0744   47.0848   24.5067 C.ar      1 UNK         0.0000 
     25 C25        -4.9579   48.1531   24.3693 C.ar      1 UNK         0.0000 
     26 C26        -4.5538   49.4544   24.6761 C.ar      1 UNK         0.0000 
     27 Cl27       -5.7211   50.7192   24.4870 Cl        1 UNK         0.0000 
     28 F28        -1.0888   48.7967   25.6817 F         1 UNK         0.0000 
     29 C29        -1.5515   51.5367   23.2655 C.2       1 UNK         0.0000 
     30 O30        -2.6254   51.4587   22.6694 O.2       1 UNK         0.0000 
     31 C31        -0.2819   51.8467   22.4681 C.3       1 UNK         0.0000 
     32 C32         1.3127   50.1376   23.4534 C.3       1 UNK         0.0000 
     33 H33         2.2401   51.8664   21.4213 H         1 UNK         0.0000 
     34 H34         1.9224   53.3949   22.2268 H         1 UNK         0.0000 
     35 H35         3.1075   52.2827   22.8821 H         1 UNK         0.0000 
     36 H36         0.9280   53.4796   24.5014 H         1 UNK         0.0000 
     37 H37         1.8322   52.0979   25.1382 H         1 UNK         0.0000 
     38 H38         6.4666   53.2968   28.8818 H         1 UNK         0.0000 
     39 H39         5.2766   53.2841   27.5838 H         1 UNK         0.0000 
     40 H40         5.2491   54.5643   28.8154 H         1 UNK         0.0000 
     41 H41        -1.9431   51.1703   29.5333 H         1 UNK         0.0000 
     42 H42        -0.4243   51.9606   29.3931 H         1 UNK         0.0000 
     43 H43        -2.0793   46.4978   25.0733 H         1 UNK         0.0000 
     44 H44        -4.4034   46.0840   24.2726 H         1 UNK         0.0000 
     45 H45        -5.9667   47.9700   24.0283 H         1 UNK         0.0000 
     46 H46        -0.3704   52.8967   22.2108 H         1 UNK         0.0000 
     47 H47        -0.3052   51.2908   21.5310 H         1 UNK         0.0000 
     48 H48         1.2923   49.5975   22.5061 H         1 UNK         0.0000 
     49 H49         2.3004   49.9698   23.8861 H         1 UNK         0.0000 
     50 H50         0.5869   49.6625   24.1107 H         1 UNK         0.0000 
@<TRIPOS>BOND
     1    1    2 1    
     2    1   33 1    
     3    1   34 1    
     4    1   35 1    
     5    2   31 1    
     6    2    3 1    
     7    2   32 1    
     8    3    4 1    
     9    3   36 1    
    10    3   37 1    
    11    4   10 1    
    12    4    5 2    
    13    5    6 1    
    14    5   29 1    
    15    6    7 1    
    16    6    8 1    
    17    6   21 1    
    18    8    9 2    
    19    8   19 1    
    20    9   10 1    
    21    9   18 1    
    22   10   11 1    
    23   11   15 1    
    24   11   12 2    
    25   12   13 1    
    26   13   14 2    
    27   14   15 1    
    28   14   16 1    
    29   16   17 1    
    30   17   38 1    
    31   17   39 1    
    32   17   40 1    
    33   18   41 1    
    34   18   42 1    
    35   19   20 3    
    36   21   26 ar   
    37   21   22 ar   
    38   22   23 ar   
    39   22   28 1    
    40   23   24 ar   
    41   23   43 1    
    42   24   25 ar   
    43   24   44 1    
    44   25   26 ar   
    45   25   45 1    
    46   26   27 1    
    47   29   30 2    
    48   29   31 1    
    49   31   46 1    
    50   31   47 1    
    51   32   48 1    
    52   32   49 1    
    53   32   50 1    
@<TRIPOS>SUBSTRUCTURE
     1 UNK         1 GROUP             0       ****    0 ROOT    
