ZINC66390439_6226
                    3D
 Schrodinger Suite 2024-2.
 56 57  0  0  1  0            999 V2000
   -1.1439   51.2969   27.8854 C   0  0  0  0  0  0
   -0.2807   51.6991   26.6769 C   0  0  2  0  0  0
   -0.7377   52.5389   26.1511 H   0  0  0  0  0  0
   -0.1058   50.5848   25.6111 C   0  0  0  0  0  0
    0.6663   50.7773   24.6674 O   0  0  0  0  0  0
   -0.8259   49.4620   25.8001 N   0  0  0  0  0  0
   -1.0021   48.4022   24.9973 C   0  0  0  0  0  0
   -0.6571   48.2866   23.8195 O   0  0  0  0  0  0
   -1.6955   47.4851   25.6817 N   0  0  0  0  0  0
   -2.5609   46.4590   25.1277 C   0  0  0  0  0  0
   -3.3922   45.8071   26.2428 C   0  0  0  0  0  0
   -4.3091   44.8965   25.6608 O   0  0  0  0  0  0
   -5.1069   44.2070   26.6123 C   0  0  0  0  0  0
    1.1286   52.2372   26.9965 N   0  3  0  0  0  0
    1.1474   53.5942   27.7305 C   0  0  0  0  0  0
    2.4247   53.7804   28.6036 C   0  0  0  0  0  0
    2.1855   55.0312   29.5032 C   0  0  0  0  0  0
    1.0001   54.8884   30.4953 C   0  0  0  0  0  0
    1.1043   53.6964   31.2765 O   0  0  0  0  0  0
    1.3477   52.4748   30.5820 C   0  0  0  0  0  0
    2.5582   52.6033   29.6235 C   0  0  0  0  0  0
    3.7212   53.9891   27.7700 C   0  0  0  0  0  0
    4.9636   54.1132   28.4130 C   0  0  0  0  0  0
    6.1198   54.3867   27.6858 C   0  0  0  0  0  0
    6.0438   54.5584   26.3093 C   0  0  0  0  0  0
    4.8349   54.4184   25.6469 C   0  0  0  0  0  0
    3.6862   54.1283   26.3691 C   0  0  0  0  0  0
    7.1405   54.8909   25.6030 F   0  0  0  0  0  0
   -2.1261   50.9382   27.5719 H   0  0  0  0  0  0
   -0.6508   50.5159   28.4677 H   0  0  0  0  0  0
   -1.3214   52.1399   28.5485 H   0  0  0  0  0  0
   -1.2876   49.3809   26.6984 H   0  0  0  0  0  0
   -1.6918   47.5597   26.6966 H   0  0  0  0  0  0
   -1.9539   45.7099   24.6176 H   0  0  0  0  0  0
   -3.2260   46.8899   24.3748 H   0  0  0  0  0  0
   -3.9342   46.5727   26.8022 H   0  0  0  0  0  0
   -2.7324   45.2957   26.9468 H   0  0  0  0  0  0
   -5.7952   43.5416   26.0922 H   0  0  0  0  0  0
   -5.6994   44.8973   27.2138 H   0  0  0  0  0  0
   -4.4982   43.5953   27.2787 H   0  0  0  0  0  0
    1.5994   51.5544   27.5725 H   0  0  0  0  0  0
    1.1044   54.3573   26.9602 H   0  0  0  0  0  0
    0.2205   53.6353   28.2906 H   0  0  0  0  0  0
    3.0849   55.2445   30.0817 H   0  0  0  0  0  0
    2.0612   55.9238   28.8866 H   0  0  0  0  0  0
    0.9902   55.7425   31.1739 H   0  0  0  0  0  0
    0.0398   54.8963   29.9861 H   0  0  0  0  0  0
    1.5408   51.6967   31.3212 H   0  0  0  0  0  0
    0.4532   52.1769   30.0408 H   0  0  0  0  0  0
    2.7389   51.6635   29.1014 H   0  0  0  0  0  0
    3.4518   52.7246   30.2352 H   0  0  0  0  0  0
    5.0440   54.0348   29.4850 H   0  0  0  0  0  0
    7.0661   54.4967   28.1937 H   0  0  0  0  0  0
    4.7878   54.5493   24.5757 H   0  0  0  0  0  0
    2.7827   54.0458   25.7900 H   0  0  0  0  0  0
    1.6496   52.3095   26.1315 H   0  0  0  0  0  0
  1  2  1  0  0  0
  1 29  1  0  0  0
  1 30  1  0  0  0
  1 31  1  0  0  0
  2  3  1  0  0  0
  2  4  1  0  0  0
  2 14  1  0  0  0
  4  5  2  0  0  0
  4  6  1  0  0  0
  6  7  1  0  0  0
  6 32  1  0  0  0
  7  8  2  0  0  0
  7  9  1  0  0  0
  9 10  1  0  0  0
  9 33  1  0  0  0
 10 11  1  0  0  0
 10 34  1  0  0  0
 10 35  1  0  0  0
 11 12  1  0  0  0
 11 36  1  0  0  0
 11 37  1  0  0  0
 12 13  1  0  0  0
 13 38  1  0  0  0
 13 39  1  0  0  0
 13 40  1  0  0  0
 14 15  1  0  0  0
 14 41  1  0  0  0
 14 56  1  0  0  0
 15 16  1  0  0  0
 15 42  1  0  0  0
 15 43  1  0  0  0
 16 21  1  0  0  0
 16 17  1  0  0  0
 16 22  1  0  0  0
 17 18  1  0  0  0
 17 44  1  0  0  0
 17 45  1  0  0  0
 18 19  1  0  0  0
 18 46  1  0  0  0
 18 47  1  0  0  0
 19 20  1  0  0  0
 20 21  1  0  0  0
 20 48  1  0  0  0
 20 49  1  0  0  0
 21 50  1  0  0  0
 21 51  1  0  0  0
 22 27  2  0  0  0
 22 23  1  0  0  0
 23 24  2  0  0  0
 23 52  1  0  0  0
 24 25  1  0  0  0
 24 53  1  0  0  0
 25 26  2  0  0  0
 25 28  1  0  0  0
 26 27  1  0  0  0
 26 54  1  0  0  0
 27 55  1  0  0  0
M  CHG  1  14   1
M  END
> <i_i_glide_confnum>
218

> <i_i_glide_lignum>
6227

> <i_i_glide_posenum>
341

> <i_i_glide_rotatable_bonds>
11

> <i_m_Source_File_Index>
5230

> <b_m_subgroup_collapsed>
0

> <r_i_docking_score>
-5.94827

> <r_i_glide_ecoul>
-9.50228

> <r_i_glide_eff_state_penalty>
0

> <r_i_glide_einternal>
11.3524

> <r_i_glide_emodel>
-58.1431

> <r_i_glide_energy>
-43.6844

> <r_i_glide_erotb>
1.32782

> <r_i_glide_esite>
-0.310764

> <r_i_glide_evdw>
-34.1822

> <r_i_glide_gscore>
-5.94827

> <r_i_glide_hbond>
-0.484445

> <r_i_glide_ligand_efficiency>
-0.220306

> <r_i_glide_ligand_efficiency_ln>
-1.38466

> <r_i_glide_ligand_efficiency_sa>
-0.660918

> <r_i_glide_lipo>
-2.51257

> <r_i_glide_metal>
0

> <r_i_glide_rewards>
-0.833856

> <s_i_glide_gridfile>
wee1_glide-grid

> <s_m_Source_File>
wee1_decoys_glide_SP.sdf

> <s_m_Source_Path>
/Users/zhangxujun/Desktop

> <s_m_entry_id>
5505

> <s_m_entry_name>
wee1_decoys_glide_SP.5230

> <s_m_subgroup_title>
wee1_decoys_glide_SP

> <s_m_subgroupid>
wee1_decoys_glide_SP


$$$$
