ZINC35303136_4945
                    3D
 Schrodinger Suite 2024-2.
 61 65  0  0  1  0            999 V2000
   -0.7646   51.8966   17.9534 C   0  0  0  0  0  0
   -0.0423   50.6757   18.5432 C   0  0  0  0  0  0
    1.5061   50.7476   18.4878 C   0  0  2  0  0  0
    1.7507   50.7751   17.4249 H   0  0  0  0  0  0
    2.1192   49.4258   19.0036 C   0  0  0  0  0  0
    2.1406   52.0450   19.1084 C   0  0  1  0  0  0
    1.5523   52.8967   18.7678 H   0  0  0  0  0  0
    2.0443   52.1048   20.6691 C   0  0  0  0  0  0
    1.2037   51.4298   21.2672 O   0  0  0  0  0  0
    2.9114   52.9506   21.2675 N   0  0  0  0  0  0
    3.0058   53.2986   22.6009 C   0  0  0  0  0  0
    3.9588   54.0942   23.0173 N   0  0  0  0  0  0
    3.9055   54.3151   24.3865 N   0  0  0  0  0  0
    2.9066   53.6967   24.9754 C   0  0  0  0  0  0
    1.9043   52.7964   23.8621 S   0  0  0  0  0  0
    2.6622   53.6965   26.4525 C   0  0  0  0  0  0
    3.6145   54.2723   27.3232 C   0  0  0  0  0  0
    3.4358   54.2564   28.7121 C   0  0  0  0  0  0
    2.2777   53.6642   29.1982 C   0  0  0  0  0  0
    1.3419   53.1178   28.3723 C   0  0  0  0  0  0
    1.5039   53.1053   26.9937 C   0  0  0  0  0  0
    0.3291   52.5955   29.1159 O   0  0  0  0  0  0
    0.5635   53.0356   30.4273 C   0  0  0  0  0  0
    1.8908   53.4893   30.4856 O   0  0  0  0  0  0
    3.5044   52.2660   18.5917 N   0  0  0  0  0  0
    4.0911   53.4577   18.3911 C   0  0  0  0  0  0
    3.5046   54.5339   18.4814 O   0  0  0  0  0  0
    5.4027   53.2967   18.1482 N   0  0  0  0  0  0
    6.4539   54.2342   18.1663 C   0  0  0  0  0  0
    6.3299   55.4963   18.7683 C   0  0  0  0  0  0
    7.4134   56.3590   18.8589 C   0  0  0  0  0  0
    8.6636   55.9824   18.3815 C   0  0  0  0  0  0
    8.8426   54.7212   17.7683 C   0  0  0  0  0  0
    7.7275   53.8323   17.6394 C   0  0  0  0  0  0
    7.9431   52.5782   16.9904 C   0  0  0  0  0  0
    9.2026   52.2252   16.5157 C   0  0  0  0  0  0
   10.2790   53.0901   16.6640 C   0  0  0  0  0  0
   10.1136   54.3255   17.2806 C   0  0  0  0  0  0
   -1.8164   51.6718   17.7680 H   0  0  0  0  0  0
   -0.7270   52.7490   18.6344 H   0  0  0  0  0  0
   -0.3197   52.2010   17.0033 H   0  0  0  0  0  0
   -0.3723   49.7943   17.9926 H   0  0  0  0  0  0
   -0.3871   50.5161   19.5644 H   0  0  0  0  0  0
    1.8910   49.2397   20.0536 H   0  0  0  0  0  0
    1.7452   48.5769   18.4328 H   0  0  0  0  0  0
    3.2017   49.4269   18.8941 H   0  0  0  0  0  0
    3.5440   53.4354   20.6471 H   0  0  0  0  0  0
    4.5114   54.7237   26.9267 H   0  0  0  0  0  0
    4.1794   54.6836   29.3695 H   0  0  0  0  0  0
    0.7533   52.6488   26.3666 H   0  0  0  0  0  0
    0.3811   52.2353   31.1478 H   0  0  0  0  0  0
   -0.1041   53.8684   30.6527 H   0  0  0  0  0  0
    4.0620   51.4256   18.4403 H   0  0  0  0  0  0
    5.6972   52.3314   18.0472 H   0  0  0  0  0  0
    5.3949   55.8265   19.1926 H   0  0  0  0  0  0
    7.2857   57.3291   19.3132 H   0  0  0  0  0  0
    9.5043   56.6529   18.4768 H   0  0  0  0  0  0
    7.1275   51.8801   16.8677 H   0  0  0  0  0  0
    9.3463   51.2689   16.0340 H   0  0  0  0  0  0
   11.2525   52.7980   16.2991 H   0  0  0  0  0  0
   10.9578   54.9905   17.3960 H   0  0  0  0  0  0
  1  2  1  0  0  0
  1 39  1  0  0  0
  1 40  1  0  0  0
  1 41  1  0  0  0
  2  3  1  0  0  0
  2 42  1  0  0  0
  2 43  1  0  0  0
  3  4  1  0  0  0
  3  5  1  0  0  0
  3  6  1  0  0  0
  5 44  1  0  0  0
  5 45  1  0  0  0
  5 46  1  0  0  0
  6  7  1  0  0  0
  6  8  1  0  0  0
  6 25  1  0  0  0
  8  9  2  0  0  0
  8 10  1  0  0  0
 10 11  1  0  0  0
 10 47  1  0  0  0
 11 15  1  0  0  0
 11 12  2  0  0  0
 12 13  1  0  0  0
 13 14  2  0  0  0
 14 15  1  0  0  0
 14 16  1  0  0  0
 16 21  2  0  0  0
 16 17  1  0  0  0
 17 18  2  0  0  0
 17 48  1  0  0  0
 18 19  1  0  0  0
 18 49  1  0  0  0
 19 24  1  0  0  0
 19 20  2  0  0  0
 20 21  1  0  0  0
 20 22  1  0  0  0
 21 50  1  0  0  0
 22 23  1  0  0  0
 23 24  1  0  0  0
 23 51  1  0  0  0
 23 52  1  0  0  0
 25 26  1  0  0  0
 25 53  1  0  0  0
 26 27  2  0  0  0
 26 28  1  0  0  0
 28 29  1  0  0  0
 28 54  1  0  0  0
 29 34  2  0  0  0
 29 30  1  0  0  0
 30 31  2  0  0  0
 30 55  1  0  0  0
 31 32  1  0  0  0
 31 56  1  0  0  0
 32 33  2  0  0  0
 32 57  1  0  0  0
 33 38  1  0  0  0
 33 34  1  0  0  0
 34 35  1  0  0  0
 35 36  2  0  0  0
 35 58  1  0  0  0
 36 37  1  0  0  0
 36 59  1  0  0  0
 37 38  2  0  0  0
 37 60  1  0  0  0
 38 61  1  0  0  0
M  END
> <i_i_glide_confnum>
62

> <i_i_glide_lignum>
4946

> <i_i_glide_posenum>
149

> <i_i_glide_rotatable_bonds>
10

> <i_m_Source_File_Index>
1331

> <b_m_subgroup_collapsed>
0

> <r_i_docking_score>
-5.12533

> <r_i_glide_ecoul>
-5.48015

> <r_i_glide_eff_state_penalty>
0

> <r_i_glide_einternal>
4.57998

> <r_i_glide_emodel>
-62.7842

> <r_i_glide_energy>
-47.5878

> <r_i_glide_erotb>
0.644856

> <r_i_glide_esite>
-0.251612

> <r_i_glide_evdw>
-42.1076

> <r_i_glide_gscore>
-5.12533

> <r_i_glide_hbond>
-0.516333

> <r_i_glide_ligand_efficiency>
-0.14237

> <r_i_glide_ligand_efficiency_ln>
-1.11821

> <r_i_glide_ligand_efficiency_sa>
-0.470097

> <r_i_glide_lipo>
-1.9633

> <r_i_glide_metal>
0

> <r_i_glide_rewards>
-0.111538

> <s_i_glide_gridfile>
wee1_glide-grid

> <s_m_Source_File>
wee1_decoys_glide_SP.sdf

> <s_m_Source_Path>
/Users/zhangxujun/Desktop

> <s_m_entry_id>
1606

> <s_m_entry_name>
wee1_decoys_glide_SP.1331

> <s_m_subgroup_title>
wee1_decoys_glide_SP

> <s_m_subgroupid>
wee1_decoys_glide_SP


$$$$
