ZINC39639422_4998
                    3D
 Schrodinger Suite 2024-2.
 75 78  0  0  1  0            999 V2000
    2.4700   48.7151   19.2105 C   0  0  0  0  0  0
    2.1182   49.7329   20.2805 C   0  0  0  0  0  0
    1.6502   50.9940   19.9123 C   0  0  0  0  0  0
    1.3083   51.9216   20.8921 C   0  0  0  0  0  0
    1.4333   51.5969   22.2463 C   0  0  0  0  0  0
    1.9041   50.3281   22.6084 C   0  0  0  0  0  0
    2.2497   49.4026   21.6294 C   0  0  0  0  0  0
    1.0331   52.6345   23.3045 C   0  0  2  0  0  0
    0.2115   53.2250   22.8947 H   0  0  0  0  0  0
    2.1824   53.6153   23.5534 C   0  0  0  0  0  0
    0.5465   52.0791   24.5771 N   0  0  0  0  0  0
   -0.6191   51.4207   24.7229 C   0  0  0  0  0  0
   -1.3953   51.2708   23.7819 O   0  0  0  0  0  0
   -1.0015   50.8374   26.1103 C   0  0  1  0  0  0
   -1.4662   49.8783   25.8953 H   0  0  0  0  0  0
    0.1938   50.5651   27.0340 C   0  0  0  0  0  0
    0.3085   51.7786   27.8446 N   0  0  0  0  0  0
   -0.8963   52.5982   27.7768 C   0  0  0  0  0  0
   -1.9234   51.7740   26.9548 C   0  0  0  0  0  0
   -3.0077   52.6150   26.2153 C   0  0  0  0  0  0
   -4.0470   51.7036   25.5096 C   0  0  0  0  0  0
   -4.7161   50.7665   26.5425 N   0  3  0  0  0  0
   -3.7278   49.9929   27.4430 C   0  0  0  0  0  0
   -2.7490   51.0154   28.0401 C   0  0  0  0  0  0
    1.3495   52.0599   28.6604 C   0  0  0  0  0  0
    2.3050   51.2967   28.7805 O   0  0  0  0  0  0
    1.3399   53.4004   29.4540 C   0  0  1  0  0  0
    0.7979   54.1620   28.8948 H   0  0  0  0  0  0
    0.6604   53.2123   30.8437 C   0  0  0  0  0  0
    1.4497   52.3209   31.8296 C   0  0  0  0  0  0
    0.2820   54.5634   31.4684 C   0  0  0  0  0  0
    2.6556   53.9442   29.6838 O   0  0  0  0  0  0
    3.5470   54.1899   28.6525 C   0  0  0  0  0  0
    3.2222   54.2210   27.2883 C   0  0  0  0  0  0
    4.2290   54.3962   26.3395 C   0  0  0  0  0  0
    5.5576   54.4961   26.7400 C   0  0  0  0  0  0
    5.8807   54.4969   28.0910 C   0  0  0  0  0  0
    4.8658   54.4100   29.0357 C   0  0  0  0  0  0
    2.3412   47.6973   19.5752 H   0  0  0  0  0  0
    1.8225   48.8225   18.3423 H   0  0  0  0  0  0
    3.4994   48.8462   18.8819 H   0  0  0  0  0  0
    1.5524   51.2561   18.8680 H   0  0  0  0  0  0
    0.9524   52.8967   20.5915 H   0  0  0  0  0  0
    2.0111   50.0543   23.6485 H   0  0  0  0  0  0
    2.6296   48.4343   21.9245 H   0  0  0  0  0  0
    2.4498   54.1507   22.6407 H   0  0  0  0  0  0
    1.9110   54.3618   24.2980 H   0  0  0  0  0  0
    3.0700   53.0850   23.8968 H   0  0  0  0  0  0
    1.1477   52.1797   25.3791 H   0  0  0  0  0  0
    1.1034   50.2653   26.5119 H   0  0  0  0  0  0
   -0.0956   49.7357   27.6744 H   0  0  0  0  0  0
   -1.2954   52.8487   28.7566 H   0  0  0  0  0  0
   -0.6591   53.5267   27.2815 H   0  0  0  0  0  0
   -3.5237   53.3028   26.8817 H   0  0  0  0  0  0
   -2.5394   53.2674   25.4752 H   0  0  0  0  0  0
   -4.8505   52.2741   25.0420 H   0  0  0  0  0  0
   -3.6164   51.0395   24.7627 H   0  0  0  0  0  0
   -5.3176   51.3187   27.1371 H   0  0  0  0  0  0
   -4.3230   49.5035   28.2153 H   0  0  0  0  0  0
   -3.2579   49.2169   26.8423 H   0  0  0  0  0  0
   -2.0771   50.4967   28.7185 H   0  0  0  0  0  0
   -3.2823   51.6970   28.7030 H   0  0  0  0  0  0
   -0.2923   52.6977   30.6989 H   0  0  0  0  0  0
    2.4739   52.6543   31.9732 H   0  0  0  0  0  0
    0.9605   52.2773   32.8036 H   0  0  0  0  0  0
    1.5281   51.2969   31.4807 H   0  0  0  0  0  0
    1.1046   55.2721   31.5029 H   0  0  0  0  0  0
   -0.4954   55.0422   30.8814 H   0  0  0  0  0  0
   -0.0953   54.4391   32.4832 H   0  0  0  0  0  0
    2.2022   54.1085   26.9545 H   0  0  0  0  0  0
    3.9978   54.4395   25.2901 H   0  0  0  0  0  0
    6.3379   54.5929   25.9986 H   0  0  0  0  0  0
    6.9052   54.5759   28.4220 H   0  0  0  0  0  0
    5.1040   54.4935   30.0807 H   0  0  0  0  0  0
   -5.3165   50.1078   26.0656 H   0  0  0  0  0  0
  1  2  1  0  0  0
  1 39  1  0  0  0
  1 40  1  0  0  0
  1 41  1  0  0  0
  2  7  2  0  0  0
  2  3  1  0  0  0
  3  4  2  0  0  0
  3 42  1  0  0  0
  4  5  1  0  0  0
  4 43  1  0  0  0
  5  6  2  0  0  0
  5  8  1  0  0  0
  6  7  1  0  0  0
  6 44  1  0  0  0
  7 45  1  0  0  0
  8  9  1  0  0  0
  8 10  1  0  0  0
  8 11  1  0  0  0
 10 46  1  0  0  0
 10 47  1  0  0  0
 10 48  1  0  0  0
 11 12  1  0  0  0
 11 49  1  0  0  0
 12 13  2  0  0  0
 12 14  1  0  0  0
 14 15  1  0  0  0
 14 19  1  0  0  0
 14 16  1  0  0  0
 16 17  1  0  0  0
 16 50  1  0  0  0
 16 51  1  0  0  0
 17 18  1  0  0  0
 17 25  1  0  0  0
 18 19  1  0  0  0
 18 52  1  0  0  0
 18 53  1  0  0  0
 19 24  1  0  0  0
 19 20  1  0  0  0
 20 21  1  0  0  0
 20 54  1  0  0  0
 20 55  1  0  0  0
 21 22  1  0  0  0
 21 56  1  0  0  0
 21 57  1  0  0  0
 22 23  1  0  0  0
 22 58  1  0  0  0
 22 75  1  0  0  0
 23 24  1  0  0  0
 23 59  1  0  0  0
 23 60  1  0  0  0
 24 61  1  0  0  0
 24 62  1  0  0  0
 25 26  2  0  0  0
 25 27  1  0  0  0
 27 28  1  0  0  0
 27 29  1  0  0  0
 27 32  1  0  0  0
 29 30  1  0  0  0
 29 31  1  0  0  0
 29 63  1  0  0  0
 30 64  1  0  0  0
 30 65  1  0  0  0
 30 66  1  0  0  0
 31 67  1  0  0  0
 31 68  1  0  0  0
 31 69  1  0  0  0
 32 33  1  0  0  0
 33 38  2  0  0  0
 33 34  1  0  0  0
 34 35  2  0  0  0
 34 70  1  0  0  0
 35 36  1  0  0  0
 35 71  1  0  0  0
 36 37  2  0  0  0
 36 72  1  0  0  0
 37 38  1  0  0  0
 37 73  1  0  0  0
 38 74  1  0  0  0
M  CHG  1  22   1
M  END
> <i_i_glide_confnum>
393

> <i_i_glide_lignum>
4999

> <i_i_glide_posenum>
122

> <i_i_glide_rotatable_bonds>
9

> <i_m_Source_File_Index>
1717

> <b_m_subgroup_collapsed>
0

> <r_i_docking_score>
-5.31422

> <r_i_glide_ecoul>
-5.1819

> <r_i_glide_eff_state_penalty>
0

> <r_i_glide_einternal>
5.50609

> <r_i_glide_emodel>
-56.546

> <r_i_glide_energy>
-45.6512

> <r_i_glide_erotb>
0.619208

> <r_i_glide_esite>
-0.0130739

> <r_i_glide_evdw>
-40.4693

> <r_i_glide_gscore>
-5.31422

> <r_i_glide_hbond>
-0.197121

> <r_i_glide_ligand_efficiency>
-0.151835

> <r_i_glide_ligand_efficiency_ln>
-1.16659

> <r_i_glide_ligand_efficiency_sa>
-0.496662

> <r_i_glide_lipo>
-2.45053

> <r_i_glide_metal>
0

> <r_i_glide_rewards>
-0.471954

> <s_i_glide_gridfile>
wee1_glide-grid

> <s_m_Source_File>
wee1_decoys_glide_SP.sdf

> <s_m_Source_Path>
/Users/zhangxujun/Desktop

> <s_m_entry_id>
1992

> <s_m_entry_name>
wee1_decoys_glide_SP.1717

> <s_m_subgroup_title>
wee1_decoys_glide_SP

> <s_m_subgroupid>
wee1_decoys_glide_SP


$$$$
