ZINC30826427_2971
                    3D
 Schrodinger Suite 2024-2.
 59 62  0  0  1  0            999 V2000
    4.9567   52.4991   19.9990 C   0  0  0  0  0  0
    3.5468   52.3342   20.5297 C   0  0  0  0  0  0
    2.5431   51.8205   19.7084 C   0  0  0  0  0  0
    1.2408   51.7069   20.1913 C   0  0  0  0  0  0
    0.9345   52.0914   21.5035 C   0  0  0  0  0  0
    1.9554   52.5999   22.3225 C   0  0  0  0  0  0
    3.2518   52.7206   21.8335 C   0  0  0  0  0  0
   -0.4824   51.9747   22.0142 C   0  0  0  0  0  0
   -1.4389   52.0969   21.2440 O   0  0  0  0  0  0
   -0.5826   51.6635   23.3303 N   0  0  0  0  0  0
   -1.5951   51.8379   24.2374 C   0  0  0  0  0  0
   -2.8956   52.8966   24.0817 S   0  0  0  0  0  0
   -1.3921   51.0564   25.3384 N   0  0  0  0  0  0
   -2.1576   50.9126   26.5061 C   0  0  0  0  0  0
   -3.4285   50.3316   26.3823 C   0  0  0  0  0  0
   -4.2299   50.1424   27.5012 C   0  0  0  0  0  0
   -3.7612   50.5133   28.7549 C   0  0  0  0  0  0
   -2.4940   51.0762   28.8817 C   0  0  0  0  0  0
   -1.6573   51.2967   27.7755 C   0  0  0  0  0  0
   -0.4049   51.8994   27.9740 N   0  0  0  0  0  0
   -0.0973   52.7980   29.0953 C   0  0  0  0  0  0
    0.6216   54.0884   28.6634 C   0  0  0  0  0  0
    1.7922   53.7805   27.8178 N   0  0  0  0  0  0
    1.6155   52.7807   26.7473 C   0  0  0  0  0  0
    0.8519   51.5489   27.2946 C   0  0  0  0  0  0
    2.9633   54.4410   28.0566 C   0  0  0  0  0  0
    3.1081   55.1881   29.0284 O   0  0  0  0  0  0
    4.1238   54.3206   27.0884 C   0  0  0  0  0  0
    3.9428   54.5025   25.7074 C   0  0  0  0  0  0
    5.0352   54.4999   24.8391 C   0  0  0  0  0  0
    6.3223   54.3058   25.3340 C   0  0  0  0  0  0
    6.5127   54.0975   26.6976 C   0  0  0  0  0  0
    5.4250   54.0985   27.5684 C   0  0  0  0  0  0
    5.6547   53.8904   28.8817 F   0  0  0  0  0  0
   -5.7952   49.4365   27.3368 Cl  0  0  0  0  0  0
    4.9764   52.4970   18.9079 H   0  0  0  0  0  0
    5.3816   53.4495   20.3233 H   0  0  0  0  0  0
    5.5937   51.6969   20.3618 H   0  0  0  0  0  0
    2.7739   51.5132   18.6990 H   0  0  0  0  0  0
    0.4748   51.3169   19.5354 H   0  0  0  0  0  0
    1.7540   52.9247   23.3329 H   0  0  0  0  0  0
    4.0302   53.1173   22.4640 H   0  0  0  0  0  0
    0.3057   51.4167   23.7384 H   0  0  0  0  0  0
   -0.5391   50.5190   25.3595 H   0  0  0  0  0  0
   -3.7970   50.0267   25.4125 H   0  0  0  0  0  0
   -4.3565   50.3362   29.6385 H   0  0  0  0  0  0
   -2.1369   51.2886   29.8769 H   0  0  0  0  0  0
   -0.9837   53.0680   29.6660 H   0  0  0  0  0  0
    0.5278   52.2288   29.7861 H   0  0  0  0  0  0
   -0.0818   54.6783   28.0819 H   0  0  0  0  0  0
    0.8716   54.6471   29.5670 H   0  0  0  0  0  0
    2.5690   52.4260   26.3599 H   0  0  0  0  0  0
    1.0428   53.2163   25.9292 H   0  0  0  0  0  0
    1.4624   51.0380   28.0429 H   0  0  0  0  0  0
    0.7159   50.7988   26.5209 H   0  0  0  0  0  0
    2.9620   54.6975   25.2994 H   0  0  0  0  0  0
    4.8865   54.6762   23.7849 H   0  0  0  0  0  0
    7.1684   54.3068   24.6615 H   0  0  0  0  0  0
    7.5034   53.9266   27.0893 H   0  0  0  0  0  0
  1  2  1  0  0  0
  1 36  1  0  0  0
  1 37  1  0  0  0
  1 38  1  0  0  0
  2  7  2  0  0  0
  2  3  1  0  0  0
  3  4  2  0  0  0
  3 39  1  0  0  0
  4  5  1  0  0  0
  4 40  1  0  0  0
  5  6  2  0  0  0
  5  8  1  0  0  0
  6  7  1  0  0  0
  6 41  1  0  0  0
  7 42  1  0  0  0
  8  9  2  0  0  0
  8 10  1  0  0  0
 10 11  1  0  0  0
 10 43  1  0  0  0
 11 12  2  0  0  0
 11 13  1  0  0  0
 13 14  1  0  0  0
 13 44  1  0  0  0
 14 19  2  0  0  0
 14 15  1  0  0  0
 15 16  2  0  0  0
 15 45  1  0  0  0
 16 17  1  0  0  0
 16 35  1  0  0  0
 17 18  2  0  0  0
 17 46  1  0  0  0
 18 19  1  0  0  0
 18 47  1  0  0  0
 19 20  1  0  0  0
 20 25  1  0  0  0
 20 21  1  0  0  0
 21 22  1  0  0  0
 21 48  1  0  0  0
 21 49  1  0  0  0
 22 23  1  0  0  0
 22 50  1  0  0  0
 22 51  1  0  0  0
 23 24  1  0  0  0
 23 26  1  0  0  0
 24 25  1  0  0  0
 24 52  1  0  0  0
 24 53  1  0  0  0
 25 54  1  0  0  0
 25 55  1  0  0  0
 26 27  2  0  0  0
 26 28  1  0  0  0
 28 33  2  0  0  0
 28 29  1  0  0  0
 29 30  2  0  0  0
 29 56  1  0  0  0
 30 31  1  0  0  0
 30 57  1  0  0  0
 31 32  2  0  0  0
 31 58  1  0  0  0
 32 33  1  0  0  0
 32 59  1  0  0  0
 33 34  1  0  0  0
M  END
> <i_i_glide_confnum>
293

> <i_i_glide_lignum>
2972

> <i_i_glide_posenum>
72

> <i_i_glide_rotatable_bonds>
8

> <i_m_Source_File_Index>
1550

> <b_m_subgroup_collapsed>
0

> <r_i_docking_score>
-5.3782

> <r_i_glide_ecoul>
-3.09089

> <r_i_glide_eff_state_penalty>
0

> <r_i_glide_einternal>
8.59873

> <r_i_glide_emodel>
-57.283

> <r_i_glide_energy>
-46.8644

> <r_i_glide_erotb>
0.627735

> <r_i_glide_esite>
-0.057714

> <r_i_glide_evdw>
-43.7735

> <r_i_glide_gscore>
-5.3782

> <r_i_glide_hbond>
0

> <r_i_glide_ligand_efficiency>
-0.153663

> <r_i_glide_ligand_efficiency_ln>
-1.18064

> <r_i_glide_ligand_efficiency_sa>
-0.502642

> <r_i_glide_lipo>
-2.33252

> <r_i_glide_metal>
0

> <r_i_glide_rewards>
-0.963397

> <s_i_glide_gridfile>
wee1_glide-grid

> <s_m_Source_File>
wee1_decoys_glide_SP.sdf

> <s_m_Source_Path>
/Users/zhangxujun/Desktop

> <s_m_entry_id>
1825

> <s_m_entry_name>
wee1_decoys_glide_SP.1550

> <s_m_subgroup_title>
wee1_decoys_glide_SP

> <s_m_subgroupid>
wee1_decoys_glide_SP


$$$$
