@<TRIPOS>MOLECULE
ZINC16925720_3923
67   70    1
SMALL
USER_CHARGES


@<TRIPOS>ATOM
      1 C1         -1.5310   49.7589   18.1221 C.3       1 UNK         0.0000 
      2 C2         -1.7263   50.8560   19.1828 C.2       1 UNK         0.0000 
      3 N3         -1.9619   52.0965   18.9627 N.2       1 UNK         0.0000 
      4 N4         -1.8649   52.5259   17.6836 N.am      1 UNK         0.0000 
      5 C5         -2.1150   53.7958   17.3199 C.2       1 UNK         0.0000 
      6 O6         -2.4951   54.6969   18.0651 O.2       1 UNK         0.0000 
      7 N7         -1.9034   54.0104   16.0249 N.am      1 UNK         0.0000 
      8 C8         -1.6265   50.3915   20.6521 C.3       1 UNK         0.0000 
      9 H9         -2.3841   50.9798   21.1788 H         1 UNK         0.0000 
     10 C10        -2.0085   48.9271   21.0092 C.3       1 UNK         0.0000 
     11 C11        -1.2779   48.6068   22.3321 C.3       1 UNK         0.0000 
     12 C12        -0.6250   49.9350   22.7464 C.3       1 UNK         0.0000 
     13 H13        -1.4327   50.5009   23.2080 H         1 UNK         0.0000 
     14 C14        -0.2785   50.6207   21.4008 C.3       1 UNK         0.0000 
     15 C15         0.0348   52.0967   21.7242 C.3       1 UNK         0.0000 
     16 C16         1.2218   52.2558   22.7080 C.3       1 UNK         0.0000 
     17 C17         1.1434   51.3923   24.0155 C.3       1 UNK         0.0000 
     18 H18         2.1872   51.1795   24.2393 H         1 UNK         0.0000 
     19 C19         0.5563   49.9542   23.7554 C.3       1 UNK         0.0000 
     20 H20         1.3560   49.4154   23.2454 H         1 UNK         0.0000 
     21 C21         0.3454   49.0862   25.0186 C.3       1 UNK         0.0000 
     22 C22         0.1461   49.8777   26.2794 C.2       1 UNK         0.0000 
     23 C23         0.2330   51.2070   26.4357 C.2       1 UNK         0.0000 
     24 C24         0.5478   52.1683   25.2694 C.3       1 UNK         0.0000 
     25 C25         1.6353   53.1796   25.7858 C.3       1 UNK         0.0000 
     26 C26         1.5035   53.7682   27.2146 C.3       1 UNK         0.0000 
     27 C27         1.0562   52.7735   28.2976 C.3       1 UNK         0.0000 
     28 H28         0.5896   53.3319   29.1132 H         1 UNK         0.0000 
     29 C29        -0.0619   51.8362   27.8022 C.3       1 UNK         0.0000 
     30 O30         2.1671   52.0686   28.8354 O.3       1 UNK         0.0000 
     31 C31         3.0171   52.7132   29.6682 C.2       1 UNK         0.0000 
     32 O32         2.9100   53.8684   30.0820 O.2       1 UNK         0.0000 
     33 C33         4.2145   51.8764   30.0320 C.3       1 UNK         0.0000 
     34 C34        -0.7747   52.8838   24.8817 C.3       1 UNK         0.0000 
     35 C35         0.9133   49.9628   20.6295 C.3       1 UNK         0.0000 
     36 H36        -0.5810   49.2443   18.2638 H         1 UNK         0.0000 
     37 H37        -2.3260   49.0158   18.1856 H         1 UNK         0.0000 
     38 H38        -1.5369   50.1238   17.0964 H         1 UNK         0.0000 
     39 H39        -1.5724   51.8348   17.0113 H         1 UNK         0.0000 
     40 H40        -1.5335   53.2919   15.4225 H         1 UNK         0.0000 
     41 H41        -2.0597   54.9379   15.6598 H         1 UNK         0.0000 
     42 H42        -3.0896   48.8162   21.1096 H         1 UNK         0.0000 
     43 H43        -1.6915   48.2111   20.2510 H         1 UNK         0.0000 
     44 H44        -1.9303   48.1927   23.1020 H         1 UNK         0.0000 
     45 H45        -0.5020   47.8666   22.1338 H         1 UNK         0.0000 
     46 H46         0.2427   52.6497   20.8063 H         1 UNK         0.0000 
     47 H47        -0.8497   52.5680   22.1489 H         1 UNK         0.0000 
     48 H48         1.4462   53.3003   22.9223 H         1 UNK         0.0000 
     49 H49         2.1166   51.9441   22.1684 H         1 UNK         0.0000 
     50 H50        -0.4788   48.3828   24.9086 H         1 UNK         0.0000 
     51 H51         1.2276   48.4964   25.2399 H         1 UNK         0.0000 
     52 H52        -0.0954   49.2971   27.1533 H         1 UNK         0.0000 
     53 H53         2.6048   52.6800   25.7739 H         1 UNK         0.0000 
     54 H54         1.7405   54.0055   25.0813 H         1 UNK         0.0000 
     55 H55         0.7957   54.5850   27.2817 H         1 UNK         0.0000 
     56 H56         2.4535   54.2380   27.4712 H         1 UNK         0.0000 
     57 H57        -0.9914   52.3985   27.7359 H         1 UNK         0.0000 
     58 H58        -0.2527   51.0720   28.5590 H         1 UNK         0.0000 
     59 H59         4.0899   51.4333   31.0189 H         1 UNK         0.0000 
     60 H60         4.3582   51.1007   29.2823 H         1 UNK         0.0000 
     61 H61         5.1045   52.4937   30.0340 H         1 UNK         0.0000 
     62 H62        -0.6047   53.7025   24.1832 H         1 UNK         0.0000 
     63 H63        -1.4904   52.2078   24.4250 H         1 UNK         0.0000 
     64 H64        -1.2988   53.2964   25.7402 H         1 UNK         0.0000 
     65 H65         1.8466   49.9650   21.1895 H         1 UNK         0.0000 
     66 H66         0.7158   48.9245   20.3643 H         1 UNK         0.0000 
     67 H67         1.1162   50.4949   19.6994 H         1 UNK         0.0000 
@<TRIPOS>BOND
     1    1    2 1    
     2    1   36 1    
     3    1   37 1    
     4    1   38 1    
     5    2    3 2    
     6    2    8 1    
     7    3    4 1    
     8    4    5 am   BACKBONE|DICT|INTERRES
     9    4   39 1    
    10    5    6 2    
    11    5    7 am   BACKBONE|DICT|INTERRES
    12    7   40 1    
    13    7   41 1    
    14    8    9 1    
    15    8   14 1    
    16    8   10 1    
    17   10   11 1    
    18   10   42 1    
    19   10   43 1    
    20   11   12 1    
    21   11   44 1    
    22   11   45 1    
    23   12   13 1    
    24   12   19 1    
    25   12   14 1    
    26   14   15 1    
    27   14   35 1    
    28   15   16 1    
    29   15   46 1    
    30   15   47 1    
    31   16   17 1    
    32   16   48 1    
    33   16   49 1    
    34   17   18 1    
    35   17   24 1    
    36   17   19 1    
    37   19   20 1    
    38   19   21 1    
    39   21   22 1    
    40   21   50 1    
    41   21   51 1    
    42   22   23 2    
    43   22   52 1    
    44   23   29 1    
    45   23   24 1    
    46   24   25 1    
    47   24   34 1    
    48   25   26 1    
    49   25   53 1    
    50   25   54 1    
    51   26   27 1    
    52   26   55 1    
    53   26   56 1    
    54   27   28 1    
    55   27   29 1    
    56   27   30 1    
    57   29   57 1    
    58   29   58 1    
    59   30   31 1    
    60   31   32 2    
    61   31   33 1    
    62   33   59 1    
    63   33   60 1    
    64   33   61 1    
    65   34   62 1    
    66   34   63 1    
    67   34   64 1    
    68   35   65 1    
    69   35   66 1    
    70   35   67 1    
@<TRIPOS>SUBSTRUCTURE
     1 UNK         1 GROUP             0       ****    0 ROOT    
