@<TRIPOS>MOLECULE
ZINC48837294_1853
36   37    1
SMALL
USER_CHARGES


@<TRIPOS>ATOM
      1 C1          6.1026   54.6231   27.2627 C.ar      1 UNK         0.0000 
      2 C2          5.2925   54.1332   28.2804 C.ar      1 UNK         0.0000 
      3 C3          4.0013   53.6364   28.0251 C.ar      1 UNK         0.0000 
      4 C4          3.5200   53.6693   26.6844 C.ar      1 UNK         0.0000 
      5 C5          4.3537   54.1757   25.6732 C.ar      1 UNK         0.0000 
      6 C6          5.6274   54.6418   25.9596 C.ar      1 UNK         0.0000 
      7 Br7         6.7044   55.2967   24.5446 Br        1 UNK         0.0000 
      8 N8          2.2319   53.1601   26.3911 N.am      1 UNK         0.0000 
      9 C9          1.4918   53.2013   25.2559 C.2       1 UNK         0.0000 
     10 O10         1.8129   53.8293   24.2452 O.2       1 UNK         0.0000 
     11 N11         0.2864   52.5716   25.3526 N.am      1 UNK         0.0000 
     12 C12        -0.7255   52.7384   24.2846 C.3       1 UNK         0.0000 
     13 C13        -0.6314   51.5350   23.3175 C.3       1 UNK         0.0000 
     14 C14        -0.7661   50.1929   24.0635 C.3       1 UNK         0.0000 
     15 C15         0.2129   50.1405   25.2519 C.3       1 UNK         0.0000 
     16 H16         1.2323   50.0741   24.8672 H         1 UNK         0.0000 
     17 C17         0.0661   51.3673   26.1791 C.3       1 UNK         0.0000 
     18 N18        -0.0954   48.8967   26.0817 N.4       1 UNK         0.0000 
     19 C19         3.2087   53.0845   29.1870 C.2       1 UNK         0.0000 
     20 O20         2.3044   52.2484   28.9504 O.co2     1 UNK         0.0000 
     21 O21         3.5042   53.4838   30.3390 O.co2     1 UNK         0.0000 
     22 H22         7.0925   54.9883   27.4931 H         1 UNK         0.0000 
     23 H23         5.6946   54.1354   29.2817 H         1 UNK         0.0000 
     24 H24         4.0589   54.2000   24.6377 H         1 UNK         0.0000 
     25 H25         1.8236   52.6828   27.1879 H         1 UNK         0.0000 
     26 H26        -1.6997   52.7450   24.7755 H         1 UNK         0.0000 
     27 H27        -0.6628   53.7155   23.8028 H         1 UNK         0.0000 
     28 H28        -1.4078   51.6157   22.5559 H         1 UNK         0.0000 
     29 H29         0.3160   51.5750   22.7760 H         1 UNK         0.0000 
     30 H30        -1.7895   50.1183   24.4375 H         1 UNK         0.0000 
     31 H31        -0.6451   49.3306   23.4057 H         1 UNK         0.0000 
     32 H32         0.6402   51.3265   27.1067 H         1 UNK         0.0000 
     33 H33        -0.9546   51.4193   26.5622 H         1 UNK         0.0000 
     34 H34        -0.9262   48.9827   26.6626 H         1 UNK         0.0000 
     35 H35        -0.2008   48.0786   25.5011 H         1 UNK         0.0000 
     36 H36         0.6575   48.6987   26.7257 H         1 UNK         0.0000 
@<TRIPOS>BOND
     1    1    6 ar   
     2    1    2 ar   
     3    1   22 1    
     4    2    3 ar   
     5    2   23 1    
     6    3    4 ar   
     7    3   19 1    
     8    4    5 ar   
     9    4    8 1    
    10    5    6 ar   
    11    5   24 1    
    12    6    7 1    
    13    8    9 am   BACKBONE|DICT|INTERRES
    14    8   25 1    
    15    9   10 2    
    16    9   11 am   BACKBONE|DICT|INTERRES
    17   11   17 1    
    18   11   12 1    
    19   12   13 1    
    20   12   26 1    
    21   12   27 1    
    22   13   14 1    
    23   13   28 1    
    24   13   29 1    
    25   14   15 1    
    26   14   30 1    
    27   14   31 1    
    28   15   16 1    
    29   15   17 1    
    30   15   18 1    
    31   17   32 1    
    32   17   33 1    
    33   18   34 1    
    34   18   35 1    
    35   18   36 1    
    36   19   20 2    
    37   19   21 1    
@<TRIPOS>SUBSTRUCTURE
     1 UNK         1 GROUP             0       ****    0 ROOT    
