@<TRIPOS>MOLECULE
ZINC20676672_769
62   65    1
SMALL
USER_CHARGES


@<TRIPOS>ATOM
      1 C1         -1.9108   50.5817   26.0011 C.ar      1 UNK         0.0000 
      2 C2         -3.0098   50.2912   25.1983 C.ar      1 UNK         0.0000 
      3 C3         -3.2424   51.0414   24.0493 C.ar      1 UNK         0.0000 
      4 C4         -2.3819   52.0764   23.6961 C.ar      1 UNK         0.0000 
      5 C5         -1.2827   52.3707   24.4992 C.ar      1 UNK         0.0000 
      6 C6         -1.0406   51.6202   25.6620 C.ar      1 UNK         0.0000 
      7 N7          0.0179   51.8802   26.5575 N.am      1 UNK         0.0000 
      8 C8          1.1863   52.5103   26.3122 C.2       1 UNK         0.0000 
      9 O9          1.5419   52.8622   25.1906 O.2       1 UNK         0.0000 
     10 C10         2.1141   52.7413   27.5257 C.3       1 UNK         0.0000 
     11 C11         3.1040   53.9585   27.4158 C.3       1 UNK         0.0000 
     12 H12         2.5319   54.7980   27.0142 H         1 UNK         0.0000 
     13 C13         3.4172   54.4881   28.8547 C.2       1 UNK         0.0000 
     14 O14         2.5581   54.8798   29.6420 O.2       1 UNK         0.0000 
     15 N15         4.7143   54.5351   29.2201 N.am      1 UNK         0.0000 
     16 C16         5.8671   54.2214   28.3631 C.3       1 UNK         0.0000 
     17 C17         5.4776   53.1858   27.2935 C.3       1 UNK         0.0000 
     18 N18         4.3180   53.7373   26.5758 N.am      1 UNK         0.0000 
     19 C19         4.4164   54.2288   25.3109 C.2       1 UNK         0.0000 
     20 O20         3.5150   54.8948   24.7974 O.2       1 UNK         0.0000 
     21 C21         5.6942   53.9557   24.4858 C.3       1 UNK         0.0000 
     22 N22         5.5657   54.5174   23.0456 N.4       1 UNK         0.0000 
     23 C23         6.8774   55.1774   22.5715 C.3       1 UNK         0.0000 
     24 C24         6.6203   55.8497   21.2110 C.3       1 UNK         0.0000 
     25 N25         6.1839   54.8959   20.1798 N.pl3     1 UNK         0.0000 
     26 C26         4.9911   54.1327   20.6087 C.3       1 UNK         0.0000 
     27 C27         5.0883   53.4772   22.0113 C.3       1 UNK         0.0000 
     28 C28         6.8883   54.6392   19.0001 C.ar      1 UNK         0.0000 
     29 C29         8.2660   54.8961   18.9036 C.ar      1 UNK         0.0000 
     30 C30         8.9714   54.6006   17.7427 C.ar      1 UNK         0.0000 
     31 C31         8.3051   54.0506   16.6524 C.ar      1 UNK         0.0000 
     32 C32         6.9375   53.8043   16.7162 C.ar      1 UNK         0.0000 
     33 C33         6.2370   54.0983   17.8819 C.ar      1 UNK         0.0000 
     34 Cl34        9.1803   53.6662   15.2175 Cl        1 UNK         0.0000 
     35 F35        -4.3081   50.7578   23.2688 F         1 UNK         0.0000 
     36 H36        -1.7434   49.9807   26.8830 H         1 UNK         0.0000 
     37 H37        -3.6766   49.4859   25.4683 H         1 UNK         0.0000 
     38 H38        -2.5718   52.6498   22.8021 H         1 UNK         0.0000 
     39 H39        -0.6421   53.1897   24.2138 H         1 UNK         0.0000 
     40 H40        -0.0961   51.4743   27.4731 H         1 UNK         0.0000 
     41 H41         1.4643   52.8414   28.3988 H         1 UNK         0.0000 
     42 H42         2.6844   51.8253   27.6842 H         1 UNK         0.0000 
     43 H43         4.9019   54.8884   30.1453 H         1 UNK         0.0000 
     44 H44         6.2395   55.1507   27.9264 H         1 UNK         0.0000 
     45 H45         6.6703   53.8229   28.9846 H         1 UNK         0.0000 
     46 H46         6.3176   52.8970   26.6647 H         1 UNK         0.0000 
     47 H47         5.1525   52.2751   27.7970 H         1 UNK         0.0000 
     48 H48         6.5406   54.4572   24.9536 H         1 UNK         0.0000 
     49 H49         5.9053   52.9056   24.3660 H         1 UNK         0.0000 
     50 H50         7.1313   55.9384   23.3123 H         1 UNK         0.0000 
     51 H51         7.6584   54.4152   22.5363 H         1 UNK         0.0000 
     52 H52         5.8352   56.6027   21.2821 H         1 UNK         0.0000 
     53 H53         7.5088   56.3977   20.9068 H         1 UNK         0.0000 
     54 H54         4.7134   53.3594   19.8921 H         1 UNK         0.0000 
     55 H55         4.1827   54.8666   20.6003 H         1 UNK         0.0000 
     56 H56         5.7837   52.6368   22.0397 H         1 UNK         0.0000 
     57 H57         4.0974   53.1658   22.3522 H         1 UNK         0.0000 
     58 H58         8.8278   55.2912   19.7352 H         1 UNK         0.0000 
     59 H59        10.0349   54.7854   17.6958 H         1 UNK         0.0000 
     60 H60         6.4217   53.3780   15.8677 H         1 UNK         0.0000 
     61 H61         5.1768   53.9034   17.8948 H         1 UNK         0.0000 
     62 H62         4.8665   55.2513   23.0918 H         1 UNK         0.0000 
@<TRIPOS>BOND
     1    1    6 ar   
     2    1    2 ar   
     3    1   36 1    
     4    2    3 ar   
     5    2   37 1    
     6    3    4 ar   
     7    3   35 1    
     8    4    5 ar   
     9    4   38 1    
    10    5    6 ar   
    11    5   39 1    
    12    6    7 1    
    13    7    8 am   BACKBONE|DICT|INTERRES
    14    7   40 1    
    15    8    9 2    
    16    8   10 1    
    17   10   11 1    
    18   10   41 1    
    19   10   42 1    
    20   11   12 1    
    21   11   18 1    
    22   11   13 1    
    23   13   14 2    
    24   13   15 am   BACKBONE|DICT|INTERRES
    25   15   16 1    
    26   15   43 1    
    27   16   17 1    
    28   16   44 1    
    29   16   45 1    
    30   17   18 1    
    31   17   46 1    
    32   17   47 1    
    33   18   19 am   BACKBONE|DICT|INTERRES
    34   19   20 2    
    35   19   21 1    
    36   21   22 1    
    37   21   48 1    
    38   21   49 1    
    39   22   27 1    
    40   22   23 1    
    41   22   62 1    
    42   23   24 1    
    43   23   50 1    
    44   23   51 1    
    45   24   25 1    
    46   24   52 1    
    47   24   53 1    
    48   25   26 1    
    49   25   28 1    
    50   26   27 1    
    51   26   54 1    
    52   26   55 1    
    53   27   56 1    
    54   27   57 1    
    55   28   33 ar   
    56   28   29 ar   
    57   29   30 ar   
    58   29   58 1    
    59   30   31 ar   
    60   30   59 1    
    61   31   32 ar   
    62   31   34 1    
    63   32   33 ar   
    64   32   60 1    
    65   33   61 1    
@<TRIPOS>SUBSTRUCTURE
     1 UNK         1 GROUP             0       ****    0 ROOT    
