ZINC37525355_4290
                    3D
 Schrodinger Suite 2024-2.
 65 67  0  0  1  0            999 V2000
    2.2438   53.7932   22.0830 C   0  0  0  0  0  0
    3.3281   53.3590   23.0855 C   0  0  1  0  0  0
    3.4968   52.3119   22.8504 H   0  0  0  0  0  0
    4.6819   54.0526   22.8187 C   0  0  0  0  0  0
    5.5026   54.4920   23.8711 C   0  0  0  0  0  0
    6.7050   55.1376   23.6043 C   0  0  0  0  0  0
    7.0979   55.3517   22.2869 C   0  0  0  0  0  0
    6.3109   54.9127   21.2325 C   0  0  0  0  0  0
    5.1200   54.2498   21.4979 C   0  0  0  0  0  0
    2.9040   53.4105   24.5030 N   0  0  0  0  0  0
    1.6611   53.3510   25.0181 C   0  0  0  0  0  0
    0.6280   53.3830   24.3505 O   0  0  0  0  0  0
    1.5678   53.1953   26.5173 C   0  0  0  0  0  0
    2.2639   54.0757   27.3596 C   0  0  0  0  0  0
    2.0933   54.0168   28.7421 C   0  0  0  0  0  0
    1.2292   53.0770   29.3012 C   0  0  0  0  0  0
    0.5440   52.1862   28.4769 C   0  0  0  0  0  0
    0.7052   52.2298   27.0857 C   0  0  0  0  0  0
    0.0926   51.2737   26.2862 N   0  0  0  0  0  0
   -1.3476   51.3316   25.9876 C   0  0  0  0  0  0
   -1.6880   50.5150   24.7104 C   0  0  0  0  0  0
   -1.1911   49.0456   24.7329 C   0  0  0  0  0  0
    0.2891   49.0896   25.1603 C   0  0  0  0  0  0
    0.4834   49.8802   26.4746 C   0  0  0  0  0  0
   -1.9362   48.2198   25.6823 N   0  0  0  0  0  0
   -2.9670   47.4044   25.4334 C   0  0  0  0  0  0
   -3.2547   46.9569   24.3214 O   0  0  0  0  0  0
   -3.6455   47.1607   26.5673 N   0  0  0  0  0  0
   -4.8627   46.3658   26.7694 C   0  0  0  0  0  0
   -5.1957   46.4163   28.2738 C   0  0  0  0  0  0
   -4.6398   44.8897   26.3704 C   0  0  0  0  0  0
   -6.0531   46.9533   25.9783 C   0  0  0  0  0  0
    2.5689   53.6903   21.0527 H   0  0  0  0  0  0
    1.3578   53.1629   22.1201 H   0  0  0  0  0  0
    1.9470   54.8247   22.2650 H   0  0  0  0  0  0
    5.2235   54.3472   24.9028 H   0  0  0  0  0  0
    7.3325   55.4762   24.4152 H   0  0  0  0  0  0
    8.0322   55.8532   22.0808 H   0  0  0  0  0  0
    6.6305   55.0663   20.2123 H   0  0  0  0  0  0
    4.5592   53.8944   20.6484 H   0  0  0  0  0  0
    3.6535   53.2916   25.1666 H   0  0  0  0  0  0
    2.9207   54.8318   26.9491 H   0  0  0  0  0  0
    2.6237   54.7103   29.3782 H   0  0  0  0  0  0
    1.0925   53.0334   30.3716 H   0  0  0  0  0  0
   -0.1069   51.4449   28.9208 H   0  0  0  0  0  0
   -1.6197   52.3742   25.8147 H   0  0  0  0  0  0
   -1.9249   50.9879   26.8480 H   0  0  0  0  0  0
   -1.3002   51.0390   23.8359 H   0  0  0  0  0  0
   -2.7696   50.5218   24.5675 H   0  0  0  0  0  0
   -1.2663   48.6046   23.7361 H   0  0  0  0  0  0
    0.6799   48.0801   25.2794 H   0  0  0  0  0  0
    0.8951   49.5373   24.3703 H   0  0  0  0  0  0
    1.5014   49.7749   26.8435 H   0  0  0  0  0  0
   -0.1580   49.5438   27.2780 H   0  0  0  0  0  0
   -1.6902   48.3545   26.6633 H   0  0  0  0  0  0
   -3.2197   47.5200   27.4127 H   0  0  0  0  0  0
   -6.0849   45.8303   28.5068 H   0  0  0  0  0  0
   -5.3811   47.4363   28.6118 H   0  0  0  0  0  0
   -4.3739   46.0231   28.8743 H   0  0  0  0  0  0
   -4.4943   44.7808   25.2968 H   0  0  0  0  0  0
   -3.7657   44.4753   26.8730 H   0  0  0  0  0  0
   -5.4940   44.2695   26.6387 H   0  0  0  0  0  0
   -5.8816   46.9261   24.9015 H   0  0  0  0  0  0
   -6.9735   46.4013   26.1720 H   0  0  0  0  0  0
   -6.2315   47.9951   26.2525 H   0  0  0  0  0  0
  1  2  1  0  0  0
  1 33  1  0  0  0
  1 34  1  0  0  0
  1 35  1  0  0  0
  2  3  1  0  0  0
  2  4  1  0  0  0
  2 10  1  0  0  0
  4  9  2  0  0  0
  4  5  1  0  0  0
  5  6  2  0  0  0
  5 36  1  0  0  0
  6  7  1  0  0  0
  6 37  1  0  0  0
  7  8  2  0  0  0
  7 38  1  0  0  0
  8  9  1  0  0  0
  8 39  1  0  0  0
  9 40  1  0  0  0
 10 11  1  0  0  0
 10 41  1  0  0  0
 11 12  2  0  0  0
 11 13  1  0  0  0
 13 18  2  0  0  0
 13 14  1  0  0  0
 14 15  2  0  0  0
 14 42  1  0  0  0
 15 16  1  0  0  0
 15 43  1  0  0  0
 16 17  2  0  0  0
 16 44  1  0  0  0
 17 18  1  0  0  0
 17 45  1  0  0  0
 18 19  1  0  0  0
 19 24  1  0  0  0
 19 20  1  0  0  0
 20 21  1  0  0  0
 20 46  1  0  0  0
 20 47  1  0  0  0
 21 22  1  0  0  0
 21 48  1  0  0  0
 21 49  1  0  0  0
 22 23  1  0  0  0
 22 25  1  0  0  0
 22 50  1  0  0  0
 23 24  1  0  0  0
 23 51  1  0  0  0
 23 52  1  0  0  0
 24 53  1  0  0  0
 24 54  1  0  0  0
 25 26  1  0  0  0
 25 55  1  0  0  0
 26 27  2  0  0  0
 26 28  1  0  0  0
 28 29  1  0  0  0
 28 56  1  0  0  0
 29 30  1  0  0  0
 29 31  1  0  0  0
 29 32  1  0  0  0
 30 57  1  0  0  0
 30 58  1  0  0  0
 30 59  1  0  0  0
 31 60  1  0  0  0
 31 61  1  0  0  0
 31 62  1  0  0  0
 32 63  1  0  0  0
 32 64  1  0  0  0
 32 65  1  0  0  0
M  END
> <i_i_glide_confnum>
83

> <i_i_glide_lignum>
4291

> <i_i_glide_posenum>
179

> <i_i_glide_rotatable_bonds>
9

> <i_m_Source_File_Index>
2415

> <b_m_subgroup_collapsed>
0

> <r_i_docking_score>
-5.34536

> <r_i_glide_ecoul>
-6.71182

> <r_i_glide_eff_state_penalty>
0

> <r_i_glide_einternal>
5.19864

> <r_i_glide_emodel>
-53.1207

> <r_i_glide_energy>
-39.8211

> <r_i_glide_erotb>
0.776665

> <r_i_glide_esite>
-0.291258

> <r_i_glide_evdw>
-33.1093

> <r_i_glide_gscore>
-5.34536

> <r_i_glide_hbond>
-0.272662

> <r_i_glide_ligand_efficiency>
-0.172431

> <r_i_glide_ligand_efficiency_ln>
-1.20554

> <r_i_glide_ligand_efficiency_sa>
-0.541671

> <r_i_glide_lipo>
-2.07326

> <r_i_glide_metal>
0

> <r_i_glide_rewards>
-0.822608

> <s_i_glide_gridfile>
wee1_glide-grid

> <s_m_Source_File>
wee1_decoys_glide_SP.sdf

> <s_m_Source_Path>
/Users/zhangxujun/Desktop

> <s_m_entry_id>
2690

> <s_m_entry_name>
wee1_decoys_glide_SP.2415

> <s_m_subgroup_title>
wee1_decoys_glide_SP

> <s_m_subgroupid>
wee1_decoys_glide_SP


$$$$
