ZINC38971821_1160
                    3D
 Schrodinger Suite 2024-2.
 50 53  0  0  1  0            999 V2000
    0.8452   51.7073   29.3945 C   0  0  0  0  0  0
    1.4662   52.3883   28.1987 C   0  0  0  0  0  0
    2.5493   53.2444   28.3735 C   0  0  0  0  0  0
    3.1001   53.8926   27.2752 C   0  0  0  0  0  0
    2.5782   53.6959   25.9921 C   0  0  0  0  0  0
    1.5044   52.8004   25.7988 C   0  0  0  0  0  0
    0.9555   52.1647   26.9218 C   0  0  0  0  0  0
    0.6899   52.5002   24.2044 S   0  0  0  0  0  0
   -0.0636   51.2614   24.4404 O   0  0  0  0  0  0
   -0.1419   53.6966   24.0802 O   0  0  0  0  0  0
    2.0838   52.4174   23.1021 N   0  0  0  0  0  0
    2.0774   51.5669   22.1487 C   0  0  0  0  0  0
    3.2867   51.5511   21.1325 C   0  0  1  0  0  0
    4.1372   51.1268   21.6620 H   0  0  0  0  0  0
    3.1039   50.5712   19.9950 N   0  3  0  0  0  0
    2.0721   49.7342   19.9036 C   0  0  0  0  0  0
    1.9557   48.8288   18.8503 C   0  0  0  0  0  0
    0.8943   47.9830   18.7909 C   0  0  0  0  0  0
   -0.1553   47.9861   19.8088 C   0  0  0  0  0  0
   -0.0831   48.8563   20.8433 C   0  0  0  0  0  0
    1.0059   49.7976   20.9935 C   0  0  0  0  0  0
    1.0592   50.6274   21.9630 N   0  0  0  0  0  0
    3.6748   52.8841   20.6458 N   0  0  0  0  0  0
    4.7394   53.6536   21.1541 C   0  0  0  0  0  0
    5.4100   53.3542   22.3471 C   0  0  0  0  0  0
    6.4219   54.1821   22.8340 C   0  0  0  0  0  0
    6.8145   55.2959   22.0953 C   0  0  0  0  0  0
    6.1754   55.5951   20.8925 C   0  0  0  0  0  0
    5.1373   54.7817   20.4313 C   0  0  0  0  0  0
    6.7022   57.1294   19.8989 Br  0  0  0  0  0  0
    3.1705   54.5346   24.8791 C   0  0  0  0  0  0
   -0.1509   51.3116   29.1824 H   0  0  0  0  0  0
    1.5041   50.8968   29.6818 H   0  0  0  0  0  0
    0.7525   52.3956   30.2366 H   0  0  0  0  0  0
    2.9568   53.4188   29.3580 H   0  0  0  0  0  0
    3.9257   54.5720   27.4320 H   0  0  0  0  0  0
    0.1102   51.4990   26.8169 H   0  0  0  0  0  0
    2.7048   48.8074   18.0810 H   0  0  0  0  0  0
    0.8220   47.2943   17.9600 H   0  0  0  0  0  0
   -0.9870   47.2995   19.7306 H   0  0  0  0  0  0
   -0.8722   48.8425   21.5828 H   0  0  0  0  0  0
    3.0750   53.3239   19.9583 H   0  0  0  0  0  0
    5.1379   52.4967   22.9285 H   0  0  0  0  0  0
    6.9195   53.9468   23.7638 H   0  0  0  0  0  0
    7.6165   55.9236   22.4577 H   0  0  0  0  0  0
    4.6405   55.0345   19.5058 H   0  0  0  0  0  0
    3.8979   53.9491   24.3302 H   0  0  0  0  0  0
    2.4051   54.8971   24.1931 H   0  0  0  0  0  0
    3.6771   55.4093   25.2823 H   0  0  0  0  0  0
    3.8144   50.5482   19.2575 H   0  0  0  0  0  0
  1  2  1  0  0  0
  1 32  1  0  0  0
  1 33  1  0  0  0
  1 34  1  0  0  0
  2  7  2  0  0  0
  2  3  1  0  0  0
  3  4  2  0  0  0
  3 35  1  0  0  0
  4  5  1  0  0  0
  4 36  1  0  0  0
  5  6  2  0  0  0
  5 31  1  0  0  0
  6  7  1  0  0  0
  6  8  1  0  0  0
  7 37  1  0  0  0
  8  9  2  0  0  0
  8 10  2  0  0  0
  8 11  1  0  0  0
 11 12  2  0  0  0
 12 22  1  0  0  0
 12 13  1  0  0  0
 13 14  1  0  0  0
 13 15  1  0  0  0
 13 23  1  0  0  0
 15 16  2  0  0  0
 15 50  1  0  0  0
 16 21  1  0  0  0
 16 17  1  0  0  0
 17 18  2  0  0  0
 17 38  1  0  0  0
 18 19  1  0  0  0
 18 39  1  0  0  0
 19 20  2  0  0  0
 19 40  1  0  0  0
 20 21  1  0  0  0
 20 41  1  0  0  0
 21 22  2  0  0  0
 23 24  1  0  0  0
 23 42  1  0  0  0
 24 29  2  0  0  0
 24 25  1  0  0  0
 25 26  2  0  0  0
 25 43  1  0  0  0
 26 27  1  0  0  0
 26 44  1  0  0  0
 27 28  2  0  0  0
 27 45  1  0  0  0
 28 29  1  0  0  0
 28 30  1  0  0  0
 29 46  1  0  0  0
 31 47  1  0  0  0
 31 48  1  0  0  0
 31 49  1  0  0  0
M  CHG  1  15   1
M  END
> <i_i_glide_confnum>
1

> <i_i_glide_lignum>
1161

> <i_i_glide_posenum>
396

> <i_i_glide_rotatable_bonds>
4

> <i_m_Source_File_Index>
3892

> <b_m_subgroup_collapsed>
0

> <r_i_docking_score>
-4.63384

> <r_i_glide_ecoul>
-3.46082

> <r_i_glide_eff_state_penalty>
0

> <r_i_glide_einternal>
11.9275

> <r_i_glide_emodel>
-48.4176

> <r_i_glide_energy>
-41.296

> <r_i_glide_erotb>
0.346201

> <r_i_glide_esite>
-0.0698224

> <r_i_glide_evdw>
-37.8352

> <r_i_glide_gscore>
-4.63384

> <r_i_glide_hbond>
-0.2

> <r_i_glide_ligand_efficiency>
-0.154461

> <r_i_glide_ligand_efficiency_ln>
-1.05286

> <r_i_glide_ligand_efficiency_sa>
-0.479948

> <r_i_glide_lipo>
-2.32477

> <r_i_glide_metal>
0

> <r_i_glide_rewards>
0.0254298

> <s_i_glide_gridfile>
wee1_glide-grid

> <s_m_Source_File>
wee1_decoys_glide_SP.sdf

> <s_m_Source_Path>
/Users/zhangxujun/Desktop

> <s_m_entry_id>
4167

> <s_m_entry_name>
wee1_decoys_glide_SP.3892

> <s_m_subgroup_title>
wee1_decoys_glide_SP

> <s_m_subgroupid>
wee1_decoys_glide_SP


$$$$
