@<TRIPOS>MOLECULE
ZINC39599847_3057
66   69    1
SMALL
USER_CHARGES


@<TRIPOS>ATOM
      1 C1          6.6322   55.1488   25.1468 C.3       1 UNK         0.0000 
      2 C2          5.4461   54.5144   25.8607 C.ar      1 UNK         0.0000 
      3 C3          4.1911   54.5573   25.2532 C.ar      1 UNK         0.0000 
      4 C4          3.0796   53.9867   25.8670 C.ar      1 UNK         0.0000 
      5 C5          3.1938   53.3123   27.0913 C.ar      1 UNK         0.0000 
      6 C6          4.4582   53.2970   27.7070 C.ar      1 UNK         0.0000 
      7 C7          5.5809   53.8773   27.1031 C.ar      1 UNK         0.0000 
      8 C8          6.9230   53.8026   27.8167 C.3       1 UNK         0.0000 
      9 C9          2.0179   52.6310   27.7817 C.2       1 UNK         0.0000 
     10 O10         2.0495   52.5310   29.0119 O.2       1 UNK         0.0000 
     11 N11         0.9822   52.1038   27.0654 N.am      1 UNK         0.0000 
     12 C12        -0.0870   51.3609   27.7430 C.3       1 UNK         0.0000 
     13 C13        -0.9916   50.8373   26.6175 C.3       1 UNK         0.0000 
     14 H14        -1.2791   49.8258   26.8817 H         1 UNK         0.0000 
     15 C15        -0.1105   50.8088   25.3423 C.3       1 UNK         0.0000 
     16 C16         0.8752   51.9708   25.6034 C.3       1 UNK         0.0000 
     17 C17        -0.7720   50.9355   23.9421 C.3       1 UNK         0.0000 
     18 C18        -1.7708   49.7885   23.6885 C.3       1 UNK         0.0000 
     19 N19        -0.9995   48.4508   23.7358 N.4       1 UNK         0.0000 
     20 C20        -0.1814   48.2370   25.0278 C.3       1 UNK         0.0000 
     21 C21         0.7050   49.4794   25.2656 C.3       1 UNK         0.0000 
     22 C22        -2.3029   51.6477   26.5434 C.2       1 UNK         0.0000 
     23 O23        -2.3260   52.7865   26.0724 O.2       1 UNK         0.0000 
     24 N24        -3.3902   51.0156   27.0114 N.am      1 UNK         0.0000 
     25 C25        -4.7368   51.5745   27.1162 C.3       1 UNK         0.0000 
     26 C26        -5.4342   51.2852   28.4465 C.ar      1 UNK         0.0000 
     27 C27        -4.7200   50.8967   29.5895 C.ar      1 UNK         0.0000 
     28 C28        -5.3918   50.5988   30.7717 C.ar      1 UNK         0.0000 
     29 C29        -6.7900   50.6784   30.8215 C.ar      1 UNK         0.0000 
     30 C30        -7.4977   51.0553   29.6816 C.ar      1 UNK         0.0000 
     31 C31        -6.8280   51.3600   28.5013 C.ar      1 UNK         0.0000 
     32 O32        -7.5385   50.3712   31.9365 O.3       1 UNK         0.0000 
     33 C33        -7.0017   50.6063   33.2329 C.3       1 UNK         0.0000 
     34 F34        -6.4991   51.8374   33.3475 F         1 UNK         0.0000 
     35 F35        -6.0952   49.6909   33.5669 F         1 UNK         0.0000 
     36 F36        -8.0203   50.5022   34.0821 F         1 UNK         0.0000 
     37 H37         6.4227   55.3335   24.0917 H         1 UNK         0.0000 
     38 H38         6.8990   56.0915   25.6237 H         1 UNK         0.0000 
     39 H39         7.4998   54.4916   25.1754 H         1 UNK         0.0000 
     40 H40         4.0666   55.0502   24.3002 H         1 UNK         0.0000 
     41 H41         2.1307   54.0993   25.3690 H         1 UNK         0.0000 
     42 H42         4.5831   52.8007   28.6577 H         1 UNK         0.0000 
     43 H43         7.5044   52.9604   27.4399 H         1 UNK         0.0000 
     44 H44         7.4991   54.7180   27.6781 H         1 UNK         0.0000 
     45 H45         6.7953   53.6862   28.8919 H         1 UNK         0.0000 
     46 H46        -0.6277   51.9226   28.5067 H         1 UNK         0.0000 
     47 H47         0.3453   50.4968   28.2449 H         1 UNK         0.0000 
     48 H48         1.8033   51.8254   25.0471 H         1 UNK         0.0000 
     49 H49         0.3717   52.8641   25.2320 H         1 UNK         0.0000 
     50 H50        -1.3092   51.8828   23.8638 H         1 UNK         0.0000 
     51 H51        -0.0164   50.9757   23.1544 H         1 UNK         0.0000 
     52 H52        -2.5608   49.7255   24.4377 H         1 UNK         0.0000 
     53 H53        -2.2245   49.8483   22.6980 H         1 UNK         0.0000 
     54 H54        -1.6459   47.6836   23.6088 H         1 UNK         0.0000 
     55 H55        -0.8903   48.0290   25.8305 H         1 UNK         0.0000 
     56 H56         0.4147   47.3381   24.8743 H         1 UNK         0.0000 
     57 H57         1.4819   49.5344   24.4993 H         1 UNK         0.0000 
     58 H58         1.2450   49.3093   26.1990 H         1 UNK         0.0000 
     59 H59        -3.2829   50.0559   27.3163 H         1 UNK         0.0000 
     60 H60        -5.3264   51.1455   26.3042 H         1 UNK         0.0000 
     61 H61        -4.7475   52.6533   26.9426 H         1 UNK         0.0000 
     62 H62        -3.6412   50.8118   29.5737 H         1 UNK         0.0000 
     63 H63        -4.8122   50.2958   31.6313 H         1 UNK         0.0000 
     64 H64        -8.5754   51.1042   29.7151 H         1 UNK         0.0000 
     65 H65        -7.3996   51.6431   27.6285 H         1 UNK         0.0000 
     66 H66        -0.3636   48.4301   22.9490 H         1 UNK         0.0000 
@<TRIPOS>BOND
     1    1    2 1    
     2    1   37 1    
     3    1   38 1    
     4    1   39 1    
     5    2    7 ar   
     6    2    3 ar   
     7    3    4 ar   
     8    3   40 1    
     9    4    5 ar   
    10    4   41 1    
    11    5    6 ar   
    12    5    9 1    
    13    6    7 ar   
    14    6   42 1    
    15    7    8 1    
    16    8   43 1    
    17    8   44 1    
    18    8   45 1    
    19    9   10 2    
    20    9   11 am   BACKBONE|DICT|INTERRES
    21   11   16 1    
    22   11   12 1    
    23   12   13 1    
    24   12   46 1    
    25   12   47 1    
    26   13   14 1    
    27   13   15 1    
    28   13   22 1    
    29   15   21 1    
    30   15   16 1    
    31   15   17 1    
    32   16   48 1    
    33   16   49 1    
    34   17   18 1    
    35   17   50 1    
    36   17   51 1    
    37   18   19 1    
    38   18   52 1    
    39   18   53 1    
    40   19   20 1    
    41   19   54 1    
    42   19   66 1    
    43   20   21 1    
    44   20   55 1    
    45   20   56 1    
    46   21   57 1    
    47   21   58 1    
    48   22   23 2    
    49   22   24 am   BACKBONE|DICT|INTERRES
    50   24   25 1    
    51   24   59 1    
    52   25   26 1    
    53   25   60 1    
    54   25   61 1    
    55   26   31 ar   
    56   26   27 ar   
    57   27   28 ar   
    58   27   62 1    
    59   28   29 ar   
    60   28   63 1    
    61   29   30 ar   
    62   29   32 1    
    63   30   31 ar   
    64   30   64 1    
    65   31   65 1    
    66   32   33 1    
    67   33   34 1    
    68   33   35 1    
    69   33   36 1    
@<TRIPOS>SUBSTRUCTURE
     1 UNK         1 GROUP             0       ****    0 ROOT    
