@<TRIPOS>MOLECULE
ZINC25852159_2762
56   60    1
SMALL
USER_CHARGES


@<TRIPOS>ATOM
      1 C1          5.3702   54.8538   19.1683 C.3       1 UNK         0.0000 
      2 C2          5.5049   54.7309   20.6805 C.ar      1 UNK         0.0000 
      3 C3          6.5687   55.3636   21.3278 C.ar      1 UNK         0.0000 
      4 C4          6.7044   55.2737   22.7128 C.ar      1 UNK         0.0000 
      5 C5          5.7837   54.5491   23.4805 C.ar      1 UNK         0.0000 
      6 C6          4.7376   53.8897   22.8282 C.ar      1 UNK         0.0000 
      7 C7          4.5924   53.9826   21.4402 C.ar      1 UNK         0.0000 
      8 N8          3.5162   53.3409   20.8232 N.am      1 UNK         0.0000 
      9 C9          3.4777   52.0146   20.5934 C.2       1 UNK         0.0000 
     10 O10         4.3624   51.2434   20.9614 O.2       1 UNK         0.0000 
     11 C11         2.2359   51.4596   19.8602 C.3       1 UNK         0.0000 
     12 H12         2.4399   50.3949   19.7302 H         1 UNK         0.0000 
     13 C13         2.0961   52.1494   18.4624 C.3       1 UNK         0.0000 
     14 C14         0.7854   51.7487   17.7449 C.2       1 UNK         0.0000 
     15 O15         0.6492   51.6957   16.5265 O.2       1 UNK         0.0000 
     16 N16        -0.2463   51.5448   18.5869 N.am      1 UNK         0.0000 
     17 C17        -0.2564   51.6160   19.9836 C.ar      1 UNK         0.0000 
     18 C18         0.9532   51.6204   20.6983 C.ar      1 UNK         0.0000 
     19 C19         0.8899   51.6039   22.1037 C.ar      1 UNK         0.0000 
     20 C20        -0.3345   51.6648   22.7692 C.ar      1 UNK         0.0000 
     21 C21        -1.5205   51.6969   22.0406 C.ar      1 UNK         0.0000 
     22 C22        -1.4832   51.6625   20.6477 C.ar      1 UNK         0.0000 
     23 F23        -2.7076   51.7571   22.6832 F         1 UNK         0.0000 
     24 C24         5.9379   54.5045   24.9698 C.ar      1 UNK         0.0000 
     25 N25         7.1044   54.4947   25.5573 N.2       1 UNK         0.0000 
     26 N26         6.8978   54.4244   26.9253 N.2       1 UNK         0.0000 
     27 C27         5.6071   54.4398   27.1218 C.ar      1 UNK         0.0000 
     28 N28         4.9328   54.5223   25.9202 N.pl3     1 UNK         0.0000 
     29 C29         3.5045   54.7556   25.7760 C.3       1 UNK         0.0000 
     30 C30         2.6292   53.6000   26.2900 C.3       1 UNK         0.0000 
     31 C31         2.5440   53.4798   27.8262 C.3       1 UNK         0.0000 
     32 C32         3.8691   53.2240   28.5723 C.3       1 UNK         0.0000 
     33 C33         4.9227   54.3459   28.4726 C.3       1 UNK         0.0000 
     34 H34         6.1671   55.4527   18.7250 H         1 UNK         0.0000 
     35 H35         5.3912   53.8635   18.7101 H         1 UNK         0.0000 
     36 H36         4.4133   55.3101   18.9102 H         1 UNK         0.0000 
     37 H37         7.2909   55.9334   20.7622 H         1 UNK         0.0000 
     38 H38         7.5044   55.8014   23.2032 H         1 UNK         0.0000 
     39 H39         4.0337   53.2987   23.3972 H         1 UNK         0.0000 
     40 H40         2.7614   53.9230   20.4832 H         1 UNK         0.0000 
     41 H41         2.9280   51.8943   17.8018 H         1 UNK         0.0000 
     42 H42         1.9910   53.2313   18.5574 H         1 UNK         0.0000 
     43 H43        -1.1127   51.3646   18.1056 H         1 UNK         0.0000 
     44 H44         1.7929   51.5404   22.6933 H         1 UNK         0.0000 
     45 H45        -0.3641   51.6686   23.8490 H         1 UNK         0.0000 
     46 H46        -2.4089   51.6592   20.0918 H         1 UNK         0.0000 
     47 H47         3.3015   55.6646   26.3424 H         1 UNK         0.0000 
     48 H48         3.2714   55.0031   24.7424 H         1 UNK         0.0000 
     49 H49         1.6182   53.7393   25.9045 H         1 UNK         0.0000 
     50 H50         2.9706   52.6592   25.8576 H         1 UNK         0.0000 
     51 H51         2.0778   54.3820   28.2264 H         1 UNK         0.0000 
     52 H52         1.8548   52.6676   28.0657 H         1 UNK         0.0000 
     53 H53         3.6346   53.0730   29.6266 H         1 UNK         0.0000 
     54 H54         4.3086   52.2840   28.2366 H         1 UNK         0.0000 
     55 H55         5.6762   54.1824   29.2438 H         1 UNK         0.0000 
     56 H56         4.4626   55.2967   28.7363 H         1 UNK         0.0000 
@<TRIPOS>BOND
     1    1    2 1    
     2    1   34 1    
     3    1   35 1    
     4    1   36 1    
     5    2    7 ar   
     6    2    3 ar   
     7    3    4 ar   
     8    3   37 1    
     9    4    5 ar   
    10    4   38 1    
    11    5    6 ar   
    12    5   24 1    
    13    6    7 ar   
    14    6   39 1    
    15    7    8 1    
    16    8    9 am   BACKBONE|DICT|INTERRES
    17    8   40 1    
    18    9   10 2    
    19    9   11 1    
    20   11   12 1    
    21   11   18 1    
    22   11   13 1    
    23   13   14 1    
    24   13   41 1    
    25   13   42 1    
    26   14   15 2    
    27   14   16 am   BACKBONE|DICT|INTERRES
    28   16   17 1    
    29   16   43 1    
    30   17   22 ar   
    31   17   18 ar   
    32   18   19 ar   
    33   19   20 ar   
    34   19   44 1    
    35   20   21 ar   
    36   20   45 1    
    37   21   22 ar   
    38   21   23 1    
    39   22   46 1    
    40   24   28 ar   
    41   24   25 ar   
    42   25   26 ar   
    43   26   27 ar   
    44   27   33 1    
    45   27   28 ar   
    46   28   29 1    
    47   29   30 1    
    48   29   47 1    
    49   29   48 1    
    50   30   31 1    
    51   30   49 1    
    52   30   50 1    
    53   31   32 1    
    54   31   51 1    
    55   31   52 1    
    56   32   33 1    
    57   32   53 1    
    58   32   54 1    
    59   33   55 1    
    60   33   56 1    
@<TRIPOS>SUBSTRUCTURE
     1 UNK         1 GROUP             0       ****    0 ROOT    
