ZINC39676774_899
                    3D
 Schrodinger Suite 2024-2.
 76 80  0  0  1  0            999 V2000
    7.2301   53.8329   28.2270 C   0  0  0  0  0  0
    5.8009   53.9696   27.7590 C   0  0  0  0  0  0
    5.5372   54.3930   26.4561 C   0  0  0  0  0  0
    4.2252   54.4480   26.0025 C   0  0  0  0  0  0
    3.1793   54.0608   26.8411 C   0  0  0  0  0  0
    3.4424   53.7081   28.1687 C   0  0  0  0  0  0
    4.7526   53.6635   28.6304 C   0  0  0  0  0  0
    1.9047   54.0565   26.3213 O   0  0  0  0  0  0
    1.1623   52.8980   26.3789 C   0  0  0  0  0  0
    0.9980   52.0495   25.2640 C   0  0  0  0  0  0
    0.3040   50.8471   25.4880 C   0  0  0  0  0  0
   -0.3011   50.6020   26.7161 C   0  0  0  0  0  0
   -0.1602   51.5378   27.7337 C   0  0  0  0  0  0
    0.5658   52.6692   27.5812 N   0  0  0  0  0  0
    1.5938   52.3742   23.9041 C   0  0  0  0  0  0
    2.7043   52.8970   23.8374 O   0  0  0  0  0  0
    0.9039   52.0598   22.7766 N   0  0  0  0  0  0
   -0.5007   51.6752   22.7147 C   0  0  0  0  0  0
   -0.8693   51.8417   21.2215 C   0  0  1  0  0  0
   -1.2040   52.8691   21.1183 H   0  0  0  0  0  0
    0.4640   51.5531   20.4687 C   0  0  0  0  0  0
    1.4735   52.2235   21.4387 C   0  0  0  0  0  0
    0.7543   50.0274   20.2911 C   0  0  0  0  0  0
    2.1653   49.7555   19.7186 C   0  0  0  0  0  0
    2.3046   50.4971   18.3691 N   0  3  0  0  0  0
    1.9247   51.9965   18.4149 C   0  0  0  0  0  0
    0.5163   52.1355   19.0348 C   0  0  0  0  0  0
   -2.0969   50.9527   20.8644 C   0  0  0  0  0  0
   -2.6704   51.1446   19.7940 O   0  0  0  0  0  0
   -2.5325   50.0596   21.7737 N   0  0  0  0  0  0
   -3.6738   49.1445   21.7306 C   0  0  2  0  0  0
   -3.5142   48.4984   20.8634 H   0  0  0  0  0  0
   -5.0216   49.8777   21.5696 C   0  0  0  0  0  0
   -3.7035   48.2388   22.9738 C   0  0  0  0  0  0
   -3.1163   48.6248   24.1908 C   0  0  0  0  0  0
   -3.1264   47.7706   25.2911 C   0  0  0  0  0  0
   -3.7290   46.5193   25.1920 C   0  0  0  0  0  0
   -4.3242   46.1059   23.9988 C   0  0  0  0  0  0
   -4.2996   46.9731   22.8909 C   0  0  0  0  0  0
   -4.8953   44.8472   24.0005 O   0  0  0  0  0  0
   -5.5952   44.4039   22.8426 C   0  0  0  0  0  0
    7.5600   52.8038   28.0823 H   0  0  0  0  0  0
    7.8974   54.4984   27.6812 H   0  0  0  0  0  0
    7.3220   54.0955   29.2804 H   0  0  0  0  0  0
    6.3439   54.6470   25.7837 H   0  0  0  0  0  0
    4.0178   54.7515   24.9869 H   0  0  0  0  0  0
    2.6408   53.4485   28.8418 H   0  0  0  0  0  0
    4.9420   53.3686   29.6557 H   0  0  0  0  0  0
    0.2309   50.0789   24.7355 H   0  0  0  0  0  0
   -0.8640   49.6967   26.8817 H   0  0  0  0  0  0
   -0.6192   51.3716   28.6998 H   0  0  0  0  0  0
   -1.1518   52.2753   23.3537 H   0  0  0  0  0  0
   -0.5139   50.6175   22.9645 H   0  0  0  0  0  0
    2.5088   51.9007   21.3276 H   0  0  0  0  0  0
    1.4833   53.2965   21.2386 H   0  0  0  0  0  0
    0.7019   49.5290   21.2591 H   0  0  0  0  0  0
   -0.0070   49.5426   19.6777 H   0  0  0  0  0  0
    2.9812   50.1023   20.3535 H   0  0  0  0  0  0
    2.3326   48.7003   19.5002 H   0  0  0  0  0  0
    3.2582   50.3833   18.0202 H   0  0  0  0  0  0
    2.7049   52.5033   18.9865 H   0  0  0  0  0  0
    1.9628   52.3501   17.3836 H   0  0  0  0  0  0
   -0.2546   51.7029   18.3972 H   0  0  0  0  0  0
    0.2994   53.2041   19.0740 H   0  0  0  0  0  0
   -1.9233   49.8881   22.5574 H   0  0  0  0  0  0
   -5.8514   49.1725   21.5150 H   0  0  0  0  0  0
   -5.2116   50.5448   22.4118 H   0  0  0  0  0  0
   -5.0523   50.4778   20.6600 H   0  0  0  0  0  0
   -2.6557   49.5956   24.3069 H   0  0  0  0  0  0
   -2.6763   48.0781   26.2255 H   0  0  0  0  0  0
   -3.7444   45.8727   26.0585 H   0  0  0  0  0  0
   -4.7461   46.6728   21.9568 H   0  0  0  0  0  0
   -5.9953   43.4071   23.0272 H   0  0  0  0  0  0
   -6.4362   45.0585   22.6050 H   0  0  0  0  0  0
   -4.9362   44.3382   21.9749 H   0  0  0  0  0  0
    1.7257   50.0346   17.6807 H   0  0  0  0  0  0
  1  2  1  0  0  0
  1 42  1  0  0  0
  1 43  1  0  0  0
  1 44  1  0  0  0
  2  7  2  0  0  0
  2  3  1  0  0  0
  3  4  2  0  0  0
  3 45  1  0  0  0
  4  5  1  0  0  0
  4 46  1  0  0  0
  5  6  2  0  0  0
  5  8  1  0  0  0
  6  7  1  0  0  0
  6 47  1  0  0  0
  7 48  1  0  0  0
  8  9  1  0  0  0
  9 14  2  0  0  0
  9 10  1  0  0  0
 10 11  2  0  0  0
 10 15  1  0  0  0
 11 12  1  0  0  0
 11 49  1  0  0  0
 12 13  2  0  0  0
 12 50  1  0  0  0
 13 14  1  0  0  0
 13 51  1  0  0  0
 15 16  2  0  0  0
 15 17  1  0  0  0
 17 22  1  0  0  0
 17 18  1  0  0  0
 18 19  1  0  0  0
 18 52  1  0  0  0
 18 53  1  0  0  0
 19 20  1  0  0  0
 19 21  1  0  0  0
 19 28  1  0  0  0
 21 27  1  0  0  0
 21 22  1  0  0  0
 21 23  1  0  0  0
 22 54  1  0  0  0
 22 55  1  0  0  0
 23 24  1  0  0  0
 23 56  1  0  0  0
 23 57  1  0  0  0
 24 25  1  0  0  0
 24 58  1  0  0  0
 24 59  1  0  0  0
 25 26  1  0  0  0
 25 60  1  0  0  0
 25 76  1  0  0  0
 26 27  1  0  0  0
 26 61  1  0  0  0
 26 62  1  0  0  0
 27 63  1  0  0  0
 27 64  1  0  0  0
 28 29  2  0  0  0
 28 30  1  0  0  0
 30 31  1  0  0  0
 30 65  1  0  0  0
 31 32  1  0  0  0
 31 33  1  0  0  0
 31 34  1  0  0  0
 33 66  1  0  0  0
 33 67  1  0  0  0
 33 68  1  0  0  0
 34 39  2  0  0  0
 34 35  1  0  0  0
 35 36  2  0  0  0
 35 69  1  0  0  0
 36 37  1  0  0  0
 36 70  1  0  0  0
 37 38  2  0  0  0
 37 71  1  0  0  0
 38 39  1  0  0  0
 38 40  1  0  0  0
 39 72  1  0  0  0
 40 41  1  0  0  0
 41 73  1  0  0  0
 41 74  1  0  0  0
 41 75  1  0  0  0
M  CHG  1  25   1
M  END
> <i_i_glide_confnum>
376

> <i_i_glide_lignum>
900

> <i_i_glide_posenum>
303

> <i_i_glide_rotatable_bonds>
9

> <i_m_Source_File_Index>
5928

> <b_m_subgroup_collapsed>
0

> <r_i_docking_score>
-5.14094

> <r_i_glide_ecoul>
-7.29823

> <r_i_glide_eff_state_penalty>
0

> <r_i_glide_einternal>
21.8521

> <r_i_glide_emodel>
-51.2467

> <r_i_glide_energy>
-44.2669

> <r_i_glide_erotb>
0.587717

> <r_i_glide_esite>
-0.103656

> <r_i_glide_evdw>
-36.9687

> <r_i_glide_gscore>
-5.14094

> <r_i_glide_hbond>
-0.346938

> <r_i_glide_ligand_efficiency>
-0.131819

> <r_i_glide_ligand_efficiency_ln>
-1.10236

> <r_i_glide_ligand_efficiency_sa>
-0.447026

> <r_i_glide_lipo>
-1.94806

> <r_i_glide_metal>
0

> <r_i_glide_rewards>
-0.38684

> <s_i_glide_gridfile>
wee1_glide-grid

> <s_m_Source_File>
wee1_decoys_glide_SP.sdf

> <s_m_Source_Path>
/Users/zhangxujun/Desktop

> <s_m_entry_id>
6203

> <s_m_entry_name>
wee1_decoys_glide_SP.5928

> <s_m_subgroup_title>
wee1_decoys_glide_SP

> <s_m_subgroupid>
wee1_decoys_glide_SP


$$$$
