ZINC06296790_4623
                    3D
 Schrodinger Suite 2024-2.
 50 53  0  0  1  0            999 V2000
    5.7051   54.0443   24.2119 C   0  0  0  0  0  0
    6.2199   54.0972   25.5009 C   0  0  0  0  0  0
    5.3698   54.2711   26.5971 C   0  0  0  0  0  0
    4.0080   54.4962   26.3657 C   0  0  0  0  0  0
    3.5018   54.4662   25.0702 C   0  0  0  0  0  0
    4.3302   54.1820   23.9821 C   0  0  0  0  0  0
    3.7104   54.0065   22.5751 C   0  0  1  0  0  0
    3.0169   54.8349   22.4217 H   0  0  0  0  0  0
    4.6839   53.9324   21.4227 C   0  0  0  0  0  0
    4.6336   52.6848   20.9628 C   0  0  0  0  0  0
    3.5618   51.9057   21.5373 C   0  0  0  0  0  0
    3.2266   50.7494   21.2558 O   0  0  0  0  0  0
    2.9743   52.7232   22.4557 N   0  0  0  0  0  0
    1.8189   52.3450   23.1961 C   0  0  0  0  0  0
    0.8287   53.2965   23.4453 C   0  0  0  0  0  0
   -0.3080   52.9570   24.1743 C   0  0  0  0  0  0
   -0.4503   51.6748   24.6987 C   0  0  0  0  0  0
    0.5151   50.7057   24.4400 C   0  0  0  0  0  0
    1.6334   51.0368   23.6813 C   0  0  0  0  0  0
   -1.8579   51.2683   25.7264 S   0  0  0  0  0  0
   -2.6626   52.4846   25.8880 O   0  0  0  0  0  0
   -2.4332   50.0327   25.1877 O   0  0  0  0  0  0
   -1.1704   50.8967   27.2823 N   0  0  0  0  0  0
    5.3828   52.1367   20.0819 O   0  5  0  0  0  0
    5.5525   55.0175   20.9357 C   0  0  0  0  0  0
    6.3046   55.6148   21.7077 O   0  0  0  0  0  0
    5.5049   55.3939   19.4797 C   0  0  0  0  0  0
    4.4381   55.0038   18.6529 C   0  0  0  0  0  0
    4.3930   55.4051   17.3212 C   0  0  0  0  0  0
    5.4084   56.2050   16.8046 C   0  0  0  0  0  0
    6.4696   56.6068   17.6114 C   0  0  0  0  0  0
    6.5172   56.2038   18.9431 C   0  0  0  0  0  0
    5.3492   56.7040   15.1538 Cl  0  0  0  0  0  0
    5.8956   54.1641   27.9768 N   0  3  0  0  0  0
    5.1644   54.4967   28.9059 O   0  0  0  0  0  0
    7.0271   53.7114   28.1313 O   0  5  0  0  0  0
    6.3879   53.8201   23.4071 H   0  0  0  0  0  0
    7.2762   53.9321   25.6415 H   0  0  0  0  0  0
    3.3273   54.6541   27.1902 H   0  0  0  0  0  0
    2.4456   54.6121   24.9253 H   0  0  0  0  0  0
    0.9365   54.3020   23.0683 H   0  0  0  0  0  0
   -1.0702   53.6968   24.3541 H   0  0  0  0  0  0
    0.4082   49.7053   24.8361 H   0  0  0  0  0  0
    2.3734   50.2681   23.5141 H   0  0  0  0  0  0
   -1.4013   51.5626   28.0196 H   0  0  0  0  0  0
   -1.2957   49.9116   27.5794 H   0  0  0  0  0  0
    3.6266   54.3966   19.0298 H   0  0  0  0  0  0
    3.5692   55.0973   16.6934 H   0  0  0  0  0  0
    7.2526   57.2305   17.2063 H   0  0  0  0  0  0
    7.3515   56.5242   19.5507 H   0  0  0  0  0  0
  1  6  2  0  0  0
  1  2  1  0  0  0
  1 37  1  0  0  0
  2  3  2  0  0  0
  2 38  1  0  0  0
  3  4  1  0  0  0
  3 34  1  0  0  0
  4  5  2  0  0  0
  4 39  1  0  0  0
  5  6  1  0  0  0
  5 40  1  0  0  0
  6  7  1  0  0  0
  7  8  1  0  0  0
  7 13  1  0  0  0
  7  9  1  0  0  0
  9 10  2  0  0  0
  9 25  1  0  0  0
 10 11  1  0  0  0
 10 24  1  0  0  0
 11 12  2  0  0  0
 11 13  1  0  0  0
 13 14  1  0  0  0
 14 19  2  0  0  0
 14 15  1  0  0  0
 15 16  2  0  0  0
 15 41  1  0  0  0
 16 17  1  0  0  0
 16 42  1  0  0  0
 17 18  2  0  0  0
 17 20  1  0  0  0
 18 19  1  0  0  0
 18 43  1  0  0  0
 19 44  1  0  0  0
 20 21  2  0  0  0
 20 22  2  0  0  0
 20 23  1  0  0  0
 23 45  1  0  0  0
 23 46  1  0  0  0
 25 26  2  0  0  0
 25 27  1  0  0  0
 27 32  2  0  0  0
 27 28  1  0  0  0
 28 29  2  0  0  0
 28 47  1  0  0  0
 29 30  1  0  0  0
 29 48  1  0  0  0
 30 31  2  0  0  0
 30 33  1  0  0  0
 31 32  1  0  0  0
 31 49  1  0  0  0
 32 50  1  0  0  0
 34 35  2  0  0  0
 34 36  1  0  0  0
M  CHG  3  24  -1  34   1  36  -1
M  END
> <i_i_glide_confnum>
20

> <i_i_glide_lignum>
4624

> <i_i_glide_posenum>
348

> <i_i_glide_rotatable_bonds>
6

> <i_m_Source_File_Index>
909

> <b_m_subgroup_collapsed>
0

> <r_i_docking_score>
-5.71733

> <r_i_glide_ecoul>
-3.78479

> <r_i_glide_eff_state_penalty>
0

> <r_i_glide_einternal>
10.1475

> <r_i_glide_emodel>
-57.3127

> <r_i_glide_energy>
-47.4164

> <r_i_glide_erotb>
0.311748

> <r_i_glide_esite>
-0.171471

> <r_i_glide_evdw>
-43.6316

> <r_i_glide_gscore>
-5.71733

> <r_i_glide_hbond>
-0.170547

> <r_i_glide_ligand_efficiency>
-0.163352

> <r_i_glide_ligand_efficiency_ln>
-1.25508

> <r_i_glide_ligand_efficiency_sa>
-0.534336

> <r_i_glide_lipo>
-2.74033

> <r_i_glide_metal>
0

> <r_i_glide_rewards>
-0.197435

> <s_i_glide_gridfile>
wee1_glide-grid

> <s_m_Source_File>
wee1_decoys_glide_SP.sdf

> <s_m_Source_Path>
/Users/zhangxujun/Desktop

> <s_m_entry_id>
1184

> <s_m_entry_name>
wee1_decoys_glide_SP.909

> <s_m_subgroup_title>
wee1_decoys_glide_SP

> <s_m_subgroupid>
wee1_decoys_glide_SP


$$$$
