@<TRIPOS>MOLECULE
ZINC12561594_1138
55   59    1
SMALL
USER_CHARGES


@<TRIPOS>ATOM
      1 C1          5.6187   55.1962   19.9708 C.ar      1 UNK         0.0000 
      2 C2          6.7851   55.5627   20.6381 C.ar      1 UNK         0.0000 
      3 C3          6.9538   55.2185   21.9775 C.ar      1 UNK         0.0000 
      4 C4          5.9631   54.4967   22.6536 C.ar      1 UNK         0.0000 
      5 C5          4.7765   54.1364   21.9898 C.ar      1 UNK         0.0000 
      6 C6          4.6184   54.4964   20.6457 C.ar      1 UNK         0.0000 
      7 C7          3.6951   53.4443   22.7249 C.2       1 UNK         0.0000 
      8 C8          3.0855   52.2655   22.4301 C.2       1 UNK         0.0000 
      9 C9          3.5137   51.4452   21.2037 C.3       1 UNK         0.0000 
     10 C10         2.3934   50.5012   20.7451 C.3       1 UNK         0.0000 
     11 C11         1.9037   49.6139   21.8984 C.3       1 UNK         0.0000 
     12 C12         1.4833   50.4634   23.0987 C.2       1 UNK         0.0000 
     13 C13         2.0498   51.6884   23.3228 C.2       1 UNK         0.0000 
     14 N14         1.6794   52.3551   24.4831 N.pl3     1 UNK         0.0000 
     15 C15         0.9527   51.8089   25.4596 C.ar      1 UNK         0.0000 
     16 N16         0.8775   52.2453   26.7098 N.2       1 UNK         0.0000 
     17 C17         0.3028   51.2963   27.3440 C.ar      1 UNK         0.0000 
     18 N18         0.0249   50.2131   26.4822 N.pl3     1 UNK         0.0000 
     19 N19         0.3046   50.6803   25.2429 N.pl3     1 UNK         0.0000 
     20 C20         0.5001   49.8005   24.0908 C.3       1 UNK         0.0000 
     21 H21         0.9732   48.8922   24.4682 H         1 UNK         0.0000 
     22 C22        -0.8534   49.4347   23.4780 C.ar      1 UNK         0.0000 
     23 C23        -1.2612   48.0964   23.4767 C.ar      1 UNK         0.0000 
     24 C24        -2.4883   47.7327   22.9249 C.ar      1 UNK         0.0000 
     25 C25        -3.3187   48.7041   22.3696 C.ar      1 UNK         0.0000 
     26 C26        -2.9256   50.0415   22.3735 C.ar      1 UNK         0.0000 
     27 C27        -1.7028   50.4196   22.9384 C.ar      1 UNK         0.0000 
     28 O28        -1.3116   51.7405   22.9352 O.3       1 UNK         0.0000 
     29 C29        -2.0636   52.6327   23.7566 C.3       1 UNK         0.0000 
     30 F30        -3.2867   52.8587   23.2855 F         1 UNK         0.0000 
     31 F31        -2.1164   52.2549   25.0340 F         1 UNK         0.0000 
     32 O32         6.1948   54.0975   23.9485 O.3       1 UNK         0.0000 
     33 C33         6.0367   55.1034   24.9404 C.3       1 UNK         0.0000 
     34 F34         4.7986   55.0787   25.4336 F         1 UNK         0.0000 
     35 F35         6.9079   54.8911   25.9252 F         1 UNK         0.0000 
     36 H36         5.4812   55.4648   18.9331 H         1 UNK         0.0000 
     37 H37         7.5640   56.0971   20.1133 H         1 UNK         0.0000 
     38 H38         7.8719   55.4827   22.4818 H         1 UNK         0.0000 
     39 H39         3.7020   54.2639   20.1208 H         1 UNK         0.0000 
     40 H40         3.3856   53.9904   23.6019 H         1 UNK         0.0000 
     41 H41         3.7592   52.0730   20.3509 H         1 UNK         0.0000 
     42 H42         4.4289   50.8965   21.4222 H         1 UNK         0.0000 
     43 H43         1.5586   51.0848   20.3522 H         1 UNK         0.0000 
     44 H44         2.7463   49.8821   19.9179 H         1 UNK         0.0000 
     45 H45         1.0803   48.9843   21.5599 H         1 UNK         0.0000 
     46 H46         2.6910   48.9194   22.1975 H         1 UNK         0.0000 
     47 H47         0.0367   51.3168   28.3994 H         1 UNK         0.0000 
     48 H48        -0.7026   49.5118   26.6024 H         1 UNK         0.0000 
     49 H49        -0.6270   47.3316   23.9017 H         1 UNK         0.0000 
     50 H50        -2.7954   46.6974   22.9248 H         1 UNK         0.0000 
     51 H51        -4.2677   48.4220   21.9373 H         1 UNK         0.0000 
     52 H52        -3.5746   50.7846   21.9353 H         1 UNK         0.0000 
     53 H53        -1.5614   53.5997   23.7533 H         1 UNK         0.0000 
     54 H54         6.2410   56.1130   24.5772 H         1 UNK         0.0000 
     55 H55         2.1341   53.2305   24.6930 H         1 UNK         0.0000 
@<TRIPOS>BOND
     1    1    6 ar   
     2    1    2 ar   
     3    1   36 1    
     4    2    3 ar   
     5    2   37 1    
     6    3    4 ar   
     7    3   38 1    
     8    4    5 ar   
     9    4   32 1    
    10    5    6 ar   
    11    5    7 1    
    12    6   39 1    
    13    7    8 2    
    14    7   40 1    
    15    8   13 1    
    16    8    9 1    
    17    9   10 1    
    18    9   41 1    
    19    9   42 1    
    20   10   11 1    
    21   10   43 1    
    22   10   44 1    
    23   11   12 1    
    24   11   45 1    
    25   11   46 1    
    26   12   20 1    
    27   12   13 2    
    28   13   14 1    
    29   14   15 2    
    30   14   55 1    
    31   15   19 ar   
    32   15   16 ar   
    33   16   17 ar   
    34   17   18 ar   
    35   17   47 1    
    36   18   19 1    
    37   18   48 1    
    38   19   20 1    
    39   20   21 1    
    40   20   22 1    
    41   22   27 ar   
    42   22   23 ar   
    43   23   24 ar   
    44   23   49 1    
    45   24   25 ar   
    46   24   50 1    
    47   25   26 ar   
    48   25   51 1    
    49   26   27 ar   
    50   26   52 1    
    51   27   28 1    
    52   28   29 1    
    53   29   30 1    
    54   29   31 1    
    55   29   53 1    
    56   32   33 1    
    57   33   34 1    
    58   33   35 1    
    59   33   54 1    
@<TRIPOS>SUBSTRUCTURE
     1 UNK         1 GROUP             0       ****    0 ROOT    
