@<TRIPOS>MOLECULE
ZINC20701260_3568
40   43    1
SMALL
USER_CHARGES


@<TRIPOS>ATOM
      1 C1         -5.8244   48.5540   26.3752 C.ar      1 UNK         0.0000 
      2 C2         -4.8918   47.5267   26.3127 C.ar      1 UNK         0.0000 
      3 C3         -3.5550   47.8153   26.0706 C.ar      1 UNK         0.0000 
      4 C4         -3.1517   49.1409   25.8319 C.ar      1 UNK         0.0000 
      5 C5         -4.1048   50.1990   25.8365 C.ar      1 UNK         0.0000 
      6 C6         -5.4407   49.8844   26.1757 C.ar      1 UNK         0.0000 
      7 N7         -6.4578   50.9283   26.3800 N.pl3     1 UNK         0.0000 
      8 O8         -7.4820   50.8695   25.7072 O.co2     1 UNK         0.0000 
      9 O9         -6.2390   51.7842   27.2331 O.co2     1 UNK         0.0000 
     10 C10        -3.5941   51.6217   25.5365 C.3       1 UNK         0.0000 
     11 H11        -3.2679   52.0388   26.4874 H         1 UNK         0.0000 
     12 C12        -4.4318   52.6948   24.8612 C.2       1 UNK         0.0000 
     13 C13        -3.6479   53.4655   24.0817 C.2       1 UNK         0.0000 
     14 C14        -2.2458   52.8955   23.9535 C.3       1 UNK         0.0000 
     15 C15        -2.4528   51.5044   24.5359 C.3       1 UNK         0.0000 
     16 H16        -2.8122   50.9096   23.6886 H         1 UNK         0.0000 
     17 C17        -1.2723   50.6950   25.1170 C.3       1 UNK         0.0000 
     18 H18        -0.5979   50.4744   24.2874 H         1 UNK         0.0000 
     19 N19        -1.7793   49.3807   25.5381 N.pl3     1 UNK         0.0000 
     20 C20        -0.4139   51.4680   26.1387 C.ar      1 UNK         0.0000 
     21 C21         0.7034   52.1568   25.6463 C.ar      1 UNK         0.0000 
     22 C22         1.5246   52.8966   26.4937 C.ar      1 UNK         0.0000 
     23 C23         1.2442   52.9535   27.8549 C.ar      1 UNK         0.0000 
     24 C24         0.1399   52.2785   28.3713 C.ar      1 UNK         0.0000 
     25 C25        -0.6947   51.5362   27.5213 C.ar      1 UNK         0.0000 
     26 O26        -1.7800   50.8967   28.0648 O.3       1 UNK         0.0000 
     27 Cl27       -0.1721   52.3887   30.0708 Cl        1 UNK         0.0000 
     28 Cl28        2.8897   53.7377   25.8558 Cl        1 UNK         0.0000 
     29 O29        -2.6508   46.7790   26.1110 O.3       1 UNK         0.0000 
     30 H30        -6.8514   48.3168   26.6163 H         1 UNK         0.0000 
     31 H31        -5.1994   46.5078   26.4980 H         1 UNK         0.0000 
     32 H32        -5.4619   52.9063   25.1010 H         1 UNK         0.0000 
     33 H33        -3.9512   54.3645   23.5658 H         1 UNK         0.0000 
     34 H34        -1.4997   53.4842   24.4833 H         1 UNK         0.0000 
     35 H35        -1.9260   52.8377   22.9121 H         1 UNK         0.0000 
     36 H36        -1.0812   48.6626   25.6734 H         1 UNK         0.0000 
     37 H37         0.9388   52.1269   24.5920 H         1 UNK         0.0000 
     38 H38         1.8830   53.5254   28.5117 H         1 UNK         0.0000 
     39 H39        -1.6956   49.9194   28.0817 H         1 UNK         0.0000 
     40 H40        -1.9012   47.0307   26.6677 H         1 UNK         0.0000 
@<TRIPOS>BOND
     1    1    6 ar   
     2    1    2 ar   
     3    1   30 1    
     4    2    3 ar   
     5    2   31 1    
     6    3    4 ar   
     7    3   29 1    
     8    4   19 1    
     9    4    5 ar   
    10    5    6 ar   
    11    5   10 1    
    12    6    7 1    
    13    7    8 2    
    14    7    9 1    
    15   10   11 1    
    16   10   15 1    
    17   10   12 1    
    18   12   13 2    
    19   12   32 1    
    20   13   14 1    
    21   13   33 1    
    22   14   15 1    
    23   14   34 1    
    24   14   35 1    
    25   15   16 1    
    26   15   17 1    
    27   17   18 1    
    28   17   19 1    
    29   17   20 1    
    30   19   36 1    
    31   20   25 ar   
    32   20   21 ar   
    33   21   22 ar   
    34   21   37 1    
    35   22   23 ar   
    36   22   28 1    
    37   23   24 ar   
    38   23   38 1    
    39   24   25 ar   
    40   24   27 1    
    41   25   26 1    
    42   26   39 1    
    43   29   40 1    
@<TRIPOS>SUBSTRUCTURE
     1 UNK         1 GROUP             0       ****    0 ROOT    
