ZINC12347065_3639
                    3D
 Schrodinger Suite 2024-2.
 67 71  0  0  1  0            999 V2000
    3.4488   58.7944   14.3207 C   0  0  0  0  0  0
    2.1822   57.9533   14.5603 C   0  0  0  0  0  0
    1.9429   57.6977   16.0725 N   0  3  0  0  0  0
    0.5206   57.1410   16.3508 C   0  0  0  0  0  0
   -0.5857   58.1648   16.0332 C   0  0  0  0  0  0
    3.0446   56.9262   16.7302 C   0  0  0  0  0  0
    4.0963   57.6563   17.2772 C   0  0  0  0  0  0
    5.1280   56.9737   17.9145 C   0  0  0  0  0  0
    5.1082   55.5765   17.9993 C   0  0  0  0  0  0
    4.0420   54.8598   17.4434 C   0  0  0  0  0  0
    3.0052   55.5313   16.7990 C   0  0  0  0  0  0
    6.2926   54.8418   18.6521 C   0  0  2  0  0  0
    6.0994   53.7847   18.4612 H   0  0  0  0  0  0
    6.3842   55.0952   20.1732 C   0  0  0  0  0  0
    7.4766   55.6214   20.7197 C   0  0  0  0  0  0
    7.4207   55.5733   22.0812 N   0  0  0  0  0  0
    8.1364   55.1608   22.6678 H   0  0  0  0  0  0
    6.2382   54.8935   22.3973 N   0  0  0  0  0  0
    5.5410   54.6192   21.2519 C   0  0  0  0  0  0
    4.4318   54.1047   21.1303 O   0  0  0  0  0  0
    5.8563   54.6891   23.7661 C   0  0  0  0  0  0
    4.6252   54.1011   24.1172 C   0  0  0  0  0  0
    4.2436   53.9821   25.4509 C   0  0  0  0  0  0
    5.1025   54.3996   26.4604 C   0  0  0  0  0  0
    6.3317   54.9644   26.1436 C   0  0  0  0  0  0
    6.6965   55.1219   24.8095 C   0  0  0  0  0  0
    8.6001   55.9576   20.0169 N   0  0  0  0  0  0
    8.7145   55.6955   18.6677 C   0  0  0  0  0  0
    7.6578   55.1842   17.9656 C   0  0  0  0  0  0
    7.7770   54.9411   16.5085 C   0  0  0  0  0  0
    6.9695   54.2461   15.8935 O   0  0  0  0  0  0
    9.0700   55.4197   15.8184 C   0  0  0  0  0  0
    9.7742   56.6016   16.5373 C   0  0  0  0  0  0
   10.0176   56.1548   18.0082 C   0  0  0  0  0  0
   11.1462   56.8070   15.8643 C   0  0  0  0  0  0
    8.8997   57.8834   16.4793 C   0  0  0  0  0  0
    3.5510   59.0520   13.2671 H   0  0  0  0  0  0
    4.3544   58.2567   14.6049 H   0  0  0  0  0  0
    3.4257   59.7308   14.8836 H   0  0  0  0  0  0
    1.3115   58.4839   14.1812 H   0  0  0  0  0  0
    2.2359   56.9690   14.0895 H   0  0  0  0  0  0
    0.4166   56.2188   15.7759 H   0  0  0  0  0  0
    0.5216   56.9019   17.4175 H   0  0  0  0  0  0
   -1.5429   57.8223   16.4268 H   0  0  0  0  0  0
   -0.3904   59.1412   16.4760 H   0  0  0  0  0  0
   -0.7295   58.3079   14.9613 H   0  0  0  0  0  0
    4.1234   58.7367   17.2184 H   0  0  0  0  0  0
    5.9482   57.5299   18.3403 H   0  0  0  0  0  0
    4.0240   53.7796   17.4892 H   0  0  0  0  0  0
    2.1989   54.9576   16.3626 H   0  0  0  0  0  0
    3.9241   53.7467   23.3787 H   0  0  0  0  0  0
    3.2884   53.5406   25.7035 H   0  0  0  0  0  0
    4.8123   54.2898   27.4944 H   0  0  0  0  0  0
    6.9814   55.2962   26.9404 H   0  0  0  0  0  0
    7.6350   55.6061   24.5995 H   0  0  0  0  0  0
    9.4210   56.2805   20.5077 H   0  0  0  0  0  0
    9.7364   54.5583   15.8378 H   0  0  0  0  0  0
    8.8609   55.6290   14.7724 H   0  0  0  0  0  0
   10.7385   55.3391   18.0838 H   0  0  0  0  0  0
   10.4161   57.0280   18.5254 H   0  0  0  0  0  0
   11.7020   57.6206   16.3364 H   0  0  0  0  0  0
   11.7676   55.9109   15.9165 H   0  0  0  0  0  0
   11.0316   57.0652   14.8092 H   0  0  0  0  0  0
    9.3967   58.7189   16.9722 H   0  0  0  0  0  0
    8.7186   58.1856   15.4477 H   0  0  0  0  0  0
    7.9278   57.7680   16.9540 H   0  0  0  0  0  0
    1.9168   58.6151   16.5030 H   0  0  0  0  0  0
  1  2  1  0  0  0
  1 37  1  0  0  0
  1 38  1  0  0  0
  1 39  1  0  0  0
  2  3  1  0  0  0
  2 40  1  0  0  0
  2 41  1  0  0  0
  3  4  1  0  0  0
  3  6  1  0  0  0
  3 67  1  0  0  0
  4  5  1  0  0  0
  4 42  1  0  0  0
  4 43  1  0  0  0
  5 44  1  0  0  0
  5 45  1  0  0  0
  5 46  1  0  0  0
  6 11  2  0  0  0
  6  7  1  0  0  0
  7  8  2  0  0  0
  7 47  1  0  0  0
  8  9  1  0  0  0
  8 48  1  0  0  0
  9 10  2  0  0  0
  9 12  1  0  0  0
 10 11  1  0  0  0
 10 49  1  0  0  0
 11 50  1  0  0  0
 12 13  1  0  0  0
 12 29  1  0  0  0
 12 14  1  0  0  0
 14 19  1  0  0  0
 14 15  2  0  0  0
 15 16  1  0  0  0
 15 27  1  0  0  0
 16 17  1  0  0  0
 16 18  1  0  0  0
 18 19  1  0  0  0
 18 21  1  0  0  0
 19 20  2  0  0  0
 21 26  2  0  0  0
 21 22  1  0  0  0
 22 23  2  0  0  0
 22 51  1  0  0  0
 23 24  1  0  0  0
 23 52  1  0  0  0
 24 25  2  0  0  0
 24 53  1  0  0  0
 25 26  1  0  0  0
 25 54  1  0  0  0
 26 55  1  0  0  0
 27 28  1  0  0  0
 27 56  1  0  0  0
 28 34  1  0  0  0
 28 29  2  0  0  0
 29 30  1  0  0  0
 30 31  2  0  0  0
 30 32  1  0  0  0
 32 33  1  0  0  0
 32 57  1  0  0  0
 32 58  1  0  0  0
 33 34  1  0  0  0
 33 35  1  0  0  0
 33 36  1  0  0  0
 34 59  1  0  0  0
 34 60  1  0  0  0
 35 61  1  0  0  0
 35 62  1  0  0  0
 35 63  1  0  0  0
 36 64  1  0  0  0
 36 65  1  0  0  0
 36 66  1  0  0  0
M  CHG  1   3   1
M  END
> <i_i_glide_confnum>
35

> <i_i_glide_lignum>
3640

> <i_i_glide_posenum>
40

> <i_i_glide_rotatable_bonds>
5

> <i_m_Source_File_Index>
3180

> <b_m_subgroup_collapsed>
0

> <r_i_docking_score>
-5.89934

> <r_i_glide_ecoul>
-5.73292

> <r_i_glide_eff_state_penalty>
0

> <r_i_glide_einternal>
2.47299

> <r_i_glide_emodel>
-55.4368

> <r_i_glide_energy>
-40.5114

> <r_i_glide_erotb>
0.288072

> <r_i_glide_esite>
-0.022676

> <r_i_glide_evdw>
-34.7785

> <r_i_glide_gscore>
-5.89934

> <r_i_glide_hbond>
-0.333373

> <r_i_glide_ligand_efficiency>
-0.17351

> <r_i_glide_ligand_efficiency_ln>
-1.30333

> <r_i_glide_ligand_efficiency_sa>
-0.562105

> <r_i_glide_lipo>
-2.43932

> <r_i_glide_metal>
0

> <r_i_glide_rewards>
-0.793175

> <s_i_glide_gridfile>
wee1_glide-grid

> <s_m_Source_File>
wee1_decoys_glide_SP.sdf

> <s_m_Source_Path>
/Users/zhangxujun/Desktop

> <s_m_entry_id>
3455

> <s_m_entry_name>
wee1_decoys_glide_SP.3180

> <s_m_subgroup_title>
wee1_decoys_glide_SP

> <s_m_subgroupid>
wee1_decoys_glide_SP


$$$$
