ZINC13267785_5629
                    3D
 Schrodinger Suite 2024-2.
 57 61  0  0  1  0            999 V2000
   -0.2001   49.2368   22.1403 C   0  0  0  0  0  0
   -0.8960   48.0037   21.9826 O   0  0  0  0  0  0
   -1.9475   47.6833   22.8250 C   0  0  0  0  0  0
   -2.3982   48.5610   23.8293 C   0  0  0  0  0  0
   -3.4503   48.2187   24.6841 C   0  0  0  0  0  0
   -4.0725   46.9771   24.5274 C   0  0  0  0  0  0
   -3.6458   46.1054   23.5312 C   0  0  0  0  0  0
   -2.5788   46.4271   22.6836 C   0  0  0  0  0  0
   -2.1279   45.4048   21.6840 C   0  0  0  0  0  0
   -1.8306   45.7831   20.5294 O   0  0  0  0  0  0
   -5.3776   46.4744   25.5503 Cl  0  0  0  0  0  0
   -3.9072   49.0959   25.6825 N   0  0  0  0  0  0
   -3.9105   50.8638   25.5571 S   0  0  0  0  0  0
   -3.9595   51.2263   24.1338 O   0  0  0  0  0  0
   -4.9435   51.3279   26.4906 O   0  0  0  0  0  0
   -2.3465   51.4046   26.2328 C   0  0  0  0  0  0
   -2.1288   51.2930   27.6028 C   0  0  0  0  0  0
   -0.9328   51.7307   28.1574 C   0  0  0  0  0  0
    0.0468   52.3281   27.3536 C   0  0  0  0  0  0
   -0.1697   52.3909   25.9679 C   0  0  0  0  0  0
   -1.3592   51.9370   25.4098 C   0  0  0  0  0  0
    1.3160   52.9131   28.0219 C   0  0  0  0  0  0
    2.1706   51.7754   28.6523 C   0  0  0  0  0  0
    3.4512   52.3431   29.3270 C   0  0  1  0  0  0
    4.3100   53.1381   28.3065 C   0  0  0  0  0  0
    3.4761   54.2953   27.7104 C   0  0  1  0  0  0
    2.2329   53.6922   27.0163 C   0  0  0  0  0  0
    3.0310   55.2562   28.8427 C   0  0  0  0  0  0
    2.1860   54.4751   29.8761 C   0  0  2  0  0  0
    3.0304   53.3060   30.4656 C   0  0  0  0  0  0
    0.9270   53.9083   29.1679 C   0  0  0  0  0  0
    0.5932   49.3016   21.3952 H   0  0  0  0  0  0
   -0.8578   50.0924   21.9936 H   0  0  0  0  0  0
    0.2702   49.3084   23.1215 H   0  0  0  0  0  0
   -1.9255   49.5178   23.9673 H   0  0  0  0  0  0
   -4.1533   45.1579   23.4272 H   0  0  0  0  0  0
   -4.3556   48.6934   26.4915 H   0  0  0  0  0  0
   -2.8759   50.8457   28.2433 H   0  0  0  0  0  0
   -0.7953   51.6243   29.2222 H   0  0  0  0  0  0
    0.5567   52.8197   25.2952 H   0  0  0  0  0  0
   -1.5131   52.0204   24.3439 H   0  0  0  0  0  0
    1.5846   51.2295   29.3920 H   0  0  0  0  0  0
    2.4210   51.0450   27.8879 H   0  0  0  0  0  0
    4.0442   51.5244   29.7380 H   0  0  0  0  0  0
    4.6654   52.4979   27.5019 H   0  0  0  0  0  0
    5.2078   53.5274   28.7885 H   0  0  0  0  0  0
    4.0733   54.8428   26.9792 H   0  0  0  0  0  0
    2.5708   53.0338   26.2164 H   0  0  0  0  0  0
    1.6662   54.4897   26.5391 H   0  0  0  0  0  0
    3.9033   55.6956   29.3171 H   0  0  0  0  0  0
    2.4519   56.0904   28.4411 H   0  0  0  0  0  0
    1.8737   55.1581   30.6658 H   0  0  0  0  0  0
    2.4709   52.7716   31.2324 H   0  0  0  0  0  0
    3.9373   53.6903   30.9308 H   0  0  0  0  0  0
    0.3266   54.7247   28.7627 H   0  0  0  0  0  0
    0.3014   53.4258   29.9211 H   0  0  0  0  0  0
   -2.0971   44.2136   22.0815 O   0  5  0  0  0  0
  1  2  1  0  0  0
  1 32  1  0  0  0
  1 33  1  0  0  0
  1 34  1  0  0  0
  2  3  1  0  0  0
  3  8  2  0  0  0
  3  4  1  0  0  0
  4  5  2  0  0  0
  4 35  1  0  0  0
  5  6  1  0  0  0
  5 12  1  0  0  0
  6  7  2  0  0  0
  6 11  1  0  0  0
  7  8  1  0  0  0
  7 36  1  0  0  0
  8  9  1  0  0  0
  9 10  2  0  0  0
  9 57  1  0  0  0
 12 13  1  0  0  0
 12 37  1  0  0  0
 13 14  2  0  0  0
 13 15  2  0  0  0
 13 16  1  0  0  0
 16 21  2  0  0  0
 16 17  1  0  0  0
 17 18  2  0  0  0
 17 38  1  0  0  0
 18 19  1  0  0  0
 18 39  1  0  0  0
 19 20  2  0  0  0
 19 22  1  0  0  0
 20 21  1  0  0  0
 20 40  1  0  0  0
 21 41  1  0  0  0
 22 27  1  0  0  0
 22 31  1  0  0  0
 22 23  1  0  0  0
 23 24  1  0  0  0
 23 42  1  0  0  0
 23 43  1  0  0  0
 24 30  1  0  0  0
 24 25  1  0  0  0
 24 44  1  0  0  0
 25 26  1  0  0  0
 25 45  1  0  0  0
 25 46  1  0  0  0
 26 27  1  0  0  0
 26 28  1  0  0  0
 26 47  1  0  0  0
 27 48  1  0  0  0
 27 49  1  0  0  0
 28 29  1  0  0  0
 28 50  1  0  0  0
 28 51  1  0  0  0
 29 30  1  0  0  0
 29 31  1  0  0  0
 29 52  1  0  0  0
 30 53  1  0  0  0
 30 54  1  0  0  0
 31 55  1  0  0  0
 31 56  1  0  0  0
M  CHG  1  57  -1
M  END
> <i_i_glide_confnum>
34

> <i_i_glide_lignum>
5630

> <i_i_glide_posenum>
85

> <i_i_glide_rotatable_bonds>
6

> <i_m_Source_File_Index>
545

> <b_m_subgroup_collapsed>
0

> <r_i_docking_score>
-3.36089

> <r_i_glide_ecoul>
-3.33656

> <r_i_glide_eff_state_penalty>
0

> <r_i_glide_einternal>
5.98423

> <r_i_glide_emodel>
-36.0156

> <r_i_glide_energy>
-30.1757

> <r_i_glide_erotb>
0.358841

> <r_i_glide_esite>
-0.0847678

> <r_i_glide_evdw>
-26.8391

> <r_i_glide_gscore>
-3.36089

> <r_i_glide_hbond>
-0.2

> <r_i_glide_ligand_efficiency>
-0.105028

> <r_i_glide_ligand_efficiency_ln>
-0.752596

> <r_i_glide_ligand_efficiency_sa>
-0.333443

> <r_i_glide_lipo>
-1.70511

> <r_i_glide_metal>
0

> <r_i_glide_rewards>
0.112585

> <s_i_glide_gridfile>
wee1_glide-grid

> <s_m_Source_File>
wee1_decoys_glide_SP.sdf

> <s_m_Source_Path>
/Users/zhangxujun/Desktop

> <s_m_entry_id>
820

> <s_m_entry_name>
wee1_decoys_glide_SP.545

> <s_m_subgroup_title>
wee1_decoys_glide_SP

> <s_m_subgroupid>
wee1_decoys_glide_SP


$$$$
