@<TRIPOS>MOLECULE
ZINC40038330_5513
59   63    1
SMALL
USER_CHARGES


@<TRIPOS>ATOM
      1 C1          6.4281   54.0964   28.0822 C.3       1 UNK         0.0000 
      2 C2          5.0872   53.9020   27.4081 C.2       1 UNK         0.0000 
      3 C3          3.9050   53.4027   28.0500 C.ar      1 UNK         0.0000 
      4 C4          3.5696   52.9803   29.3467 C.ar      1 UNK         0.0000 
      5 C5          2.2757   52.5194   29.5940 C.ar      1 UNK         0.0000 
      6 C6          1.3120   52.4850   28.5837 C.ar      1 UNK         0.0000 
      7 C7          1.6054   52.9090   27.2842 C.ar      1 UNK         0.0000 
      8 C8          2.9118   53.3565   27.0477 C.ar      1 UNK         0.0000 
      9 O9          3.4104   53.7749   25.8519 O.3       1 UNK         0.0000 
     10 C10         4.7299   54.0847   26.0622 C.2       1 UNK         0.0000 
     11 C11         5.5224   54.4974   24.9205 C.2       1 UNK         0.0000 
     12 O12         6.5768   55.1202   25.0679 O.2       1 UNK         0.0000 
     13 N13         4.9933   54.0985   23.7406 N.am      1 UNK         0.0000 
     14 C14         5.4457   54.3047   22.4346 C.2       1 UNK         0.0000 
     15 C15         4.8673   53.7595   21.2639 C.2       1 UNK         0.0000 
     16 C16         5.5046   54.2680   20.0842 C.2       1 UNK         0.0000 
     17 C17         6.5671   55.1411   20.3867 C.2       1 UNK         0.0000 
     18 S18         6.8320   55.2966   22.0815 S.3       1 UNK         0.0000 
     19 C19         7.4697   55.8318   19.3705 C.3       1 UNK         0.0000 
     20 C20         6.7404   55.8675   18.0108 C.3       1 UNK         0.0000 
     21 H21         5.8974   56.5582   18.0777 H         1 UNK         0.0000 
     22 C22         6.2521   54.4497   17.6642 C.3       1 UNK         0.0000 
     23 C23         5.1411   53.9626   18.6175 C.3       1 UNK         0.0000 
     24 C24         7.6763   56.4229   16.9207 C.3       1 UNK         0.0000 
     25 C25         3.6770   52.9100   21.2980 C.2       1 UNK         0.0000 
     26 O26         2.8877   52.9672   22.2438 O.2       1 UNK         0.0000 
     27 N27         3.5005   52.0843   20.2474 N.am      1 UNK         0.0000 
     28 C28         2.3373   51.2486   19.9234 C.3       1 UNK         0.0000 
     29 H29         2.5598   50.6567   19.0316 H         1 UNK         0.0000 
     30 C30         1.9685   50.2277   21.0360 C.3       1 UNK         0.0000 
     31 C31         0.6042   49.6006   20.7083 C.3       1 UNK         0.0000 
     32 S32        -0.3918   50.9916   19.9366 S.o2      1 UNK         0.0000 
     33 O33        -1.2641   51.6296   20.9292 O.2       1 UNK         0.0000 
     34 O34        -0.9446   50.5253   18.6616 O.2       1 UNK         0.0000 
     35 C35         1.0843   52.0969   19.6343 C.3       1 UNK         0.0000 
     36 F36         1.9585   52.0975   30.8370 F         1 UNK         0.0000 
     37 H37         6.3058   54.4957   29.0911 H         1 UNK         0.0000 
     38 H38         6.9768   53.1567   28.1653 H         1 UNK         0.0000 
     39 H39         7.0735   54.8002   27.5562 H         1 UNK         0.0000 
     40 H40         4.3041   52.9903   30.1373 H         1 UNK         0.0000 
     41 H41         0.3231   52.1139   28.8192 H         1 UNK         0.0000 
     42 H42         0.8677   52.8745   26.4959 H         1 UNK         0.0000 
     43 H43         4.1326   53.5678   23.7965 H         1 UNK         0.0000 
     44 H44         7.7280   56.8424   19.6889 H         1 UNK         0.0000 
     45 H45         8.4082   55.2798   19.2857 H         1 UNK         0.0000 
     46 H46         5.8618   54.4402   16.6464 H         1 UNK         0.0000 
     47 H47         7.0943   53.7563   17.6323 H         1 UNK         0.0000 
     48 H48         5.0184   52.8973   18.4289 H         1 UNK         0.0000 
     49 H49         4.1939   54.4400   18.3641 H         1 UNK         0.0000 
     50 H50         8.5600   55.7958   16.7903 H         1 UNK         0.0000 
     51 H51         7.1683   56.4797   15.9572 H         1 UNK         0.0000 
     52 H52         8.0158   57.4308   17.1638 H         1 UNK         0.0000 
     53 H53         4.2764   51.9758   19.6071 H         1 UNK         0.0000 
     54 H54         1.9149   50.7090   22.0111 H         1 UNK         0.0000 
     55 H55         2.7474   49.4717   21.1423 H         1 UNK         0.0000 
     56 H56         0.0477   49.1285   21.5164 H         1 UNK         0.0000 
     57 H57         0.7599   48.8581   19.9252 H         1 UNK         0.0000 
     58 H58         1.0326   52.6922   18.7259 H         1 UNK         0.0000 
     59 H59         0.9975   52.8114   20.4530 H         1 UNK         0.0000 
@<TRIPOS>BOND
     1    1    2 1    
     2    1   37 1    
     3    1   38 1    
     4    1   39 1    
     5    2   10 2    
     6    2    3 1    
     7    3    8 ar   
     8    3    4 ar   
     9    4    5 ar   
    10    4   40 1    
    11    5    6 ar   
    12    5   36 1    
    13    6    7 ar   
    14    6   41 1    
    15    7    8 ar   
    16    7   42 1    
    17    8    9 1    
    18    9   10 1    
    19   10   11 1    
    20   11   12 2    
    21   11   13 am   BACKBONE|DICT|INTERRES
    22   13   14 am   BACKBONE|DICT|INTERRES
    23   13   43 1    
    24   14   18 1    
    25   14   15 2    
    26   15   16 1    
    27   15   25 1    
    28   16   23 1    
    29   16   17 2    
    30   17   18 1    
    31   17   19 1    
    32   19   20 1    
    33   19   44 1    
    34   19   45 1    
    35   20   21 1    
    36   20   22 1    
    37   20   24 1    
    38   22   23 1    
    39   22   46 1    
    40   22   47 1    
    41   23   48 1    
    42   23   49 1    
    43   24   50 1    
    44   24   51 1    
    45   24   52 1    
    46   25   26 2    
    47   25   27 am   BACKBONE|DICT|INTERRES
    48   27   28 1    
    49   27   53 1    
    50   28   29 1    
    51   28   35 1    
    52   28   30 1    
    53   30   31 1    
    54   30   54 1    
    55   30   55 1    
    56   31   32 1    
    57   31   56 1    
    58   31   57 1    
    59   32   33 2    
    60   32   34 2    
    61   32   35 1    
    62   35   58 1    
    63   35   59 1    
@<TRIPOS>SUBSTRUCTURE
     1 UNK         1 GROUP             0       ****    0 ROOT    
