@<TRIPOS>MOLECULE
ZINC20705941_1177
59   63    1
SMALL
USER_CHARGES


@<TRIPOS>ATOM
      1 C1         11.1866   49.8734   14.1246 C.3       1 UNK         0.0000 
      2 N2         10.7976   50.6429   15.4101 N.4       1 UNK         0.0000 
      3 C3          9.3984   50.1986   15.9168 C.3       1 UNK         0.0000 
      4 C4          8.9666   51.0399   17.1454 C.3       1 UNK         0.0000 
      5 N5          9.1402   52.4823   16.8817 N.pl3     1 UNK         0.0000 
      6 C6         10.5061   52.8902   16.4941 C.3       1 UNK         0.0000 
      7 C7         10.9270   52.1736   15.1964 C.3       1 UNK         0.0000 
      8 S8          7.7366   53.4542   16.3831 S.o2      1 UNK         0.0000 
      9 O9          8.2340   54.6960   15.7791 O.2       1 UNK         0.0000 
     10 O10         6.8202   52.5769   15.6457 O.2       1 UNK         0.0000 
     11 C11         6.9371   53.9140   17.9214 C.ar      1 UNK         0.0000 
     12 C12         7.5317   54.8962   18.7137 C.ar      1 UNK         0.0000 
     13 C13         6.9667   55.2405   19.9377 C.ar      1 UNK         0.0000 
     14 C14         5.8047   54.6029   20.3733 C.ar      1 UNK         0.0000 
     15 C15         5.1727   53.6264   19.5822 C.ar      1 UNK         0.0000 
     16 C16         5.7539   53.2969   18.3483 C.ar      1 UNK         0.0000 
     17 C17         3.8669   53.0444   20.1137 C.3       1 UNK         0.0000 
     18 H18         3.1071   53.7903   19.8775 H         1 UNK         0.0000 
     19 C19         3.3436   51.6957   19.6824 C.2       1 UNK         0.0000 
     20 C20         2.6400   51.1486   20.6937 C.2       1 UNK         0.0000 
     21 C21         2.7298   52.0149   21.9399 C.3       1 UNK         0.0000 
     22 C22         3.9834   52.8362   21.6228 C.3       1 UNK         0.0000 
     23 H23         4.8513   52.2051   21.8403 H         1 UNK         0.0000 
     24 C24         4.2329   54.1894   22.3337 C.3       1 UNK         0.0000 
     25 H25         3.3578   54.8183   22.1586 H         1 UNK         0.0000 
     26 N26         5.3394   54.8972   21.6698 N.pl3     1 UNK         0.0000 
     27 C27         4.3454   54.0970   23.8730 C.ar      1 UNK         0.0000 
     28 C28         3.1583   53.9818   24.6094 C.ar      1 UNK         0.0000 
     29 C29         3.1695   53.8909   26.0090 C.ar      1 UNK         0.0000 
     30 C30         4.3822   54.0035   26.6913 C.ar      1 UNK         0.0000 
     31 C31         5.5715   54.0975   25.9819 C.ar      1 UNK         0.0000 
     32 C32         5.5663   54.0965   24.5874 C.ar      1 UNK         0.0000 
     33 Cl33        7.1129   54.0164   23.8284 Cl        1 UNK         0.0000 
     34 N34         1.9291   53.6183   26.7551 N.pl3     1 UNK         0.0000 
     35 O35         1.8093   54.0912   27.8820 O.co2     1 UNK         0.0000 
     36 O36         1.0948   52.8994   26.2168 O.co2     1 UNK         0.0000 
     37 H37        10.4854   50.1383   13.3308 H         1 UNK         0.0000 
     38 H38        12.2045   50.1577   13.8514 H         1 UNK         0.0000 
     39 H39        11.1410   48.8051   14.3416 H         1 UNK         0.0000 
     40 H40         9.5048   49.1500   16.1988 H         1 UNK         0.0000 
     41 H41         8.7036   50.2861   15.0810 H         1 UNK         0.0000 
     42 H42         7.9056   50.8973   17.3546 H         1 UNK         0.0000 
     43 H43         9.5041   50.7570   18.0516 H         1 UNK         0.0000 
     44 H44        11.1798   52.6372   17.3143 H         1 UNK         0.0000 
     45 H45        10.5392   53.9762   16.4002 H         1 UNK         0.0000 
     46 H46        11.9793   52.3662   14.9809 H         1 UNK         0.0000 
     47 H47        10.3149   52.4585   14.3374 H         1 UNK         0.0000 
     48 H48         8.4454   55.3765   18.3935 H         1 UNK         0.0000 
     49 H49         7.4556   55.9750   20.5604 H         1 UNK         0.0000 
     50 H50         5.2909   52.5411   17.7283 H         1 UNK         0.0000 
     51 H51         3.4453   51.3093   18.6772 H         1 UNK         0.0000 
     52 H52         2.0919   50.2173   20.6655 H         1 UNK         0.0000 
     53 H53         2.8356   51.4247   22.8477 H         1 UNK         0.0000 
     54 H54         1.8453   52.6401   22.0700 H         1 UNK         0.0000 
     55 H55         5.7615   55.6329   22.2153 H         1 UNK         0.0000 
     56 H56         2.2125   53.9317   24.0874 H         1 UNK         0.0000 
     57 H57         4.4135   53.9478   27.7706 H         1 UNK         0.0000 
     58 H58         6.5080   54.1098   26.5209 H         1 UNK         0.0000 
     59 H59        11.4505   50.4110   16.1481 H         1 UNK         0.0000 
@<TRIPOS>BOND
     1    1    2 1    
     2    1   37 1    
     3    1   38 1    
     4    1   39 1    
     5    2    7 1    
     6    2    3 1    
     7    2   59 1    
     8    3    4 1    
     9    3   40 1    
    10    3   41 1    
    11    4    5 1    
    12    4   42 1    
    13    4   43 1    
    14    5    6 1    
    15    5    8 1    
    16    6    7 1    
    17    6   44 1    
    18    6   45 1    
    19    7   46 1    
    20    7   47 1    
    21    8    9 2    
    22    8   10 2    
    23    8   11 1    
    24   11   16 ar   
    25   11   12 ar   
    26   12   13 ar   
    27   12   48 1    
    28   13   14 ar   
    29   13   49 1    
    30   14   26 1    
    31   14   15 ar   
    32   15   16 ar   
    33   15   17 1    
    34   16   50 1    
    35   17   18 1    
    36   17   22 1    
    37   17   19 1    
    38   19   20 2    
    39   19   51 1    
    40   20   21 1    
    41   20   52 1    
    42   21   22 1    
    43   21   53 1    
    44   21   54 1    
    45   22   23 1    
    46   22   24 1    
    47   24   25 1    
    48   24   26 1    
    49   24   27 1    
    50   26   55 1    
    51   27   32 ar   
    52   27   28 ar   
    53   28   29 ar   
    54   28   56 1    
    55   29   30 ar   
    56   29   34 1    
    57   30   31 ar   
    58   30   57 1    
    59   31   32 ar   
    60   31   58 1    
    61   32   33 1    
    62   34   35 2    
    63   34   36 1    
@<TRIPOS>SUBSTRUCTURE
     1 UNK         1 GROUP             0       ****    0 ROOT    
