@<TRIPOS>MOLECULE
ZINC40049562_3234
59   63    1
SMALL
USER_CHARGES


@<TRIPOS>ATOM
      1 C1         -2.1794   51.7975   26.9946 C.3       1 UNK         0.0000 
      2 C2         -0.8247   51.0771   26.7590 C.3       1 UNK         0.0000 
      3 H3         -0.9859   50.0040   26.8813 H         1 UNK         0.0000 
      4 C4         -0.2029   51.3558   25.3890 C.3       1 UNK         0.0000 
      5 H5          0.3590   50.4841   25.0499 H         1 UNK         0.0000 
      6 C6          0.7953   52.4967   25.6238 C.2       1 UNK         0.0000 
      7 O7          1.3522   53.1677   24.7504 O.2       1 UNK         0.0000 
      8 N8          0.9013   52.5991   26.9735 N.am      1 UNK         0.0000 
      9 N9          0.2844   51.4846   27.6103 N.3       1 UNK         0.0000 
     10 C10        -0.0767   51.6812   29.0202 C.3       1 UNK         0.0000 
     11 C11         1.8312   53.4245   27.6425 C.ar      1 UNK         0.0000 
     12 C12         3.2037   53.2849   27.3876 C.ar      1 UNK         0.0000 
     13 C13         4.1302   54.0126   28.1262 C.ar      1 UNK         0.0000 
     14 C14         3.6833   54.8964   29.1038 C.ar      1 UNK         0.0000 
     15 C15         2.3186   55.0952   29.3180 C.ar      1 UNK         0.0000 
     16 C16         1.3886   54.3599   28.5867 C.ar      1 UNK         0.0000 
     17 N17        -1.1366   51.7001   24.2873 N.pl3     1 UNK         0.0000 
     18 S18        -1.4396   50.5576   22.9893 S.o2      1 UNK         0.0000 
     19 O19        -2.5661   51.0875   22.2122 O.2       1 UNK         0.0000 
     20 O20        -1.4871   49.2077   23.5601 O.2       1 UNK         0.0000 
     21 C21         0.0091   50.6606   21.9427 C.ar      1 UNK         0.0000 
     22 C22         1.1177   49.8400   22.1852 C.ar      1 UNK         0.0000 
     23 C23         2.2562   49.8754   21.3702 C.ar      1 UNK         0.0000 
     24 C24         2.2281   50.7730   20.2970 C.ar      1 UNK         0.0000 
     25 C25         1.1218   51.6231   20.0433 C.ar      1 UNK         0.0000 
     26 C26         0.0039   51.5716   20.8802 C.ar      1 UNK         0.0000 
     27 N27         1.3264   52.4063   18.9376 N.2       1 UNK         0.0000 
     28 C28         2.5125   52.0548   18.5096 C.ar      1 UNK         0.0000 
     29 N29         3.1032   51.0853   19.2814 N.pl3     1 UNK         0.0000 
     30 H30         4.0164   50.6923   19.0354 H         1 UNK         0.0000 
     31 C31         3.2087   52.6537   17.3075 C.3       1 UNK         0.0000 
     32 C32         4.0367   53.8807   17.6730 C.ar      1 UNK         0.0000 
     33 C33         5.2980   53.7120   18.2539 C.ar      1 UNK         0.0000 
     34 C34         6.0664   54.8246   18.6025 C.ar      1 UNK         0.0000 
     35 C35         5.5783   56.1124   18.3674 C.ar      1 UNK         0.0000 
     36 C36         4.3196   56.2842   17.7849 C.ar      1 UNK         0.0000 
     37 C37         3.5473   55.1740   17.4422 C.ar      1 UNK         0.0000 
     38 F38         2.3287   55.3654   16.8834 F         1 UNK         0.0000 
     39 H39        -2.9310   51.4544   26.2837 H         1 UNK         0.0000 
     40 H40        -2.5796   51.5964   27.9888 H         1 UNK         0.0000 
     41 H41        -2.0885   52.8773   26.8793 H         1 UNK         0.0000 
     42 H42        -0.6499   50.8396   29.4065 H         1 UNK         0.0000 
     43 H43         0.8184   51.7846   29.6353 H         1 UNK         0.0000 
     44 H44        -0.6889   52.5718   29.1589 H         1 UNK         0.0000 
     45 H45         3.5555   52.5838   26.6448 H         1 UNK         0.0000 
     46 H46         5.1885   53.8856   27.9474 H         1 UNK         0.0000 
     47 H47         4.4104   55.4501   29.6805 H         1 UNK         0.0000 
     48 H48         1.9851   55.8119   30.0556 H         1 UNK         0.0000 
     49 H49         0.3297   54.5052   28.7723 H         1 UNK         0.0000 
     50 H50        -1.0499   52.6668   23.9632 H         1 UNK         0.0000 
     51 H51         1.0973   49.1522   23.0213 H         1 UNK         0.0000 
     52 H52         3.1016   49.2290   21.5565 H         1 UNK         0.0000 
     53 H53        -0.8467   52.2085   20.6932 H         1 UNK         0.0000 
     54 H54         2.4832   52.9171   16.5388 H         1 UNK         0.0000 
     55 H55         3.8592   51.9161   16.8358 H         1 UNK         0.0000 
     56 H56         5.6845   52.7166   18.4343 H         1 UNK         0.0000 
     57 H57         7.0399   54.6896   19.0499 H         1 UNK         0.0000 
     58 H58         6.1718   56.9757   18.6301 H         1 UNK         0.0000 
     59 H59         3.9400   57.2778   17.6024 H         1 UNK         0.0000 
@<TRIPOS>BOND
     1    1    2 1    
     2    1   39 1    
     3    1   40 1    
     4    1   41 1    
     5    2    3 1    
     6    2    9 1    
     7    2    4 1    
     8    4    5 1    
     9    4    6 1    
    10    4   17 1    
    11    6    7 2    
    12    6    8 am   BACKBONE|DICT|INTERRES
    13    8    9 1    
    14    8   11 1    
    15    9   10 1    
    16   10   42 1    
    17   10   43 1    
    18   10   44 1    
    19   11   16 ar   
    20   11   12 ar   
    21   12   13 ar   
    22   12   45 1    
    23   13   14 ar   
    24   13   46 1    
    25   14   15 ar   
    26   14   47 1    
    27   15   16 ar   
    28   15   48 1    
    29   16   49 1    
    30   17   18 1    
    31   17   50 1    
    32   18   19 2    
    33   18   20 2    
    34   18   21 1    
    35   21   26 ar   
    36   21   22 ar   
    37   22   23 ar   
    38   22   51 1    
    39   23   24 ar   
    40   23   52 1    
    41   24   29 ar   
    42   24   25 ar   
    43   25   26 ar   
    44   25   27 ar   
    45   26   53 1    
    46   27   28 ar   
    47   28   29 ar   
    48   28   31 1    
    49   29   30 1    
    50   31   32 1    
    51   31   54 1    
    52   31   55 1    
    53   32   37 ar   
    54   32   33 ar   
    55   33   34 ar   
    56   33   56 1    
    57   34   35 ar   
    58   34   57 1    
    59   35   36 ar   
    60   35   58 1    
    61   36   37 ar   
    62   36   59 1    
    63   37   38 1    
@<TRIPOS>SUBSTRUCTURE
     1 UNK         1 GROUP             0       ****    0 ROOT    
