@<TRIPOS>MOLECULE
ZINC66558653_1403
41   43    1
SMALL
USER_CHARGES


@<TRIPOS>ATOM
      1 C1         -5.8839   47.7850   29.9070 C.3       1 UNK         0.0000 
      2 C2         -5.8184   48.8180   28.7972 C.ar      1 UNK         0.0000 
      3 C3         -6.9433   49.0721   28.0120 C.ar      1 UNK         0.0000 
      4 C4         -6.8871   50.0280   26.9994 C.ar      1 UNK         0.0000 
      5 C5         -5.7081   50.7368   26.7699 C.ar      1 UNK         0.0000 
      6 C6         -4.5641   50.5020   27.5482 C.ar      1 UNK         0.0000 
      7 C7         -4.6387   49.5303   28.5662 C.ar      1 UNK         0.0000 
      8 C8         -3.2979   51.2961   27.2918 C.2       1 UNK         0.0000 
      9 O9         -3.2938   52.2385   26.4906 O.2       1 UNK         0.0000 
     10 N10        -2.2174   50.8968   27.9924 N.am      1 UNK         0.0000 
     11 N11        -1.0049   51.5478   27.8025 N.am      1 UNK         0.0000 
     12 C12        -0.3884   52.0335   28.9040 C.2       1 UNK         0.0000 
     13 O13        -0.8901   52.0965   30.0280 O.2       1 UNK         0.0000 
     14 C14         0.9398   52.5349   28.6627 C.ar      1 UNK         0.0000 
     15 C15         1.4704   52.9246   27.4378 C.ar      1 UNK         0.0000 
     16 N16         2.7560   53.3397   27.6877 N.pl3     1 UNK         0.0000 
     17 N17         2.9968   53.2613   29.0046 N.2       1 UNK         0.0000 
     18 N18         1.8444   52.7788   29.6001 N.2       1 UNK         0.0000 
     19 C19         3.7295   53.7595   26.7531 C.ar      1 UNK         0.0000 
     20 C20         5.0916   53.8270   27.0816 C.ar      1 UNK         0.0000 
     21 C21         6.0084   54.0967   26.0654 C.ar      1 UNK         0.0000 
     22 C22         5.5563   54.2938   24.7541 C.ar      1 UNK         0.0000 
     23 C23         4.1795   54.2488   24.5176 C.ar      1 UNK         0.0000 
     24 N24         3.2757   53.9889   25.4896 N.ar      1 UNK         0.0000 
     25 C25         6.5435   54.5081   23.6196 C.3       1 UNK         0.0000 
     26 F26         7.1044   55.6964   23.7859 F         1 UNK         0.0000 
     27 F27         5.9627   54.4757   22.4193 F         1 UNK         0.0000 
     28 F28         7.4877   53.5701   23.6574 F         1 UNK         0.0000 
     29 H29        -6.8018   47.9089   30.4841 H         1 UNK         0.0000 
     30 H30        -5.8835   46.7787   29.4881 H         1 UNK         0.0000 
     31 H31        -5.0485   47.8825   30.6032 H         1 UNK         0.0000 
     32 H32        -7.8616   48.5290   28.1845 H         1 UNK         0.0000 
     33 H33        -7.7592   50.2206   26.3914 H         1 UNK         0.0000 
     34 H34        -5.6937   51.4737   25.9786 H         1 UNK         0.0000 
     35 H35        -3.7826   49.3109   29.1924 H         1 UNK         0.0000 
     36 H36        -2.0805   49.9097   28.2102 H         1 UNK         0.0000 
     37 H37        -0.4786   51.1588   27.0340 H         1 UNK         0.0000 
     38 H38         1.0695   52.9175   26.4348 H         1 UNK         0.0000 
     39 H39         5.4434   53.6277   28.0835 H         1 UNK         0.0000 
     40 H40         7.0647   54.1134   26.2917 H         1 UNK         0.0000 
     41 H41         3.7716   54.3990   23.5278 H         1 UNK         0.0000 
@<TRIPOS>BOND
     1    1    2 1    
     2    1   29 1    
     3    1   30 1    
     4    1   31 1    
     5    2    7 ar   
     6    2    3 ar   
     7    3    4 ar   
     8    3   32 1    
     9    4    5 ar   
    10    4   33 1    
    11    5    6 ar   
    12    5   34 1    
    13    6    7 ar   
    14    6    8 1    
    15    7   35 1    
    16    8    9 2    
    17    8   10 am   BACKBONE|DICT|INTERRES
    18   10   11 1    
    19   10   36 1    
    20   11   12 am   BACKBONE|DICT|INTERRES
    21   11   37 1    
    22   12   13 2    
    23   12   14 1    
    24   14   18 ar   
    25   14   15 ar   
    26   15   16 ar   
    27   15   38 1    
    28   16   17 ar   
    29   16   19 1    
    30   17   18 ar   
    31   19   24 ar   
    32   19   20 ar   
    33   20   21 ar   
    34   20   39 1    
    35   21   22 ar   
    36   21   40 1    
    37   22   23 ar   
    38   22   25 1    
    39   23   24 ar   
    40   23   41 1    
    41   25   26 1    
    42   25   27 1    
    43   25   28 1    
@<TRIPOS>SUBSTRUCTURE
     1 UNK         1 GROUP             0       ****    0 ROOT    
