ZINC40172995_3027
                    3D
 Schrodinger Suite 2024-2.
 63 66  0  0  1  0            999 V2000
   -0.6376   51.6984   29.0633 C   0  0  0  0  0  0
   -0.8712   51.0375   27.6869 C   0  0  0  0  0  0
   -0.4918   51.8811   26.4320 C   0  0  1  0  0  0
   -1.0966   52.7833   26.4645 H   0  0  0  0  0  0
    0.9630   52.4023   26.3869 C   0  0  0  0  0  0
    1.7515   52.0958   27.2811 O   0  0  0  0  0  0
    1.2858   53.1531   25.3095 N   0  0  0  0  0  0
    2.5445   53.6593   25.0223 C   0  0  0  0  0  0
    3.5783   54.1803   25.8347 C   0  0  0  0  0  0
    4.7441   54.3792   25.0425 C   0  0  0  0  0  0
    4.5420   54.1045   23.6766 C   0  0  0  0  0  0
    2.9229   53.6276   23.3397 S   0  0  0  0  0  0
    5.5598   54.3175   22.5609 C   0  0  0  0  0  0
    6.9437   54.6417   23.1684 C   0  0  0  0  0  0
    6.8384   55.5912   24.3703 C   0  0  0  0  0  0
    6.0782   54.9489   25.5369 C   0  0  0  0  0  0
    3.4545   54.4962   27.2669 C   0  0  0  0  0  0
    2.4099   54.8966   27.7887 O   0  0  0  0  0  0
    4.6014   54.2567   27.9430 O   0  0  0  0  0  0
    4.6460   54.3721   29.3591 C   0  0  0  0  0  0
    4.0410   53.1202   30.0232 C   0  0  0  0  0  0
   -0.8598   51.1509   25.2004 N   0  0  0  0  0  0
   -0.3042   49.9938   24.6812 C   0  0  0  0  0  0
   -0.8376   49.6753   23.5334 N   0  0  0  0  0  0
   -1.8015   50.6363   23.2578 N   0  0  0  0  0  0
   -1.8190   51.4860   24.2544 C   0  0  0  0  0  0
   -2.8715   52.8963   24.2837 S   0  0  0  0  0  0
   -3.7877   52.4982   25.8043 C   0  0  0  0  0  0
   -5.2751   52.7218   25.6193 C   0  0  0  0  0  0
   -6.0568   51.7240   25.0280 C   0  0  0  0  0  0
   -7.4265   51.9174   24.8714 C   0  0  0  0  0  0
   -8.0106   53.1055   25.3080 C   0  0  0  0  0  0
   -7.2349   54.1002   25.9018 C   0  0  0  0  0  0
   -5.8664   53.9092   26.0585 C   0  0  0  0  0  0
    0.7044   49.2965   25.2804 N   0  0  0  0  0  0
   -1.2183   51.1925   29.8380 H   0  0  0  0  0  0
    0.4107   51.6298   29.3618 H   0  0  0  0  0  0
   -0.9004   52.7525   29.0717 H   0  0  0  0  0  0
   -1.9195   50.7506   27.6221 H   0  0  0  0  0  0
   -0.3215   50.0988   27.6796 H   0  0  0  0  0  0
    0.6495   53.0879   24.5285 H   0  0  0  0  0  0
    5.2521   55.1532   21.9282 H   0  0  0  0  0  0
    5.6298   53.4412   21.9168 H   0  0  0  0  0  0
    7.5817   55.0771   22.3978 H   0  0  0  0  0  0
    7.4406   53.7192   23.4793 H   0  0  0  0  0  0
    6.3083   56.4950   24.0790 H   0  0  0  0  0  0
    7.8239   55.9152   24.7005 H   0  0  0  0  0  0
    6.6683   54.1487   25.9842 H   0  0  0  0  0  0
    5.9356   55.6960   26.3167 H   0  0  0  0  0  0
    5.6861   54.4999   29.6550 H   0  0  0  0  0  0
    4.1265   55.2749   29.6817 H   0  0  0  0  0  0
    4.1264   53.1665   31.1073 H   0  0  0  0  0  0
    2.9832   53.0077   29.7818 H   0  0  0  0  0  0
    4.5515   52.2173   29.6848 H   0  0  0  0  0  0
   -3.6229   51.4627   26.1059 H   0  0  0  0  0  0
   -3.4217   53.1210   26.6196 H   0  0  0  0  0  0
   -5.6035   50.8029   24.6887 H   0  0  0  0  0  0
   -8.0343   51.1510   24.4110 H   0  0  0  0  0  0
   -9.0720   53.2544   25.1820 H   0  0  0  0  0  0
   -7.6999   55.0161   26.2350 H   0  0  0  0  0  0
   -5.2668   54.6798   26.5197 H   0  0  0  0  0  0
    1.1643   48.5164   24.8252 H   0  0  0  0  0  0
    0.9080   49.4108   26.2623 H   0  0  0  0  0  0
  1  2  1  0  0  0
  1 36  1  0  0  0
  1 37  1  0  0  0
  1 38  1  0  0  0
  2  3  1  0  0  0
  2 39  1  0  0  0
  2 40  1  0  0  0
  3  4  1  0  0  0
  3  5  1  0  0  0
  3 22  1  0  0  0
  5  6  2  0  0  0
  5  7  1  0  0  0
  7  8  1  0  0  0
  7 41  1  0  0  0
  8 12  1  0  0  0
  8  9  2  0  0  0
  9 10  1  0  0  0
  9 17  1  0  0  0
 10 16  1  0  0  0
 10 11  2  0  0  0
 11 12  1  0  0  0
 11 13  1  0  0  0
 13 14  1  0  0  0
 13 42  1  0  0  0
 13 43  1  0  0  0
 14 15  1  0  0  0
 14 44  1  0  0  0
 14 45  1  0  0  0
 15 16  1  0  0  0
 15 46  1  0  0  0
 15 47  1  0  0  0
 16 48  1  0  0  0
 16 49  1  0  0  0
 17 18  2  0  0  0
 17 19  1  0  0  0
 19 20  1  0  0  0
 20 21  1  0  0  0
 20 50  1  0  0  0
 20 51  1  0  0  0
 21 52  1  0  0  0
 21 53  1  0  0  0
 21 54  1  0  0  0
 22 26  1  0  0  0
 22 23  1  0  0  0
 23 24  2  0  0  0
 23 35  1  0  0  0
 24 25  1  0  0  0
 25 26  2  0  0  0
 26 27  1  0  0  0
 27 28  1  0  0  0
 28 29  1  0  0  0
 28 55  1  0  0  0
 28 56  1  0  0  0
 29 34  2  0  0  0
 29 30  1  0  0  0
 30 31  2  0  0  0
 30 57  1  0  0  0
 31 32  1  0  0  0
 31 58  1  0  0  0
 32 33  2  0  0  0
 32 59  1  0  0  0
 33 34  1  0  0  0
 33 60  1  0  0  0
 34 61  1  0  0  0
 35 62  1  0  0  0
 35 63  1  0  0  0
M  END
> <i_i_glide_confnum>
124

> <i_i_glide_lignum>
3028

> <i_i_glide_posenum>
90

> <i_i_glide_rotatable_bonds>
11

> <i_m_Source_File_Index>
1577

> <b_m_subgroup_collapsed>
0

> <r_i_docking_score>
-5.07948

> <r_i_glide_ecoul>
-1.56242

> <r_i_glide_eff_state_penalty>
0

> <r_i_glide_einternal>
8.6449

> <r_i_glide_emodel>
-57.7821

> <r_i_glide_energy>
-47.6328

> <r_i_glide_erotb>
0.735942

> <r_i_glide_esite>
-0.0797766

> <r_i_glide_evdw>
-46.0704

> <r_i_glide_gscore>
-5.07948

> <r_i_glide_hbond>
-0.247592

> <r_i_glide_ligand_efficiency>
-0.149396

> <r_i_glide_ligand_efficiency_ln>
-1.1222

> <r_i_glide_ligand_efficiency_sa>
-0.483986

> <r_i_glide_lipo>
-2.45968

> <r_i_glide_metal>
0

> <r_i_glide_rewards>
-0.490486

> <s_i_glide_gridfile>
wee1_glide-grid

> <s_m_Source_File>
wee1_decoys_glide_SP.sdf

> <s_m_Source_Path>
/Users/zhangxujun/Desktop

> <s_m_entry_id>
1852

> <s_m_entry_name>
wee1_decoys_glide_SP.1577

> <s_m_subgroup_title>
wee1_decoys_glide_SP

> <s_m_subgroupid>
wee1_decoys_glide_SP


$$$$
