@<TRIPOS>MOLECULE
ZINC33009313_2366
63   66    1
SMALL
USER_CHARGES


@<TRIPOS>ATOM
      1 C1         -0.9453   44.4922   20.1474 C.3       1 UNK         0.0000 
      2 C2         -1.3633   45.6532   19.2334 C.3       1 UNK         0.0000 
      3 C3         -0.3944   46.8257   19.2800 C.ar      1 UNK         0.0000 
      4 C4         -0.5744   47.8441   20.2172 C.ar      1 UNK         0.0000 
      5 C5          0.3020   48.9261   20.2531 C.ar      1 UNK         0.0000 
      6 C6          1.3656   48.9981   19.3405 C.ar      1 UNK         0.0000 
      7 C7          1.5370   47.9777   18.4023 C.ar      1 UNK         0.0000 
      8 C8          0.6653   46.8928   18.3745 C.ar      1 UNK         0.0000 
      9 N9          2.3044   50.0447   19.2811 N.am      1 UNK         0.0000 
     10 C10         2.4666   51.1124   20.0879 C.2       1 UNK         0.0000 
     11 O11         1.7700   51.3958   21.0634 O.2       1 UNK         0.0000 
     12 N12         3.5381   51.8170   19.6813 N.am      1 UNK         0.0000 
     13 C13         4.1969   52.9040   20.2949 C.ar      1 UNK         0.0000 
     14 C14         4.2444   52.9747   21.6946 C.ar      1 UNK         0.0000 
     15 C15         4.9786   53.9589   22.3517 C.ar      1 UNK         0.0000 
     16 C16         5.6857   54.8967   21.5982 C.ar      1 UNK         0.0000 
     17 C17         5.5990   54.8720   20.2088 C.ar      1 UNK         0.0000 
     18 C18         4.8417   53.9056   19.5197 C.ar      1 UNK         0.0000 
     19 N19         4.7843   53.9934   18.1059 N.pl3     1 UNK         0.0000 
     20 C20         5.3060   55.1111   17.3051 C.3       1 UNK         0.0000 
     21 C21         4.6940   55.0364   15.9087 C.3       1 UNK         0.0000 
     22 C22         4.4507   53.5565   15.7422 C.3       1 UNK         0.0000 
     23 C23         4.0611   53.1382   17.1550 C.3       1 UNK         0.0000 
     24 N24         4.9104   53.9395   23.7514 N.am      1 UNK         0.0000 
     25 C25         5.6303   54.5925   24.6874 C.2       1 UNK         0.0000 
     26 O26         6.6145   55.2989   24.4650 O.2       1 UNK         0.0000 
     27 C27         5.1452   54.3602   26.0997 C.ar      1 UNK         0.0000 
     28 C28         3.7900   54.0952   26.3605 C.ar      1 UNK         0.0000 
     29 C29         3.3604   53.8173   27.6519 C.ar      1 UNK         0.0000 
     30 C30         4.2754   53.8119   28.7016 C.ar      1 UNK         0.0000 
     31 C31         5.6151   54.1232   28.4654 C.ar      1 UNK         0.0000 
     32 C32         6.0486   54.3964   27.1700 C.ar      1 UNK         0.0000 
     33 C33         3.8001   53.4771   30.1006 C.3       1 UNK         0.0000 
     34 H34        -1.6638   43.6752   20.0846 H         1 UNK         0.0000 
     35 H35         0.0322   44.0972   19.8673 H         1 UNK         0.0000 
     36 H36        -0.8956   44.8094   21.1899 H         1 UNK         0.0000 
     37 H37        -2.3614   46.0012   19.5059 H         1 UNK         0.0000 
     38 H38        -1.4551   45.3034   18.2035 H         1 UNK         0.0000 
     39 H39        -1.3921   47.8001   20.9214 H         1 UNK         0.0000 
     40 H40         0.1284   49.6930   20.9903 H         1 UNK         0.0000 
     41 H41         2.3460   48.0217   17.6855 H         1 UNK         0.0000 
     42 H42         0.8115   46.1130   17.6416 H         1 UNK         0.0000 
     43 H43         2.9859   49.9449   18.5390 H         1 UNK         0.0000 
     44 H44         3.9324   51.5593   18.7843 H         1 UNK         0.0000 
     45 H45         3.7297   52.2310   22.2838 H         1 UNK         0.0000 
     46 H46         6.2734   55.6709   22.0674 H         1 UNK         0.0000 
     47 H47         6.1387   55.6350   19.6699 H         1 UNK         0.0000 
     48 H48         4.9734   56.0511   17.7492 H         1 UNK         0.0000 
     49 H49         6.3956   55.0972   17.2529 H         1 UNK         0.0000 
     50 H50         3.7650   55.6081   15.8643 H         1 UNK         0.0000 
     51 H51         5.3618   55.4348   15.1443 H         1 UNK         0.0000 
     52 H52         5.3475   53.0259   15.4173 H         1 UNK         0.0000 
     53 H53         3.6638   53.3425   15.0180 H         1 UNK         0.0000 
     54 H54         4.3536   52.0979   17.2899 H         1 UNK         0.0000 
     55 H55         2.9828   53.2106   17.3098 H         1 UNK         0.0000 
     56 H56         4.2020   53.3255   24.1226 H         1 UNK         0.0000 
     57 H57         3.0535   54.0873   25.5698 H         1 UNK         0.0000 
     58 H58         2.3184   53.5929   27.8294 H         1 UNK         0.0000 
     59 H59         6.3269   54.1511   29.2788 H         1 UNK         0.0000 
     60 H60         7.0947   54.6129   27.0059 H         1 UNK         0.0000 
     61 H61         4.0012   52.4297   30.3313 H         1 UNK         0.0000 
     62 H62         4.3044   54.0979   30.8393 H         1 UNK         0.0000 
     63 H63         2.7296   53.6592   30.2069 H         1 UNK         0.0000 
@<TRIPOS>BOND
     1    1    2 1    
     2    1   34 1    
     3    1   35 1    
     4    1   36 1    
     5    2    3 1    
     6    2   37 1    
     7    2   38 1    
     8    3    8 ar   
     9    3    4 ar   
    10    4    5 ar   
    11    4   39 1    
    12    5    6 ar   
    13    5   40 1    
    14    6    7 ar   
    15    6    9 1    
    16    7    8 ar   
    17    7   41 1    
    18    8   42 1    
    19    9   10 am   BACKBONE|DICT|INTERRES
    20    9   43 1    
    21   10   11 2    
    22   10   12 am   BACKBONE|DICT|INTERRES
    23   12   13 1    
    24   12   44 1    
    25   13   18 ar   
    26   13   14 ar   
    27   14   15 ar   
    28   14   45 1    
    29   15   16 ar   
    30   15   24 1    
    31   16   17 ar   
    32   16   46 1    
    33   17   18 ar   
    34   17   47 1    
    35   18   19 1    
    36   19   23 1    
    37   19   20 1    
    38   20   21 1    
    39   20   48 1    
    40   20   49 1    
    41   21   22 1    
    42   21   50 1    
    43   21   51 1    
    44   22   23 1    
    45   22   52 1    
    46   22   53 1    
    47   23   54 1    
    48   23   55 1    
    49   24   25 am   BACKBONE|DICT|INTERRES
    50   24   56 1    
    51   25   26 2    
    52   25   27 1    
    53   27   32 ar   
    54   27   28 ar   
    55   28   29 ar   
    56   28   57 1    
    57   29   30 ar   
    58   29   58 1    
    59   30   31 ar   
    60   30   33 1    
    61   31   32 ar   
    62   31   59 1    
    63   32   60 1    
    64   33   61 1    
    65   33   62 1    
    66   33   63 1    
@<TRIPOS>SUBSTRUCTURE
     1 UNK         1 GROUP             0       ****    0 ROOT    
