@<TRIPOS>MOLECULE
ZINC35685008_2741
48   51    1
SMALL
USER_CHARGES


@<TRIPOS>ATOM
      1 C1          5.1311   53.3348   28.8815 C.3       1 UNK         0.0000 
      2 C2          3.7335   53.6540   28.4329 C.ar      1 UNK         0.0000 
      3 C3          3.2897   54.0476   27.1484 C.ar      1 UNK         0.0000 
      4 N4          1.9749   54.0945   27.0922 N.2       1 UNK         0.0000 
      5 N5          1.5368   53.6365   28.2675 N.pl3     1 UNK         0.0000 
      6 C6          2.5720   53.3792   29.1441 C.ar      1 UNK         0.0000 
      7 N7          2.3760   52.8720   30.4041 N.2       1 UNK         0.0000 
      8 C8          1.1861   52.6705   30.8116 C.2       1 UNK         0.0000 
      9 C9         -0.0955   52.9623   30.0170 C.3       1 UNK         0.0000 
     10 C10         0.1850   53.0760   28.4619 C.3       1 UNK         0.0000 
     11 H11        -0.5412   53.6965   27.9399 H         1 UNK         0.0000 
     12 C12         0.1298   51.6920   27.7633 C.2       1 UNK         0.0000 
     13 O13         1.0484   50.8968   27.9587 O.2       1 UNK         0.0000 
     14 N14        -0.8973   51.4537   26.9167 N.am      1 UNK         0.0000 
     15 C15        -1.0342   50.3598   26.0391 C.ar      1 UNK         0.0000 
     16 C16         0.0582   49.6747   25.4836 C.ar      1 UNK         0.0000 
     17 C17        -0.1462   48.6090   24.6127 C.ar      1 UNK         0.0000 
     18 C18        -1.4406   48.2139   24.2844 C.ar      1 UNK         0.0000 
     19 C19        -2.5487   48.8890   24.8228 C.ar      1 UNK         0.0000 
     20 C20        -2.3284   49.9694   25.6826 C.ar      1 UNK         0.0000 
     21 O21        -3.8670   48.5650   24.5637 O.3       1 UNK         0.0000 
     22 C22        -4.1892   47.3606   23.8695 C.3       1 UNK         0.0000 
     23 F23        -5.5160   47.2471   23.8629 F         1 UNK         0.0000 
     24 F24        -3.7806   47.4020   22.6002 F         1 UNK         0.0000 
     25 F25        -3.6978   46.2812   24.4836 F         1 UNK         0.0000 
     26 O26         1.0100   52.1037   32.0491 O.3       1 UNK         0.0000 
     27 C27         4.1152   54.2923   25.9135 C.ar      1 UNK         0.0000 
     28 C28         3.5741   54.0076   24.6509 C.ar      1 UNK         0.0000 
     29 C29         4.3624   54.0966   23.5067 C.ar      1 UNK         0.0000 
     30 C30         5.6906   54.4966   23.6140 C.ar      1 UNK         0.0000 
     31 C31         6.2290   54.8334   24.8521 C.ar      1 UNK         0.0000 
     32 C32         5.4427   54.7343   25.9985 C.ar      1 UNK         0.0000 
     33 F33         6.4576   54.5807   22.5044 F         1 UNK         0.0000 
     34 H34         5.7429   52.9238   28.0782 H         1 UNK         0.0000 
     35 H35         5.6448   54.2092   29.2814 H         1 UNK         0.0000 
     36 H36         5.1049   52.5618   29.6510 H         1 UNK         0.0000 
     37 H37        -0.8471   52.2001   30.2343 H         1 UNK         0.0000 
     38 H38        -0.4947   53.9080   30.3805 H         1 UNK         0.0000 
     39 H39        -1.6831   52.0830   26.9414 H         1 UNK         0.0000 
     40 H40         1.0740   49.9529   25.7148 H         1 UNK         0.0000 
     41 H41         0.7046   48.0880   24.2006 H         1 UNK         0.0000 
     42 H42        -1.5597   47.3798   23.6112 H         1 UNK         0.0000 
     43 H43        -3.1829   50.4810   26.1002 H         1 UNK         0.0000 
     44 H44         0.0725   52.0661   32.2876 H         1 UNK         0.0000 
     45 H45         2.5541   53.6649   24.5542 H         1 UNK         0.0000 
     46 H46         3.9489   53.8507   22.5396 H         1 UNK         0.0000 
     47 H47         7.2568   55.1578   24.9129 H         1 UNK         0.0000 
     48 H48         5.8782   54.9908   26.9521 H         1 UNK         0.0000 
@<TRIPOS>BOND
     1    1    2 1    
     2    1   34 1    
     3    1   35 1    
     4    1   36 1    
     5    2    6 ar   
     6    2    3 ar   
     7    3    4 ar   
     8    3   27 1    
     9    4    5 ar   
    10    5   10 1    
    11    5    6 ar   
    12    6    7 1    
    13    7    8 2    
    14    8    9 1    
    15    8   26 1    
    16    9   10 1    
    17    9   37 1    
    18    9   38 1    
    19   10   11 1    
    20   10   12 1    
    21   12   13 2    
    22   12   14 am   BACKBONE|DICT|INTERRES
    23   14   15 1    
    24   14   39 1    
    25   15   20 ar   
    26   15   16 ar   
    27   16   17 ar   
    28   16   40 1    
    29   17   18 ar   
    30   17   41 1    
    31   18   19 ar   
    32   18   42 1    
    33   19   20 ar   
    34   19   21 1    
    35   20   43 1    
    36   21   22 1    
    37   22   23 1    
    38   22   24 1    
    39   22   25 1    
    40   26   44 1    
    41   27   32 ar   
    42   27   28 ar   
    43   28   29 ar   
    44   28   45 1    
    45   29   30 ar   
    46   29   46 1    
    47   30   31 ar   
    48   30   33 1    
    49   31   32 ar   
    50   31   47 1    
    51   32   48 1    
@<TRIPOS>SUBSTRUCTURE
     1 UNK         1 GROUP             0       ****    0 ROOT    
