@<TRIPOS>MOLECULE
ZINC13312220_522
55   58    1
SMALL
USER_CHARGES


@<TRIPOS>ATOM
      1 C1          5.8772   55.1576   25.6839 C.3       1 UNK         0.0000 
      2 C2          4.5462   54.4977   26.0285 C.ar      1 UNK         0.0000 
      3 C3          4.2082   54.3797   27.3794 C.ar      1 UNK         0.0000 
      4 C4          3.0071   53.7866   27.7800 C.ar      1 UNK         0.0000 
      5 C5          2.1538   53.2876   26.7879 C.ar      1 UNK         0.0000 
      6 C6          2.4809   53.3471   25.4271 C.ar      1 UNK         0.0000 
      7 C7          3.6770   53.9931   25.0373 C.ar      1 UNK         0.0000 
      8 C8          4.0266   54.1618   23.5580 C.3       1 UNK         0.0000 
      9 S9          1.3160   52.6060   24.2392 S.o2      1 UNK         0.0000 
     10 O10         2.0844   52.1332   23.0814 O.2       1 UNK         0.0000 
     11 O11         0.2484   53.5996   24.0816 O.2       1 UNK         0.0000 
     12 N12         0.6134   51.1641   25.0238 N.pl3     1 UNK         0.0000 
     13 C13         1.0447   49.7841   24.6471 C.3       1 UNK         0.0000 
     14 C14        -0.1518   48.9362   24.1794 C.3       1 UNK         0.0000 
     15 C15        -1.2069   48.9515   25.3180 C.3       1 UNK         0.0000 
     16 C16        -1.7161   50.4019   25.5288 C.3       1 UNK         0.0000 
     17 C17        -0.5289   51.2829   25.9690 C.3       1 UNK         0.0000 
     18 C18        -2.4045   48.0626   24.9311 C.2       1 UNK         0.0000 
     19 O19        -2.9384   48.2065   23.8296 O.2       1 UNK         0.0000 
     20 N20        -2.8097   47.1849   25.8739 N.am      1 UNK         0.0000 
     21 C21        -3.8583   46.2486   25.8181 C.ar      1 UNK         0.0000 
     22 C22        -4.4953   45.8362   24.6221 C.ar      1 UNK         0.0000 
     23 C23        -5.5279   44.8892   24.6430 C.ar      1 UNK         0.0000 
     24 C24        -5.9097   44.3817   25.8772 C.ar      1 UNK         0.0000 
     25 C25        -5.3050   44.7757   27.0354 C.ar      1 UNK         0.0000 
     26 C26        -4.2624   45.6969   27.0457 C.ar      1 UNK         0.0000 
     27 O27        -5.8720   44.1201   28.0815 O.3       1 UNK         0.0000 
     28 C28        -6.9549   43.4008   27.5515 C.3       1 UNK         0.0000 
     29 O29        -6.8550   43.4458   26.1521 O.3       1 UNK         0.0000 
     30 C30         2.6474   53.6775   29.2349 C.2       1 UNK         0.0000 
     31 O31         3.4720   54.0968   30.0821 O.co2     1 UNK         0.0000 
     32 H32         5.7147   56.1123   25.1813 H         1 UNK         0.0000 
     33 H33         6.4940   55.3306   26.5667 H         1 UNK         0.0000 
     34 H34         6.4548   54.5191   25.0143 H         1 UNK         0.0000 
     35 H35         4.8850   54.7688   28.1287 H         1 UNK         0.0000 
     36 H36         1.2277   52.8276   27.0911 H         1 UNK         0.0000 
     37 H37         4.8026   54.8967   23.3721 H         1 UNK         0.0000 
     38 H38         4.3613   53.2178   23.1302 H         1 UNK         0.0000 
     39 H39         3.1547   54.5019   22.9975 H         1 UNK         0.0000 
     40 H40         1.5041   49.2991   25.5088 H         1 UNK         0.0000 
     41 H41         1.8090   49.8367   23.8720 H         1 UNK         0.0000 
     42 H42         0.2418   47.9325   24.0055 H         1 UNK         0.0000 
     43 H43        -0.5202   49.3869   23.2546 H         1 UNK         0.0000 
     44 H44        -0.7837   48.5366   26.2338 H         1 UNK         0.0000 
     45 H45        -2.1046   50.8419   24.6070 H         1 UNK         0.0000 
     46 H46        -2.4477   50.4581   26.3374 H         1 UNK         0.0000 
     47 H47        -0.1781   51.0001   26.9624 H         1 UNK         0.0000 
     48 H48        -0.8317   52.3283   26.0333 H         1 UNK         0.0000 
     49 H49        -2.3549   47.2888   26.7760 H         1 UNK         0.0000 
     50 H50        -4.2029   46.2279   23.6603 H         1 UNK         0.0000 
     51 H51        -6.0078   44.5733   23.7291 H         1 UNK         0.0000 
     52 H52        -3.7836   45.9840   27.9730 H         1 UNK         0.0000 
     53 H53        -6.9322   42.3656   27.8973 H         1 UNK         0.0000 
     54 H54        -7.8868   43.8807   27.8562 H         1 UNK         0.0000 
     55 O55         1.5417   53.1668   29.5299 O.co2     1 UNK         0.0000 
@<TRIPOS>BOND
     1    1    2 1    
     2    1   32 1    
     3    1   33 1    
     4    1   34 1    
     5    2    7 ar   
     6    2    3 ar   
     7    3    4 ar   
     8    3   35 1    
     9    4    5 ar   
    10    4   30 1    
    11    5    6 ar   
    12    5   36 1    
    13    6    7 ar   
    14    6    9 1    
    15    7    8 1    
    16    8   37 1    
    17    8   38 1    
    18    8   39 1    
    19    9   10 2    
    20    9   11 2    
    21    9   12 1    
    22   12   17 1    
    23   12   13 1    
    24   13   14 1    
    25   13   40 1    
    26   13   41 1    
    27   14   15 1    
    28   14   42 1    
    29   14   43 1    
    30   15   16 1    
    31   15   18 1    
    32   15   44 1    
    33   16   17 1    
    34   16   45 1    
    35   16   46 1    
    36   17   47 1    
    37   17   48 1    
    38   18   19 2    
    39   18   20 am   BACKBONE|DICT|INTERRES
    40   20   21 1    
    41   20   49 1    
    42   21   26 ar   
    43   21   22 ar   
    44   22   23 ar   
    45   22   50 1    
    46   23   24 ar   
    47   23   51 1    
    48   24   29 1    
    49   24   25 ar   
    50   25   26 ar   
    51   25   27 1    
    52   26   52 1    
    53   27   28 1    
    54   28   29 1    
    55   28   53 1    
    56   28   54 1    
    57   30   31 2    
    58   30   55 1    
@<TRIPOS>SUBSTRUCTURE
     1 UNK         1 GROUP             0       ****    0 ROOT    
