@<TRIPOS>MOLECULE
ZINC40232071_4792
27   28    1
SMALL
USER_CHARGES


@<TRIPOS>ATOM
      1 C1          5.9214   54.4701   24.5667 C.2       1 UNK         0.0000 
      2 C2          6.3047   54.4968   23.2208 C.2       1 UNK         0.0000 
      3 C3          5.2393   54.3051   22.3545 C.2       1 UNK         0.0000 
      4 S4          3.7422   54.0963   23.2029 S.3       1 UNK         0.0000 
      5 C5          4.5626   54.2018   24.7473 C.2       1 UNK         0.0000 
      6 C6          3.8646   54.0960   26.0089 C.2       1 UNK         0.0000 
      7 O7          4.3777   54.5279   27.0410 O.2       1 UNK         0.0000 
      8 N8          2.6784   53.4515   25.9352 N.am      1 UNK         0.0000 
      9 C9          1.8107   53.0155   26.9590 C.ar      1 UNK         0.0000 
     10 C10         2.1229   53.0350   28.3290 C.ar      1 UNK         0.0000 
     11 C11         1.2116   52.5639   29.2896 C.ar      1 UNK         0.0000 
     12 C12        -0.0356   52.0820   28.8564 C.ar      1 UNK         0.0000 
     13 C13        -0.3423   52.0456   27.4994 C.ar      1 UNK         0.0000 
     14 C14         0.5748   52.4962   26.5550 C.ar      1 UNK         0.0000 
     15 F15         0.2477   52.4385   25.2412 F         1 UNK         0.0000 
     16 F16        -0.9642   51.6351   29.7315 F         1 UNK         0.0000 
     17 C17         1.6399   52.4968   30.7358 C.2       1 UNK         0.0000 
     18 O18         2.8227   52.3430   31.0327 O.2       1 UNK         0.0000 
     19 N19         0.7056   52.5938   31.6820 N.am      1 UNK         0.0000 
     20 Br20        5.2737   54.2888   20.4530 Br        1 UNK         0.0000 
     21 H21         6.6155   54.6073   25.3835 H         1 UNK         0.0000 
     22 H22         7.3174   54.6618   22.8838 H         1 UNK         0.0000 
     23 H23         2.3668   53.2144   25.0052 H         1 UNK         0.0000 
     24 H24         3.0886   53.3853   28.6614 H         1 UNK         0.0000 
     25 H25        -1.2937   51.6480   27.1781 H         1 UNK         0.0000 
     26 H26        -0.2771   52.4954   31.4605 H         1 UNK         0.0000 
     27 H27         0.9776   52.5170   32.6511 H         1 UNK         0.0000 
@<TRIPOS>BOND
     1    1    5 2    
     2    1    2 1    
     3    1   21 1    
     4    2    3 2    
     5    2   22 1    
     6    3    4 1    
     7    3   20 1    
     8    4    5 1    
     9    5    6 1    
    10    6    7 2    
    11    6    8 am   BACKBONE|DICT|INTERRES
    12    8    9 1    
    13    8   23 1    
    14    9   14 ar   
    15    9   10 ar   
    16   10   11 ar   
    17   10   24 1    
    18   11   12 ar   
    19   11   17 1    
    20   12   13 ar   
    21   12   16 1    
    22   13   14 ar   
    23   13   25 1    
    24   14   15 1    
    25   17   18 2    
    26   17   19 am   BACKBONE|DICT|INTERRES
    27   19   26 1    
    28   19   27 1    
@<TRIPOS>SUBSTRUCTURE
     1 UNK         1 GROUP             0       ****    0 ROOT    
