@<TRIPOS>MOLECULE
ZINC19820016_2682
60   64    1
SMALL
USER_CHARGES


@<TRIPOS>ATOM
      1 C1         -5.0626   53.8886   24.9407 C.3       1 UNK         0.0000 
      2 N2         -4.2191   52.9579   25.6938 N.pl3     1 UNK         0.0000 
      3 C3         -4.8833   52.1697   26.7340 C.3       1 UNK         0.0000 
      4 C4         -2.9863   52.4963   25.1518 C.ar      1 UNK         0.0000 
      5 C5         -2.1689   51.6068   25.8685 C.ar      1 UNK         0.0000 
      6 C6         -0.9407   51.1923   25.3620 C.ar      1 UNK         0.0000 
      7 C7         -0.4976   51.6578   24.1220 C.ar      1 UNK         0.0000 
      8 C8         -1.3094   52.5159   23.3848 C.ar      1 UNK         0.0000 
      9 C9         -2.5366   52.9302   23.8935 C.ar      1 UNK         0.0000 
     10 C10         0.8751   51.2421   23.5635 C.3       1 UNK         0.0000 
     11 H11         1.2970   50.6006   24.3423 H         1 UNK         0.0000 
     12 C12         0.8133   50.3874   22.2672 C.ar      1 UNK         0.0000 
     13 C13         1.6216   50.6656   21.2166 C.ar      1 UNK         0.0000 
     14 N14         1.6012   49.8938   20.0804 N.pl3     1 UNK         0.0000 
     15 H15         2.2336   50.0848   19.3185 H         1 UNK         0.0000 
     16 C16         0.7108   48.8327   19.9742 C.ar      1 UNK         0.0000 
     17 N17        -0.0858   48.5434   20.9441 N.2       1 UNK         0.0000 
     18 C18        -0.0552   49.1971   22.1922 C.ar      1 UNK         0.0000 
     19 O19        -0.6489   48.8274   23.2010 O.2       1 UNK         0.0000 
     20 N20         0.6686   48.0586   18.7619 N.pl3     1 UNK         0.0000 
     21 C21        -0.2371   46.9055   18.5749 C.3       1 UNK         0.0000 
     22 C22         0.4815   45.6404   18.0663 C.3       1 UNK         0.0000 
     23 C23         1.2926   45.9143   16.7960 C.3       1 UNK         0.0000 
     24 C24         2.2394   47.0958   17.0293 C.3       1 UNK         0.0000 
     25 C25         1.5159   48.3394   17.5853 C.3       1 UNK         0.0000 
     26 N26         2.4867   51.7220   21.2170 N.pl3     1 UNK         0.0000 
     27 C27         2.6134   52.6019   22.2691 C.2       1 UNK         0.0000 
     28 C28         1.9050   52.4129   23.4230 C.2       1 UNK         0.0000 
     29 C29         2.1382   53.2967   24.5986 C.2       1 UNK         0.0000 
     30 O30         1.5274   53.1720   25.6595 O.2       1 UNK         0.0000 
     31 C31         3.1616   54.4345   24.4424 C.3       1 UNK         0.0000 
     32 C32         4.2791   54.0733   23.4490 C.3       1 UNK         0.0000 
     33 C33         3.6943   53.6664   22.0883 C.3       1 UNK         0.0000 
     34 H34        -5.5104   53.3826   24.0830 H         1 UNK         0.0000 
     35 H35        -4.4847   54.7348   24.5658 H         1 UNK         0.0000 
     36 H36        -5.8683   54.2912   25.5562 H         1 UNK         0.0000 
     37 H37        -4.2585   52.0752   27.6226 H         1 UNK         0.0000 
     38 H38        -5.8341   52.6113   27.0357 H         1 UNK         0.0000 
     39 H39        -5.0884   51.1648   26.3657 H         1 UNK         0.0000 
     40 H40        -2.4583   51.2301   26.8375 H         1 UNK         0.0000 
     41 H41        -0.3338   50.5133   25.9469 H         1 UNK         0.0000 
     42 H42        -0.9785   52.8846   22.4262 H         1 UNK         0.0000 
     43 H43        -3.1220   53.6073   23.2921 H         1 UNK         0.0000 
     44 H44        -0.7071   46.6347   19.5223 H         1 UNK         0.0000 
     45 H45        -1.0726   47.2071   17.9390 H         1 UNK         0.0000 
     46 H46         1.1041   45.2266   18.8586 H         1 UNK         0.0000 
     47 H47        -0.2580   44.8670   17.8584 H         1 UNK         0.0000 
     48 H48         0.6190   46.1437   15.9703 H         1 UNK         0.0000 
     49 H49         1.8544   45.0266   16.4995 H         1 UNK         0.0000 
     50 H50         2.7069   47.3571   16.0800 H         1 UNK         0.0000 
     51 H51         3.0721   46.8321   17.6818 H         1 UNK         0.0000 
     52 H52         0.9317   48.8603   16.8261 H         1 UNK         0.0000 
     53 H53         2.3031   49.0471   17.8447 H         1 UNK         0.0000 
     54 H54         3.0217   51.8983   20.3793 H         1 UNK         0.0000 
     55 H55         2.6117   55.2921   24.0565 H         1 UNK         0.0000 
     56 H56         3.5444   54.7196   25.4233 H         1 UNK         0.0000 
     57 H57         4.9768   54.8972   23.3219 H         1 UNK         0.0000 
     58 H58         4.8829   53.2694   23.8668 H         1 UNK         0.0000 
     59 H59         3.3357   54.5051   21.4939 H         1 UNK         0.0000 
     60 H60         4.5403   53.2441   21.5428 H         1 UNK         0.0000 
@<TRIPOS>BOND
     1    1    2 1    
     2    1   34 1    
     3    1   35 1    
     4    1   36 1    
     5    2    3 1    
     6    2    4 1    
     7    3   37 1    
     8    3   38 1    
     9    3   39 1    
    10    4    9 ar   
    11    4    5 ar   
    12    5    6 ar   
    13    5   40 1    
    14    6    7 ar   
    15    6   41 1    
    16    7    8 ar   
    17    7   10 1    
    18    8    9 ar   
    19    8   42 1    
    20    9   43 1    
    21   10   11 1    
    22   10   28 1    
    23   10   12 1    
    24   12   18 ar   
    25   12   13 ar   
    26   13   14 ar   
    27   13   26 1    
    28   14   15 1    
    29   14   16 ar   
    30   16   17 ar   
    31   16   20 1    
    32   17   18 ar   
    33   18   19 2    
    34   20   25 1    
    35   20   21 1    
    36   21   22 1    
    37   21   44 1    
    38   21   45 1    
    39   22   23 1    
    40   22   46 1    
    41   22   47 1    
    42   23   24 1    
    43   23   48 1    
    44   23   49 1    
    45   24   25 1    
    46   24   50 1    
    47   24   51 1    
    48   25   52 1    
    49   25   53 1    
    50   26   27 1    
    51   26   54 1    
    52   27   33 1    
    53   27   28 2    
    54   28   29 1    
    55   29   30 2    
    56   29   31 1    
    57   31   32 1    
    58   31   55 1    
    59   31   56 1    
    60   32   33 1    
    61   32   57 1    
    62   32   58 1    
    63   33   59 1    
    64   33   60 1    
@<TRIPOS>SUBSTRUCTURE
     1 UNK         1 GROUP             0       ****    0 ROOT    
