@<TRIPOS>MOLECULE
ZINC40984335_1104
68   71    1
SMALL
USER_CHARGES


@<TRIPOS>ATOM
      1 C1          6.7216   55.0283   22.2950 C.3       1 UNK         0.0000 
      2 C2          5.3890   54.4965   22.7580 C.2       1 UNK         0.0000 
      3 C3          4.2625   53.9720   22.1348 C.2       1 UNK         0.0000 
      4 N4          3.3319   53.7308   23.0501 N.2       1 UNK         0.0000 
      5 C5          3.8813   54.0424   24.2043 C.2       1 UNK         0.0000 
      6 O6          5.1482   54.5142   24.0895 O.3       1 UNK         0.0000 
      7 C7          3.2991   53.8721   25.5743 C.ar      1 UNK         0.0000 
      8 C8          2.0371   53.2970   25.7414 C.ar      1 UNK         0.0000 
      9 C9          1.5044   53.1138   27.0155 C.ar      1 UNK         0.0000 
     10 C10         2.2131   53.5177   28.1583 C.ar      1 UNK         0.0000 
     11 C11         3.4814   54.0984   28.0039 C.ar      1 UNK         0.0000 
     12 C12         4.0150   54.2598   26.7123 C.ar      1 UNK         0.0000 
     13 O13         4.1341   54.4927   29.1584 O.3       1 UNK         0.0000 
     14 C14         5.5047   54.8680   29.1038 C.3       1 UNK         0.0000 
     15 O15         1.7356   53.3666   29.4503 O.3       1 UNK         0.0000 
     16 C16         0.4718   52.7443   29.6676 C.3       1 UNK         0.0000 
     17 C17         4.0430   53.6809   20.6537 C.3       1 UNK         0.0000 
     18 N18         3.1262   52.4511   20.4212 N.4       1 UNK         0.0000 
     19 C19         2.8547   52.2768   18.9038 C.3       1 UNK         0.0000 
     20 C20         1.8817   51.0969   18.6987 C.3       1 UNK         0.0000 
     21 C21         2.4777   49.8241   19.3443 C.3       1 UNK         0.0000 
     22 C22         2.6866   50.0282   20.8581 C.3       1 UNK         0.0000 
     23 C23         3.7217   51.1552   21.0278 C.3       1 UNK         0.0000 
     24 C24         1.5360   48.6339   19.0699 C.2       1 UNK         0.0000 
     25 O25         0.5046   48.4784   19.7261 O.2       1 UNK         0.0000 
     26 N26         1.9059   47.8132   18.0750 N.am      1 UNK         0.0000 
     27 C27         1.1524   46.6623   17.5806 C.3       1 UNK         0.0000 
     28 C28         1.2757   46.4069   16.0782 C.ar      1 UNK         0.0000 
     29 C29         0.7678   45.2149   15.5519 C.ar      1 UNK         0.0000 
     30 C30         0.8588   44.9499   14.1865 C.ar      1 UNK         0.0000 
     31 C31         1.4613   45.8730   13.3322 C.ar      1 UNK         0.0000 
     32 C32         1.9911   47.0662   13.8404 C.ar      1 UNK         0.0000 
     33 C33         1.8966   47.3208   15.2130 C.ar      1 UNK         0.0000 
     34 C34         2.6592   48.0948   12.9277 C.3       1 UNK         0.0000 
     35 F35         3.9678   48.1170   13.1766 F         1 UNK         0.0000 
     36 F36         2.4826   47.8091   11.6358 F         1 UNK         0.0000 
     37 F37         2.1570   49.3083   13.1567 F         1 UNK         0.0000 
     38 H38         7.5519   54.4881   22.7469 H         1 UNK         0.0000 
     39 H39         6.8366   54.9686   21.2110 H         1 UNK         0.0000 
     40 H40         6.8444   56.0755   22.5711 H         1 UNK         0.0000 
     41 H41         1.4647   52.9779   24.8822 H         1 UNK         0.0000 
     42 H42         0.5292   52.6583   27.0957 H         1 UNK         0.0000 
     43 H43         4.9913   54.6958   26.5746 H         1 UNK         0.0000 
     44 H44         5.7963   55.2588   30.0789 H         1 UNK         0.0000 
     45 H45         6.1326   54.0027   28.8845 H         1 UNK         0.0000 
     46 H46         5.7289   55.6433   28.3723 H         1 UNK         0.0000 
     47 H47         0.2700   52.6981   30.7380 H         1 UNK         0.0000 
     48 H48        -0.3381   53.3109   29.2058 H         1 UNK         0.0000 
     49 H49         0.4562   51.7215   29.2875 H         1 UNK         0.0000 
     50 H50         4.9684   53.4789   20.1099 H         1 UNK         0.0000 
     51 H51         3.5260   54.5052   20.1610 H         1 UNK         0.0000 
     52 H52         3.8144   52.1140   18.4065 H         1 UNK         0.0000 
     53 H53         2.4027   53.2051   18.5482 H         1 UNK         0.0000 
     54 H54         1.7826   50.9818   17.6173 H         1 UNK         0.0000 
     55 H55         0.9335   51.3821   19.1578 H         1 UNK         0.0000 
     56 H56         3.4278   49.5528   18.8820 H         1 UNK         0.0000 
     57 H57         1.7727   50.3490   21.3627 H         1 UNK         0.0000 
     58 H58         3.1026   49.1408   21.3366 H         1 UNK         0.0000 
     59 H59         4.6718   50.9590   20.5263 H         1 UNK         0.0000 
     60 H60         3.9002   51.3349   22.0818 H         1 UNK         0.0000 
     61 H61         2.8020   47.9932   17.6312 H         1 UNK         0.0000 
     62 H62         0.0910   46.7440   17.8287 H         1 UNK         0.0000 
     63 H63         1.4953   45.7743   18.1123 H         1 UNK         0.0000 
     64 H64         0.2938   44.4924   16.1996 H         1 UNK         0.0000 
     65 H65         0.4562   44.0293   13.7875 H         1 UNK         0.0000 
     66 H66         1.5123   45.6537   12.2746 H         1 UNK         0.0000 
     67 H67         2.3045   48.2472   15.5958 H         1 UNK         0.0000 
     68 H68         2.2501   52.6498   20.8858 H         1 UNK         0.0000 
@<TRIPOS>BOND
     1    1    2 1    
     2    1   38 1    
     3    1   39 1    
     4    1   40 1    
     5    2    6 1    
     6    2    3 2    
     7    3    4 1    
     8    3   17 1    
     9    4    5 2    
    10    5    6 1    
    11    5    7 1    
    12    7   12 ar   
    13    7    8 ar   
    14    8    9 ar   
    15    8   41 1    
    16    9   10 ar   
    17    9   42 1    
    18   10   11 ar   
    19   10   15 1    
    20   11   12 ar   
    21   11   13 1    
    22   12   43 1    
    23   13   14 1    
    24   14   44 1    
    25   14   45 1    
    26   14   46 1    
    27   15   16 1    
    28   16   47 1    
    29   16   48 1    
    30   16   49 1    
    31   17   18 1    
    32   17   50 1    
    33   17   51 1    
    34   18   23 1    
    35   18   19 1    
    36   18   68 1    
    37   19   20 1    
    38   19   52 1    
    39   19   53 1    
    40   20   21 1    
    41   20   54 1    
    42   20   55 1    
    43   21   22 1    
    44   21   24 1    
    45   21   56 1    
    46   22   23 1    
    47   22   57 1    
    48   22   58 1    
    49   23   59 1    
    50   23   60 1    
    51   24   25 2    
    52   24   26 am   BACKBONE|DICT|INTERRES
    53   26   27 1    
    54   26   61 1    
    55   27   28 1    
    56   27   62 1    
    57   27   63 1    
    58   28   33 ar   
    59   28   29 ar   
    60   29   30 ar   
    61   29   64 1    
    62   30   31 ar   
    63   30   65 1    
    64   31   32 ar   
    65   31   66 1    
    66   32   33 ar   
    67   32   34 1    
    68   33   67 1    
    69   34   35 1    
    70   34   36 1    
    71   34   37 1    
@<TRIPOS>SUBSTRUCTURE
     1 UNK         1 GROUP             0       ****    0 ROOT    
