@<TRIPOS>MOLECULE
ZINC20919834_3727
58   61    1
SMALL
USER_CHARGES


@<TRIPOS>ATOM
      1 C1          1.6484   49.3781   22.3984 C.3       1 UNK         0.0000 
      2 C2          1.5498   50.8898   22.6677 C.3       1 UNK         0.0000 
      3 C3          2.0242   51.6920   21.4406 C.3       1 UNK         0.0000 
      4 C4          0.1216   51.2854   23.1196 C.3       1 UNK         0.0000 
      5 C5         -0.0303   52.7048   23.7254 C.3       1 UNK         0.0000 
      6 N6          0.6600   52.8899   25.0316 N.pl3     1 UNK         0.0000 
      7 C7          1.9018   53.5222   24.9576 C.ar      1 UNK         0.0000 
      8 O8          2.3432   54.0397   23.9277 O.2       1 UNK         0.0000 
      9 C9          2.5975   53.4874   26.2435 C.ar      1 UNK         0.0000 
     10 C10         3.8939   53.9556   26.5563 C.2       1 UNK         0.0000 
     11 C11         4.2221   53.6991   27.8973 C.2       1 UNK         0.0000 
     12 S12         2.9065   52.9695   28.7723 S.3       1 UNK         0.0000 
     13 C13         1.9374   52.9465   27.3425 C.ar      1 UNK         0.0000 
     14 N14         0.6811   52.4275   27.3301 N.2       1 UNK         0.0000 
     15 C15         0.0511   52.4037   26.2036 C.ar      1 UNK         0.0000 
     16 S16        -1.6656   51.7748   26.1947 S.3       1 UNK         0.0000 
     17 C17        -1.9990   51.2964   27.9346 C.3       1 UNK         0.0000 
     18 C18        -3.4649   50.8968   28.2152 C.2       1 UNK         0.0000 
     19 O19        -4.3717   51.3350   27.5029 O.2       1 UNK         0.0000 
     20 N20        -3.6844   50.0969   29.2821 N.am      1 UNK         0.0000 
     21 C21        -4.9152   49.5917   29.6387 C.2       1 UNK         0.0000 
     22 C22        -5.6906   48.5705   29.0498 C.2       1 UNK         0.0000 
     23 C23        -6.9198   48.4502   29.7298 C.2       1 UNK         0.0000 
     24 C24        -7.0255   49.2623   30.8512 C.2       1 UNK         0.0000 
     25 S25        -5.6237   50.2457   31.0830 S.3       1 UNK         0.0000 
     26 C26        -5.3795   47.7747   27.8733 C.2       1 UNK         0.0000 
     27 O27        -6.2491   47.1724   27.2473 O.2       1 UNK         0.0000 
     28 N28        -4.0967   47.6879   27.5193 N.am      1 UNK         0.0000 
     29 C29         5.5851   53.9380   28.5282 C.3       1 UNK         0.0000 
     30 C30         6.5020   54.7257   27.5687 C.3       1 UNK         0.0000 
     31 C31         6.3431   54.3386   26.0923 C.3       1 UNK         0.0000 
     32 C32         4.9051   54.5620   25.5810 C.3       1 UNK         0.0000 
     33 H33         1.0145   49.0750   21.5633 H         1 UNK         0.0000 
     34 H34         2.6717   49.0820   22.1610 H         1 UNK         0.0000 
     35 H35         1.3413   48.8071   23.2751 H         1 UNK         0.0000 
     36 H36         2.2399   51.0975   23.4860 H         1 UNK         0.0000 
     37 H37         1.3877   51.5092   20.5733 H         1 UNK         0.0000 
     38 H38         2.0236   52.7657   21.6274 H         1 UNK         0.0000 
     39 H39         3.0423   51.4183   21.1634 H         1 UNK         0.0000 
     40 H40        -0.2570   50.5530   23.8338 H         1 UNK         0.0000 
     41 H41        -0.5419   51.2067   22.2572 H         1 UNK         0.0000 
     42 H42        -1.0910   52.9358   23.8361 H         1 UNK         0.0000 
     43 H43         0.3093   53.4307   22.9888 H         1 UNK         0.0000 
     44 H44        -1.3115   50.4968   28.1839 H         1 UNK         0.0000 
     45 H45        -1.7152   52.0972   28.6095 H         1 UNK         0.0000 
     46 H46        -2.8872   49.7497   29.8119 H         1 UNK         0.0000 
     47 H47        -7.7004   47.7645   29.4313 H         1 UNK         0.0000 
     48 H48        -7.8534   49.3235   31.5424 H         1 UNK         0.0000 
     49 H49        -3.8449   47.1506   26.7068 H         1 UNK         0.0000 
     50 H50        -3.3522   48.0954   28.0819 H         1 UNK         0.0000 
     51 H51         6.0489   52.9778   28.7544 H         1 UNK         0.0000 
     52 H52         5.4925   54.4947   29.4627 H         1 UNK         0.0000 
     53 H53         7.5389   54.5819   27.8724 H         1 UNK         0.0000 
     54 H54         6.3047   55.7896   27.6811 H         1 UNK         0.0000 
     55 H55         6.6212   53.2944   25.9649 H         1 UNK         0.0000 
     56 H56         7.0435   54.9070   25.4788 H         1 UNK         0.0000 
     57 H57         4.7086   55.6282   25.4655 H         1 UNK         0.0000 
     58 H58         4.8133   54.1319   24.5830 H         1 UNK         0.0000 
@<TRIPOS>BOND
     1    1    2 1    
     2    1   33 1    
     3    1   34 1    
     4    1   35 1    
     5    2    3 1    
     6    2    4 1    
     7    2   36 1    
     8    3   37 1    
     9    3   38 1    
    10    3   39 1    
    11    4    5 1    
    12    4   40 1    
    13    4   41 1    
    14    5    6 1    
    15    5   42 1    
    16    5   43 1    
    17    6   15 ar   
    18    6    7 ar   
    19    7    8 2    
    20    7    9 ar   
    21    9   13 ar   
    22    9   10 1    
    23   10   32 1    
    24   10   11 2    
    25   11   12 1    
    26   11   29 1    
    27   12   13 1    
    28   13   14 ar   
    29   14   15 ar   
    30   15   16 1    
    31   16   17 1    
    32   17   18 1    
    33   17   44 1    
    34   17   45 1    
    35   18   19 2    
    36   18   20 am   BACKBONE|DICT|INTERRES
    37   20   21 am   BACKBONE|DICT|INTERRES
    38   20   46 1    
    39   21   25 1    
    40   21   22 2    
    41   22   23 1    
    42   22   26 1    
    43   23   24 2    
    44   23   47 1    
    45   24   25 1    
    46   24   48 1    
    47   26   27 2    
    48   26   28 am   BACKBONE|DICT|INTERRES
    49   28   49 1    
    50   28   50 1    
    51   29   30 1    
    52   29   51 1    
    53   29   52 1    
    54   30   31 1    
    55   30   53 1    
    56   30   54 1    
    57   31   32 1    
    58   31   55 1    
    59   31   56 1    
    60   32   57 1    
    61   32   58 1    
@<TRIPOS>SUBSTRUCTURE
     1 UNK         1 GROUP             0       ****    0 ROOT    
