ZINC08444533_3633
                    3D
 Schrodinger Suite 2024-2.
 49 52  0  0  1  0            999 V2000
    3.6814   52.1274   30.1182 C   0  0  0  0  0  0
    3.5679   53.6028   29.7079 C   0  0  1  0  0  0
    4.2824   54.1856   30.2947 H   0  0  0  0  0  0
    3.8778   53.8093   28.2314 C   0  0  0  0  0  0
    2.8699   53.7058   27.2675 C   0  0  0  0  0  0
    3.1787   53.8539   25.9206 C   0  0  0  0  0  0
    4.4954   54.0965   25.5243 C   0  0  0  0  0  0
    5.5042   54.2087   26.4935 C   0  0  0  0  0  0
    5.1931   54.0703   27.8412 C   0  0  0  0  0  0
    4.7031   54.1780   24.1387 N   0  0  0  0  0  0
    5.8276   54.4611   23.4519 C   0  0  0  0  0  0
    6.9173   54.7358   23.9543 O   0  0  0  0  0  0
    5.6360   54.4854   22.0196 C   0  0  0  0  0  0
    4.7888   53.6456   21.2529 C   0  0  0  0  0  0
    4.9572   54.0612   19.9469 C   0  0  0  0  0  0
    5.8789   55.0881   19.9860 N   0  0  0  0  0  0
    6.3044   55.3099   21.2372 N   0  0  0  0  0  0
    6.4329   55.8139   18.8355 C   0  0  2  0  0  0
    6.4207   56.8760   19.0852 H   0  0  0  0  0  0
    5.4685   55.5686   17.6414 C   0  0  0  0  0  0
    5.0119   54.0946   17.5199 C   0  0  1  0  0  0
    5.8906   53.4564   17.4096 H   0  0  0  0  0  0
    4.3459   53.6963   18.7626 N   0  0  0  0  0  0
    4.1257   53.8800   16.3094 C   0  0  0  0  0  0
    4.4677   53.3394   15.0699 C   0  0  0  0  0  0
    3.4249   53.3086   14.1401 C   0  0  0  0  0  0
    2.2527   53.8391   14.6450 C   0  0  0  0  0  0
    2.4476   54.3733   16.2803 S   0  0  0  0  0  0
    7.9111   55.4542   18.5330 C   0  0  0  0  0  0
    8.3639   56.1469   17.4866 F   0  0  0  0  0  0
    8.7054   55.7372   19.5658 F   0  0  0  0  0  0
    8.0714   54.1616   18.2463 F   0  0  0  0  0  0
    3.7358   52.3809   21.7692 Cl  0  0  0  0  0  0
    2.2867   54.0628   30.0812 O   0  0  0  0  0  0
    4.6823   51.7431   29.9206 H   0  0  0  0  0  0
    2.9770   51.5057   29.5610 H   0  0  0  0  0  0
    3.4868   51.9941   31.1834 H   0  0  0  0  0  0
    1.8478   53.5001   27.5542 H   0  0  0  0  0  0
    2.3887   53.7627   25.1880 H   0  0  0  0  0  0
    6.5383   54.3790   26.2398 H   0  0  0  0  0  0
    5.9802   54.1434   28.5782 H   0  0  0  0  0  0
    3.8887   53.9871   23.5729 H   0  0  0  0  0  0
    4.6032   56.2298   17.7341 H   0  0  0  0  0  0
    5.9426   55.8854   16.7097 H   0  0  0  0  0  0
    3.9185   52.7831   18.6861 H   0  0  0  0  0  0
    5.4597   52.9694   14.8495 H   0  0  0  0  0  0
    3.5263   52.9174   13.1386 H   0  0  0  0  0  0
    1.2994   53.9463   14.1465 H   0  0  0  0  0  0
    1.7137   53.2973   30.2095 H   0  0  0  0  0  0
  1  2  1  0  0  0
  1 35  1  0  0  0
  1 36  1  0  0  0
  1 37  1  0  0  0
  2  3  1  0  0  0
  2  4  1  0  0  0
  2 34  1  0  0  0
  4  9  2  0  0  0
  4  5  1  0  0  0
  5  6  2  0  0  0
  5 38  1  0  0  0
  6  7  1  0  0  0
  6 39  1  0  0  0
  7  8  2  0  0  0
  7 10  1  0  0  0
  8  9  1  0  0  0
  8 40  1  0  0  0
  9 41  1  0  0  0
 10 11  1  0  0  0
 10 42  1  0  0  0
 11 12  2  0  0  0
 11 13  1  0  0  0
 13 17  2  0  0  0
 13 14  1  0  0  0
 14 15  2  0  0  0
 14 33  1  0  0  0
 15 23  1  0  0  0
 15 16  1  0  0  0
 16 17  1  0  0  0
 16 18  1  0  0  0
 18 19  1  0  0  0
 18 20  1  0  0  0
 18 29  1  0  0  0
 20 21  1  0  0  0
 20 43  1  0  0  0
 20 44  1  0  0  0
 21 22  1  0  0  0
 21 23  1  0  0  0
 21 24  1  0  0  0
 23 45  1  0  0  0
 24 28  1  0  0  0
 24 25  2  0  0  0
 25 26  1  0  0  0
 25 46  1  0  0  0
 26 27  2  0  0  0
 26 47  1  0  0  0
 27 28  1  0  0  0
 27 48  1  0  0  0
 29 30  1  0  0  0
 29 31  1  0  0  0
 29 32  1  0  0  0
 34 49  1  0  0  0
M  END
> <i_i_glide_confnum>
18

> <i_i_glide_lignum>
3634

> <i_i_glide_posenum>
257

> <i_i_glide_rotatable_bonds>
7

> <i_m_Source_File_Index>
5566

> <b_m_subgroup_collapsed>
0

> <r_i_docking_score>
-5.43123

> <r_i_glide_ecoul>
-1.33509

> <r_i_glide_eff_state_penalty>
0

> <r_i_glide_einternal>
3.62576

> <r_i_glide_emodel>
-55.6766

> <r_i_glide_energy>
-43.1909

> <r_i_glide_erotb>
0.455673

> <r_i_glide_esite>
-0.0300854

> <r_i_glide_evdw>
-41.8558

> <r_i_glide_gscore>
-5.43123

> <r_i_glide_hbond>
-0.32

> <r_i_glide_ligand_efficiency>
-0.175201

> <r_i_glide_ligand_efficiency_ln>
-1.22491

> <r_i_glide_ligand_efficiency_sa>
-0.550373

> <r_i_glide_lipo>
-2.27174

> <r_i_glide_metal>
0

> <r_i_glide_rewards>
-0.97202

> <s_i_glide_gridfile>
wee1_glide-grid

> <s_m_Source_File>
wee1_decoys_glide_SP.sdf

> <s_m_Source_Path>
/Users/zhangxujun/Desktop

> <s_m_entry_id>
5841

> <s_m_entry_name>
wee1_decoys_glide_SP.5566

> <s_m_subgroup_title>
wee1_decoys_glide_SP

> <s_m_subgroupid>
wee1_decoys_glide_SP


$$$$
