@<TRIPOS>MOLECULE
ZINC62828015_1663
37   38    1
SMALL
USER_CHARGES


@<TRIPOS>ATOM
      1 C1          5.7265   54.1968   22.9099 C.3       1 UNK         0.0000 
      2 C2          4.8129   54.1619   24.1290 C.2       1 UNK         0.0000 
      3 C3          3.4535   53.8279   24.0478 C.2       1 UNK         0.0000 
      4 S4          2.7462   53.6967   25.6219 S.3       1 UNK         0.0000 
      5 C5          4.2437   54.1055   26.4155 C.2       1 UNK         0.0000 
      6 C6          5.2405   54.3738   25.4703 C.2       1 UNK         0.0000 
      7 C7          6.5881   54.8307   25.8361 C.2       1 UNK         0.0000 
      8 O8          7.1044   54.3778   26.8817 O.co2     1 UNK         0.0000 
      9 O9          7.1044   55.6967   25.1039 O.co2     1 UNK         0.0000 
     10 N10         4.3979   54.2295   27.8068 N.am      1 UNK         0.0000 
     11 C11         3.6235   53.8111   28.8294 C.2       1 UNK         0.0000 
     12 O12         3.9047   54.0967   29.9915 O.2       1 UNK         0.0000 
     13 N13         2.5945   53.0171   28.5107 N.am      1 UNK         0.0000 
     14 C14         1.9543   51.9980   29.3330 C.3       1 UNK         0.0000 
     15 C15         1.4008   52.5099   30.6855 C.3       1 UNK         0.0000 
     16 C16         0.3063   53.5657   30.4729 C.3       1 UNK         0.0000 
     17 O17        -0.7327   52.9894   29.6817 O.3       1 UNK         0.0000 
     18 C18        -0.3593   52.4966   28.3957 C.3       1 UNK         0.0000 
     19 C19         0.7406   51.4383   28.5657 C.3       1 UNK         0.0000 
     20 C20         2.5907   53.5648   22.8334 C.3       1 UNK         0.0000 
     21 H21         5.3549   53.6000   22.0774 H         1 UNK         0.0000 
     22 H22         5.9049   55.2129   22.5575 H         1 UNK         0.0000 
     23 H23         6.7078   53.7794   23.1394 H         1 UNK         0.0000 
     24 H24         5.2866   54.6285   28.0818 H         1 UNK         0.0000 
     25 H25         2.4549   52.8916   27.5196 H         1 UNK         0.0000 
     26 H26         2.6935   51.2131   29.4835 H         1 UNK         0.0000 
     27 H27         0.9707   51.6967   31.2638 H         1 UNK         0.0000 
     28 H28         2.1956   52.8969   31.3178 H         1 UNK         0.0000 
     29 H29        -0.1022   53.8905   31.4302 H         1 UNK         0.0000 
     30 H30         0.7148   54.4470   29.9756 H         1 UNK         0.0000 
     31 H31        -1.2345   52.0652   27.9089 H         1 UNK         0.0000 
     32 H32        -0.0074   53.3161   27.7674 H         1 UNK         0.0000 
     33 H33         1.0417   51.0459   27.5931 H         1 UNK         0.0000 
     34 H34         0.3072   50.5975   29.1036 H         1 UNK         0.0000 
     35 H35         3.0844   53.8254   21.8976 H         1 UNK         0.0000 
     36 H36         2.3050   52.5140   22.7656 H         1 UNK         0.0000 
     37 H37         1.6683   54.1468   22.8642 H         1 UNK         0.0000 
@<TRIPOS>BOND
     1    1    2 1    
     2    1   21 1    
     3    1   22 1    
     4    1   23 1    
     5    2    6 1    
     6    2    3 2    
     7    3    4 1    
     8    3   20 1    
     9    4    5 1    
    10    5    6 2    
    11    5   10 am   BACKBONE|DICT|INTERRES
    12    6    7 1    
    13    7    8 2    
    14    7    9 1    
    15   10   11 am   BACKBONE|DICT|INTERRES
    16   10   24 1    
    17   11   12 2    
    18   11   13 am   BACKBONE|DICT|INTERRES
    19   13   14 1    
    20   13   25 1    
    21   14   19 1    
    22   14   15 1    
    23   14   26 1    
    24   15   16 1    
    25   15   27 1    
    26   15   28 1    
    27   16   17 1    
    28   16   29 1    
    29   16   30 1    
    30   17   18 1    
    31   18   19 1    
    32   18   31 1    
    33   18   32 1    
    34   19   33 1    
    35   19   34 1    
    36   20   35 1    
    37   20   36 1    
    38   20   37 1    
@<TRIPOS>SUBSTRUCTURE
     1 UNK         1 GROUP             0       ****    0 ROOT    
