ZINC08909065_920
                    3D
 Schrodinger Suite 2024-2.
 56 59  0  0  1  0            999 V2000
   -2.7967   50.9160   27.8589 C   0  0  0  0  0  0
   -1.4230   51.5522   28.0177 C   0  0  0  0  0  0
   -0.8941   51.6957   29.3038 C   0  0  0  0  0  0
    0.3786   52.2257   29.4887 C   0  0  0  0  0  0
    1.1355   52.6256   28.3830 C   0  0  0  0  0  0
    0.6085   52.4963   27.0964 C   0  0  0  0  0  0
   -0.6673   51.9568   26.9047 C   0  0  0  0  0  0
   -1.2053   51.8166   25.4888 C   0  0  0  0  0  0
    2.4022   53.1954   28.5439 N   0  0  0  0  0  0
    2.6853   54.5771   28.1764 C   0  0  0  0  0  0
    4.1918   54.7203   28.3147 C   0  0  1  0  0  0
    4.4572   55.6916   28.7061 H   0  0  0  0  0  0
    4.5112   53.6845   29.3706 C   0  0  0  0  0  0
    3.4169   52.6338   29.2532 C   0  0  0  0  0  0
    3.4899   51.5116   29.7381 O   0  0  0  0  0  0
    5.0305   54.4997   27.0223 C   0  0  0  0  0  0
    6.2553   54.6044   27.0982 O   0  0  0  0  0  0
    4.3590   54.2375   25.8791 N   0  0  0  0  0  0
    4.8572   54.2482   24.5848 C   0  0  0  0  0  0
    4.1228   53.8841   23.5629 N   0  0  0  0  0  0
    4.7542   54.1139   22.3436 N   0  0  0  0  0  0
    5.9340   54.6804   22.4641 C   0  0  0  0  0  0
    6.4117   54.8960   24.1207 S   0  0  0  0  0  0
    6.9634   55.2989   21.1655 S   0  0  0  0  0  0
    6.0551   54.8237   19.6453 C   0  0  0  0  0  0
    5.5253   56.0105   18.8328 C   0  0  0  0  0  0
    6.1015   57.0974   18.8916 O   0  0  0  0  0  0
    4.4349   55.7569   18.0807 N   0  0  0  0  0  0
    3.7143   56.5969   17.2041 C   0  0  0  0  0  0
    4.0824   57.9134   16.8693 C   0  0  0  0  0  0
    3.2894   58.6638   16.0006 C   0  0  0  0  0  0
    2.1307   58.1234   15.4559 C   0  0  0  0  0  0
    1.7622   56.8200   15.7739 C   0  0  0  0  0  0
    2.5491   56.0602   16.6391 C   0  0  0  0  0  0
    2.1642   54.7935   16.9230 F   0  0  0  0  0  0
    1.3607   58.8575   14.6208 F   0  0  0  0  0  0
   -2.7530   50.0973   27.1407 H   0  0  0  0  0  0
   -3.1633   50.4927   28.7959 H   0  0  0  0  0  0
   -3.5195   51.6444   27.4928 H   0  0  0  0  0  0
   -1.4547   51.3623   30.1672 H   0  0  0  0  0  0
    0.7711   52.3170   30.4914 H   0  0  0  0  0  0
    1.1935   52.8100   26.2433 H   0  0  0  0  0  0
   -2.1848   52.2886   25.4050 H   0  0  0  0  0  0
   -0.5532   52.2814   24.7503 H   0  0  0  0  0  0
   -1.3209   50.7638   25.2294 H   0  0  0  0  0  0
    2.1784   55.2332   28.8852 H   0  0  0  0  0  0
    2.2826   54.8865   27.2139 H   0  0  0  0  0  0
    5.4604   53.1738   29.2037 H   0  0  0  0  0  0
    4.5305   54.1252   30.3696 H   0  0  0  0  0  0
    3.3853   53.9923   25.9663 H   0  0  0  0  0  0
    5.2605   54.1115   19.8527 H   0  0  0  0  0  0
    6.7653   54.3024   19.0074 H   0  0  0  0  0  0
    4.0385   54.8321   18.1663 H   0  0  0  0  0  0
    4.9660   58.3863   17.2649 H   0  0  0  0  0  0
    3.5698   59.6766   15.7592 H   0  0  0  0  0  0
    0.8665   56.3977   15.3465 H   0  0  0  0  0  0
  1  2  1  0  0  0
  1 37  1  0  0  0
  1 38  1  0  0  0
  1 39  1  0  0  0
  2  7  2  0  0  0
  2  3  1  0  0  0
  3  4  2  0  0  0
  3 40  1  0  0  0
  4  5  1  0  0  0
  4 41  1  0  0  0
  5  6  2  0  0  0
  5  9  1  0  0  0
  6  7  1  0  0  0
  6 42  1  0  0  0
  7  8  1  0  0  0
  8 43  1  0  0  0
  8 44  1  0  0  0
  8 45  1  0  0  0
  9 14  1  0  0  0
  9 10  1  0  0  0
 10 11  1  0  0  0
 10 46  1  0  0  0
 10 47  1  0  0  0
 11 12  1  0  0  0
 11 13  1  0  0  0
 11 16  1  0  0  0
 13 14  1  0  0  0
 13 48  1  0  0  0
 13 49  1  0  0  0
 14 15  2  0  0  0
 16 17  2  0  0  0
 16 18  1  0  0  0
 18 19  1  0  0  0
 18 50  1  0  0  0
 19 23  1  0  0  0
 19 20  2  0  0  0
 20 21  1  0  0  0
 21 22  2  0  0  0
 22 23  1  0  0  0
 22 24  1  0  0  0
 24 25  1  0  0  0
 25 26  1  0  0  0
 25 51  1  0  0  0
 25 52  1  0  0  0
 26 27  2  0  0  0
 26 28  1  0  0  0
 28 29  1  0  0  0
 28 53  1  0  0  0
 29 34  2  0  0  0
 29 30  1  0  0  0
 30 31  2  0  0  0
 30 54  1  0  0  0
 31 32  1  0  0  0
 31 55  1  0  0  0
 32 33  2  0  0  0
 32 36  1  0  0  0
 33 34  1  0  0  0
 33 56  1  0  0  0
 34 35  1  0  0  0
M  END
> <i_i_glide_confnum>
127

> <i_i_glide_lignum>
921

> <i_i_glide_posenum>
39

> <i_i_glide_rotatable_bonds>
9

> <i_m_Source_File_Index>
310

> <b_m_subgroup_collapsed>
0

> <r_i_docking_score>
-6.16127

> <r_i_glide_ecoul>
-5.87036

> <r_i_glide_eff_state_penalty>
0

> <r_i_glide_einternal>
8.49073

> <r_i_glide_emodel>
-70.5132

> <r_i_glide_energy>
-52.89

> <r_i_glide_erotb>
0.613191

> <r_i_glide_esite>
-0.0151733

> <r_i_glide_evdw>
-47.0196

> <r_i_glide_gscore>
-6.16127

> <r_i_glide_hbond>
-0.304298

> <r_i_glide_ligand_efficiency>
-0.176036

> <r_i_glide_ligand_efficiency_ln>
-1.35253

> <r_i_glide_ligand_efficiency_sa>
-0.575826

> <r_i_glide_lipo>
-2.1874

> <r_i_glide_metal>
0

> <r_i_glide_rewards>
-1.03605

> <s_i_glide_gridfile>
wee1_glide-grid

> <s_m_Source_File>
wee1_decoys_glide_SP.sdf

> <s_m_Source_Path>
/Users/zhangxujun/Desktop

> <s_m_entry_id>
585

> <s_m_entry_name>
wee1_decoys_glide_SP.310

> <s_m_subgroup_title>
wee1_decoys_glide_SP

> <s_m_subgroupid>
wee1_decoys_glide_SP


$$$$
