ZINC59310739_4968
                    3D
 Schrodinger Suite 2024-2.
 63 68  0  0  1  0            999 V2000
   -0.7273   51.9378   29.3181 C   0  0  0  0  0  0
    0.2312   52.0452   28.1299 C   0  0  0  0  0  0
    0.0299   51.4975   26.9886 N   0  0  0  0  0  0
   -0.9676   50.5276   26.7892 N   0  0  0  0  0  0
   -0.9566   49.7318   25.6722 C   0  0  0  0  0  0
   -1.4398   49.9890   24.4823 N   0  0  0  0  0  0
   -1.1769   48.8676   23.8120 C   0  0  0  0  0  0
   -0.5310   47.9339   24.4813 N   0  0  0  0  0  0
   -0.3950   48.4967   25.6794 N   0  0  0  0  0  0
   -1.6675   48.5587   22.1419 S   0  0  0  0  0  0
   -2.6293   50.0555   21.6948 C   0  0  0  0  0  0
   -1.9927   50.9881   20.6535 C   0  0  0  0  0  0
   -2.4961   52.0967   20.4905 O   0  0  0  0  0  0
   -0.9136   50.5428   19.9788 N   0  0  0  0  0  0
   -0.2183   51.1760   18.9476 C   0  0  0  0  0  0
    1.0188   50.7545   18.4327 C   0  0  0  0  0  0
    1.4646   51.6141   17.4145 C   0  0  0  0  0  0
    0.5880   52.6318   17.1221 C   0  0  0  0  0  0
   -0.8393   52.5772   18.0805 S   0  0  0  0  0  0
    1.0785   53.5475   16.0342 C   0  0  0  0  0  0
    2.5506   53.1213   15.9301 C   0  0  0  0  0  0
    2.6571   51.6961   16.4997 C   0  0  0  0  0  0
    1.7385   49.5754   18.8997 C   0  0  0  0  0  0
    2.2929   48.6346   19.2810 N   0  0  0  0  0  0
    1.5326   52.8813   28.3740 C   0  0  0  0  0  0
    2.6641   52.3951   27.4256 C   0  0  0  0  0  0
    3.9679   53.2144   27.5752 C   0  0  1  0  0  0
    3.6681   54.7052   27.2652 C   0  0  0  0  0  0
    2.5680   55.2146   28.2390 C   0  0  1  0  0  0
    1.2949   54.3724   28.0290 C   0  0  0  0  0  0
    3.1068   55.0730   29.6744 C   0  0  0  0  0  0
    3.3906   53.5800   30.0003 C   0  0  2  0  0  0
    4.4727   53.0569   29.0248 C   0  0  0  0  0  0
    2.0729   52.7690   29.8414 C   0  0  0  0  0  0
   -0.9021   52.9200   29.7547 H   0  0  0  0  0  0
   -1.6996   51.5276   29.0491 H   0  0  0  0  0  0
   -0.3155   51.2989   30.0965 H   0  0  0  0  0  0
   -1.2936   50.1033   27.6565 H   0  0  0  0  0  0
   -2.9231   50.6352   22.5683 H   0  0  0  0  0  0
   -3.5639   49.7050   21.2572 H   0  0  0  0  0  0
   -0.5149   49.6740   20.3062 H   0  0  0  0  0  0
    1.0007   54.6042   16.2937 H   0  0  0  0  0  0
    0.5445   53.3933   15.0956 H   0  0  0  0  0  0
    3.1623   53.7930   16.5361 H   0  0  0  0  0  0
    2.9314   53.1880   14.9097 H   0  0  0  0  0  0
    2.6096   50.9546   15.7001 H   0  0  0  0  0  0
    3.5948   51.5536   17.0302 H   0  0  0  0  0  0
    2.8142   51.3494   27.6827 H   0  0  0  0  0  0
    2.3561   52.4395   26.3784 H   0  0  0  0  0  0
    4.7257   52.8443   26.8838 H   0  0  0  0  0  0
    3.3478   54.8200   26.2288 H   0  0  0  0  0  0
    4.5802   55.2962   27.3626 H   0  0  0  0  0  0
    2.3045   56.2563   28.0514 H   0  0  0  0  0  0
    1.1044   54.4408   26.9632 H   0  0  0  0  0  0
    0.4481   54.7949   28.5701 H   0  0  0  0  0  0
    4.0364   55.6424   29.6817 H   0  0  0  0  0  0
    2.4167   55.5185   30.3921 H   0  0  0  0  0  0
    3.7773   53.4589   31.0115 H   0  0  0  0  0  0
    4.7052   52.0128   29.2390 H   0  0  0  0  0  0
    5.4037   53.6088   29.1577 H   0  0  0  0  0  0
    1.3421   53.1413   30.5607 H   0  0  0  0  0  0
    2.2495   51.7246   30.1035 H   0  0  0  0  0  0
    0.0126   48.0201   26.4778 H   0  0  0  0  0  0
  1  2  1  0  0  0
  1 35  1  0  0  0
  1 36  1  0  0  0
  1 37  1  0  0  0
  2  3  2  0  0  0
  2 25  1  0  0  0
  3  4  1  0  0  0
  4  5  1  0  0  0
  4 38  1  0  0  0
  5  9  1  0  0  0
  5  6  2  0  0  0
  6  7  1  0  0  0
  7  8  2  0  0  0
  7 10  1  0  0  0
  8  9  1  0  0  0
  9 63  1  0  0  0
 10 11  1  0  0  0
 11 12  1  0  0  0
 11 39  1  0  0  0
 11 40  1  0  0  0
 12 13  2  0  0  0
 12 14  1  0  0  0
 14 15  1  0  0  0
 14 41  1  0  0  0
 15 19  1  0  0  0
 15 16  2  0  0  0
 16 17  1  0  0  0
 16 23  1  0  0  0
 17 22  1  0  0  0
 17 18  2  0  0  0
 18 19  1  0  0  0
 18 20  1  0  0  0
 20 21  1  0  0  0
 20 42  1  0  0  0
 20 43  1  0  0  0
 21 22  1  0  0  0
 21 44  1  0  0  0
 21 45  1  0  0  0
 22 46  1  0  0  0
 22 47  1  0  0  0
 23 24  3  0  0  0
 25 30  1  0  0  0
 25 34  1  0  0  0
 25 26  1  0  0  0
 26 27  1  0  0  0
 26 48  1  0  0  0
 26 49  1  0  0  0
 27 33  1  0  0  0
 27 28  1  0  0  0
 27 50  1  0  0  0
 28 29  1  0  0  0
 28 51  1  0  0  0
 28 52  1  0  0  0
 29 30  1  0  0  0
 29 31  1  0  0  0
 29 53  1  0  0  0
 30 54  1  0  0  0
 30 55  1  0  0  0
 31 32  1  0  0  0
 31 56  1  0  0  0
 31 57  1  0  0  0
 32 33  1  0  0  0
 32 34  1  0  0  0
 32 58  1  0  0  0
 33 59  1  0  0  0
 33 60  1  0  0  0
 34 61  1  0  0  0
 34 62  1  0  0  0
M  END
> <i_i_glide_confnum>
37

> <i_i_glide_lignum>
4969

> <i_i_glide_posenum>
339

> <i_i_glide_rotatable_bonds>
9

> <i_m_Source_File_Index>
4163

> <b_m_subgroup_collapsed>
0

> <r_i_docking_score>
-5.16054

> <r_i_glide_ecoul>
-10.46

> <r_i_glide_eff_state_penalty>
0

> <r_i_glide_einternal>
3.93989

> <r_i_glide_emodel>
-51.4619

> <r_i_glide_energy>
-40.6003

> <r_i_glide_erotb>
0.580862

> <r_i_glide_esite>
-0.360542

> <r_i_glide_evdw>
-30.1403

> <r_i_glide_gscore>
-5.16054

> <r_i_glide_hbond>
-0.608331

> <r_i_glide_ligand_efficiency>
-0.151781

> <r_i_glide_ligand_efficiency_ln>
-1.14011

> <r_i_glide_ligand_efficiency_sa>
-0.49171

> <r_i_glide_lipo>
-1.5249

> <r_i_glide_metal>
0

> <r_i_glide_rewards>
-0.171607

> <s_i_glide_gridfile>
wee1_glide-grid

> <s_m_Source_File>
wee1_decoys_glide_SP.sdf

> <s_m_Source_Path>
/Users/zhangxujun/Desktop

> <s_m_entry_id>
4438

> <s_m_entry_name>
wee1_decoys_glide_SP.4163

> <s_m_subgroup_title>
wee1_decoys_glide_SP

> <s_m_subgroupid>
wee1_decoys_glide_SP


$$$$
