@<TRIPOS>MOLECULE
ZINC66412249_1505
56   58    1
SMALL
USER_CHARGES


@<TRIPOS>ATOM
      1 C1         -1.5613   49.6723   25.8795 C.3       1 UNK         0.0000 
      2 C2         -0.2908   50.2321   25.2221 C.3       1 UNK         0.0000 
      3 H3          0.5322   49.9551   25.8845 H         1 UNK         0.0000 
      4 C4          0.0414   49.4992   23.8833 C.3       1 UNK         0.0000 
      5 C5          0.6462   50.4190   22.7827 C.3       1 UNK         0.0000 
      6 C6          1.6365   51.3945   23.4834 C.3       1 UNK         0.0000 
      7 C7          0.9419   52.4495   24.3909 C.3       1 UNK         0.0000 
      8 C8         -0.2352   51.7882   25.1859 C.3       1 UNK         0.0000 
      9 C9          1.9738   52.9587   25.4246 C.3       1 UNK         0.0000 
     10 C10         0.4202   53.6121   23.5268 C.3       1 UNK         0.0000 
     11 C11         1.4579   49.6475   21.7540 C.2       1 UNK         0.0000 
     12 O12         2.4018   48.8972   21.9918 O.2       1 UNK         0.0000 
     13 N13         1.0068   50.0594   20.5489 N.am      1 UNK         0.0000 
     14 C14        -0.1116   50.8273   20.6128 C.2       1 UNK         0.0000 
     15 O15        -0.8946   51.1070   19.7083 O.2       1 UNK         0.0000 
     16 N16        -0.3170   51.0404   21.9164 N.am      1 UNK         0.0000 
     17 C17         1.6495   49.6844   19.2694 C.3       1 UNK         0.0000 
     18 C18         1.2868   48.2571   18.8093 C.2       1 UNK         0.0000 
     19 O19         0.5034   47.5517   19.4527 O.2       1 UNK         0.0000 
     20 N20         1.9044   47.8753   17.6742 N.am      1 UNK         0.0000 
     21 C21         1.7824   46.6494   17.0489 C.ar      1 UNK         0.0000 
     22 C22         2.6190   46.1778   16.0308 C.ar      1 UNK         0.0000 
     23 N23         2.3045   44.9701   15.6244 N.2       1 UNK         0.0000 
     24 N24         1.2368   44.6249   16.3656 N.pl3     1 UNK         0.0000 
     25 C25         0.8690   45.6193   17.2363 C.ar      1 UNK         0.0000 
     26 C26         0.6140   43.3075   16.2046 C.3       1 UNK         0.0000 
     27 C27         0.0584   43.1406   14.7754 C.3       1 UNK         0.0000 
     28 C28         1.6157   42.1913   16.5694 C.3       1 UNK         0.0000 
     29 H29        -2.4499   49.8876   25.2877 H         1 UNK         0.0000 
     30 H30        -1.4976   48.5912   26.0060 H         1 UNK         0.0000 
     31 H31        -1.7136   50.0982   26.8729 H         1 UNK         0.0000 
     32 H32        -0.8673   49.0906   23.4363 H         1 UNK         0.0000 
     33 H33         0.6710   48.6294   24.0924 H         1 UNK         0.0000 
     34 H34         2.3045   50.7760   24.0810 H         1 UNK         0.0000 
     35 H35         2.2715   51.9445   22.7845 H         1 UNK         0.0000 
     36 H36        -0.4294   52.2691   26.1462 H         1 UNK         0.0000 
     37 H37        -1.1479   51.9931   24.6238 H         1 UNK         0.0000 
     38 H38         1.5752   53.7949   26.0012 H         1 UNK         0.0000 
     39 H39         2.2625   52.1937   26.1438 H         1 UNK         0.0000 
     40 H40         2.8853   53.3118   24.9391 H         1 UNK         0.0000 
     41 H41         0.0717   54.4544   24.1142 H         1 UNK         0.0000 
     42 H42         1.1892   53.9994   22.8574 H         1 UNK         0.0000 
     43 H43        -0.4172   53.2930   22.9168 H         1 UNK         0.0000 
     44 H44        -0.8777   51.8065   22.2518 H         1 UNK         0.0000 
     45 H45         2.7350   49.7363   19.3827 H         1 UNK         0.0000 
     46 H46         1.3923   50.3958   18.4836 H         1 UNK         0.0000 
     47 H47         2.6115   48.4974   17.2844 H         1 UNK         0.0000 
     48 H48         3.4575   46.7151   15.6121 H         1 UNK         0.0000 
     49 H49         0.0289   45.5061   17.9070 H         1 UNK         0.0000 
     50 H50        -0.2240   43.2587   16.9022 H         1 UNK         0.0000 
     51 H51        -0.4593   42.1880   14.6627 H         1 UNK         0.0000 
     52 H52         0.8529   43.1698   14.0272 H         1 UNK         0.0000 
     53 H53        -0.6521   43.9309   14.5308 H         1 UNK         0.0000 
     54 H54         1.1465   41.2088   16.5195 H         1 UNK         0.0000 
     55 H55         2.4690   42.1803   15.8879 H         1 UNK         0.0000 
     56 H56         2.0060   42.3229   17.5806 H         1 UNK         0.0000 
@<TRIPOS>BOND
     1    1    2 1    
     2    1   29 1    
     3    1   30 1    
     4    1   31 1    
     5    2    3 1    
     6    2    8 1    
     7    2    4 1    
     8    4    5 1    
     9    4   32 1    
    10    4   33 1    
    11    5   16 1    
    12    5    6 1    
    13    5   11 1    
    14    6    7 1    
    15    6   34 1    
    16    6   35 1    
    17    7    8 1    
    18    7    9 1    
    19    7   10 1    
    20    8   36 1    
    21    8   37 1    
    22    9   38 1    
    23    9   39 1    
    24    9   40 1    
    25   10   41 1    
    26   10   42 1    
    27   10   43 1    
    28   11   12 2    
    29   11   13 am   BACKBONE|DICT|INTERRES
    30   13   14 am   BACKBONE|DICT|INTERRES
    31   13   17 1    
    32   14   15 2    
    33   14   16 am   BACKBONE|DICT|INTERRES
    34   16   44 1    
    35   17   18 1    
    36   17   45 1    
    37   17   46 1    
    38   18   19 2    
    39   18   20 am   BACKBONE|DICT|INTERRES
    40   20   21 1    
    41   20   47 1    
    42   21   25 ar   
    43   21   22 ar   
    44   22   23 ar   
    45   22   48 1    
    46   23   24 ar   
    47   24   25 ar   
    48   24   26 1    
    49   25   49 1    
    50   26   27 1    
    51   26   28 1    
    52   26   50 1    
    53   27   51 1    
    54   27   52 1    
    55   27   53 1    
    56   28   54 1    
    57   28   55 1    
    58   28   56 1    
@<TRIPOS>SUBSTRUCTURE
     1 UNK         1 GROUP             0       ****    0 ROOT    
