ZINC13101844_3002
                    3D
 Schrodinger Suite 2024-2.
 62 64  0  0  1  0            999 V2000
   -8.7479   51.6431   29.6254 C   0  0  0  0  0  0
   -7.3175   51.3099   29.2434 C   0  0  0  0  0  0
   -6.9299   51.3177   27.9047 C   0  0  0  0  0  0
   -5.6142   51.0253   27.5333 C   0  0  0  0  0  0
   -4.6548   50.7513   28.5365 C   0  0  0  0  0  0
   -5.0613   50.6956   29.8869 C   0  0  0  0  0  0
   -6.3837   50.9907   30.2268 C   0  0  0  0  0  0
   -4.0971   50.3224   31.0116 C   0  0  0  0  0  0
   -3.2955   50.4999   28.2649 N   0  0  0  0  0  0
   -2.4425   51.2880   27.5725 C   0  0  0  0  0  0
   -2.7837   52.2501   26.8818 O   0  0  0  0  0  0
   -0.9512   50.9376   27.7333 C   0  0  0  0  0  0
   -0.0930   52.0443   27.4419 O   0  0  0  0  0  0
    0.4220   52.2180   26.1693 C   0  0  0  0  0  0
   -0.0844   51.5675   25.0310 C   0  0  0  0  0  0
    0.4623   51.8051   23.7733 C   0  0  0  0  0  0
    1.5019   52.7236   23.6237 C   0  0  0  0  0  0
    2.0125   53.3660   24.7557 C   0  0  0  0  0  0
    1.5033   53.1031   26.0354 C   0  0  0  0  0  0
    2.0047   53.6793   27.1908 O   0  0  0  0  0  0
    3.2416   54.3840   27.1448 C   0  0  0  0  0  0
    2.0954   53.0330   22.3347 C   0  0  0  0  0  0
    2.3932   52.1693   21.4420 N   0  0  0  0  0  0
    3.2350   52.5189   20.3940 N   0  0  0  0  0  0
    4.3769   53.2973   20.3409 C   0  0  0  0  0  0
    5.1045   54.0967   21.6391 S   0  0  0  0  0  0
    4.9019   53.2964   19.0746 N   0  0  0  0  0  0
    5.9874   53.9995   18.5159 C   0  0  0  0  0  0
    6.8619   53.2968   17.6820 C   0  0  0  0  0  0
    7.9683   53.9385   17.1234 C   0  0  0  0  0  0
    8.1957   55.2909   17.3806 C   0  0  0  0  0  0
    7.3082   56.0076   18.1840 C   0  0  0  0  0  0
    6.1997   55.3684   18.7385 C   0  0  0  0  0  0
    7.5815   57.6822   18.5005 Cl  0  0  0  0  0  0
   -5.3129   50.9397   26.0407 C   0  0  0  0  0  0
   -9.1546   52.4095   28.9648 H   0  0  0  0  0  0
   -8.8056   52.0406   30.6396 H   0  0  0  0  0  0
   -9.3800   50.7571   29.5559 H   0  0  0  0  0  0
   -7.6648   51.5342   27.1427 H   0  0  0  0  0  0
   -6.6921   50.9579   31.2621 H   0  0  0  0  0  0
   -3.1704   50.8923   30.9527 H   0  0  0  0  0  0
   -4.5160   50.4964   32.0030 H   0  0  0  0  0  0
   -3.8278   49.2710   30.9331 H   0  0  0  0  0  0
   -2.8691   49.7301   28.7740 H   0  0  0  0  0  0
   -0.7524   50.6740   28.7708 H   0  0  0  0  0  0
   -0.6889   50.0742   27.1302 H   0  0  0  0  0  0
   -0.9157   50.8830   25.0995 H   0  0  0  0  0  0
    0.0562   51.2909   22.9134 H   0  0  0  0  0  0
    2.8298   54.0621   24.6348 H   0  0  0  0  0  0
    3.5210   54.6851   28.1541 H   0  0  0  0  0  0
    4.0447   53.7560   26.7551 H   0  0  0  0  0  0
    3.1731   55.2889   26.5420 H   0  0  0  0  0  0
    2.3060   54.0913   22.2019 H   0  0  0  0  0  0
    3.0740   51.9446   19.5785 H   0  0  0  0  0  0
    4.5824   52.5421   18.4817 H   0  0  0  0  0  0
    6.7049   52.2438   17.4873 H   0  0  0  0  0  0
    8.6523   53.3847   16.4969 H   0  0  0  0  0  0
    9.0568   55.7832   16.9529 H   0  0  0  0  0  0
    5.5129   55.9397   19.3455 H   0  0  0  0  0  0
   -5.0696   51.9220   25.6361 H   0  0  0  0  0  0
   -4.4956   50.2494   25.8325 H   0  0  0  0  0  0
   -6.1749   50.5536   25.4943 H   0  0  0  0  0  0
  1  2  1  0  0  0
  1 36  1  0  0  0
  1 37  1  0  0  0
  1 38  1  0  0  0
  2  7  2  0  0  0
  2  3  1  0  0  0
  3  4  2  0  0  0
  3 39  1  0  0  0
  4  5  1  0  0  0
  4 35  1  0  0  0
  5  6  2  0  0  0
  5  9  1  0  0  0
  6  7  1  0  0  0
  6  8  1  0  0  0
  7 40  1  0  0  0
  8 41  1  0  0  0
  8 42  1  0  0  0
  8 43  1  0  0  0
  9 10  1  0  0  0
  9 44  1  0  0  0
 10 11  2  0  0  0
 10 12  1  0  0  0
 12 13  1  0  0  0
 12 45  1  0  0  0
 12 46  1  0  0  0
 13 14  1  0  0  0
 14 19  2  0  0  0
 14 15  1  0  0  0
 15 16  2  0  0  0
 15 47  1  0  0  0
 16 17  1  0  0  0
 16 48  1  0  0  0
 17 18  2  0  0  0
 17 22  1  0  0  0
 18 19  1  0  0  0
 18 49  1  0  0  0
 19 20  1  0  0  0
 20 21  1  0  0  0
 21 50  1  0  0  0
 21 51  1  0  0  0
 21 52  1  0  0  0
 22 23  2  0  0  0
 22 53  1  0  0  0
 23 24  1  0  0  0
 24 25  1  0  0  0
 24 54  1  0  0  0
 25 26  2  0  0  0
 25 27  1  0  0  0
 27 28  1  0  0  0
 27 55  1  0  0  0
 28 33  2  0  0  0
 28 29  1  0  0  0
 29 30  2  0  0  0
 29 56  1  0  0  0
 30 31  1  0  0  0
 30 57  1  0  0  0
 31 32  2  0  0  0
 31 58  1  0  0  0
 32 33  1  0  0  0
 32 34  1  0  0  0
 33 59  1  0  0  0
 35 60  1  0  0  0
 35 61  1  0  0  0
 35 62  1  0  0  0
M  END
> <i_i_glide_confnum>
151

> <i_i_glide_lignum>
3003

> <i_i_glide_posenum>
393

> <i_i_glide_rotatable_bonds>
11

> <i_m_Source_File_Index>
374

> <b_m_subgroup_collapsed>
0

> <r_i_docking_score>
-3.85965

> <r_i_glide_ecoul>
-8.47541

> <r_i_glide_eff_state_penalty>
0

> <r_i_glide_einternal>
6.74624

> <r_i_glide_emodel>
-53.3516

> <r_i_glide_energy>
-45.2517

> <r_i_glide_erotb>
0.706138

> <r_i_glide_esite>
-0.257624

> <r_i_glide_evdw>
-36.7763

> <r_i_glide_gscore>
-3.85965

> <r_i_glide_hbond>
-0.142257

> <r_i_glide_ligand_efficiency>
-0.110276

> <r_i_glide_ligand_efficiency_ln>
-0.847278

> <r_i_glide_ligand_efficiency_sa>
-0.360719

> <r_i_glide_lipo>
-0.997971

> <r_i_glide_metal>
0

> <r_i_glide_rewards>
-0.0578055

> <s_i_glide_gridfile>
wee1_glide-grid

> <s_m_Source_File>
wee1_decoys_glide_SP.sdf

> <s_m_Source_Path>
/Users/zhangxujun/Desktop

> <s_m_entry_id>
649

> <s_m_entry_name>
wee1_decoys_glide_SP.374

> <s_m_subgroup_title>
wee1_decoys_glide_SP

> <s_m_subgroupid>
wee1_decoys_glide_SP


$$$$
