@<TRIPOS>MOLECULE
ZINC12858068_4523
54   57    1
SMALL
USER_CHARGES


@<TRIPOS>ATOM
      1 C1          0.6066   52.2894   29.9709 C.3       1 UNK         0.0000 
      2 C2          1.7971   53.2162   30.2710 C.3       1 UNK         0.0000 
      3 C3          2.9156   53.2200   29.1971 C.3       1 UNK         0.0000 
      4 H4          3.4293   52.2571   29.2585 H         1 UNK         0.0000 
      5 C5          3.9369   54.3361   29.4558 C.3       1 UNK         0.0000 
      6 C6          5.1368   54.1251   28.5330 C.3       1 UNK         0.0000 
      7 C7          4.7096   54.0959   27.0657 C.ar      1 UNK         0.0000 
      8 C8          3.4091   53.6981   26.6677 C.ar      1 UNK         0.0000 
      9 C9          3.1075   53.6559   25.2737 C.ar      1 UNK         0.0000 
     10 C10         4.1436   54.0108   24.3538 C.ar      1 UNK         0.0000 
     11 C11         4.2171   54.0565   22.9046 C.2       1 UNK         0.0000 
     12 C12         5.4582   54.5054   22.4250 C.2       1 UNK         0.0000 
     13 S13         6.5912   54.8246   23.7215 S.3       1 UNK         0.0000 
     14 C14         5.3843   54.4204   24.9105 C.ar      1 UNK         0.0000 
     15 N15         5.6649   54.4940   26.1991 N.ar      1 UNK         0.0000 
     16 C16         5.9049   54.8364   21.0802 C.2       1 UNK         0.0000 
     17 O17         6.8513   55.6050   20.8934 O.2       1 UNK         0.0000 
     18 N18         5.2317   54.1975   20.1034 N.am      1 UNK         0.0000 
     19 C19         5.3644   54.3084   18.7091 C.ar      1 UNK         0.0000 
     20 C20         6.0219   55.3578   18.0523 C.ar      1 UNK         0.0000 
     21 C21         6.1004   55.3674   16.6613 C.ar      1 UNK         0.0000 
     22 C22         5.5272   54.3349   15.9060 C.ar      1 UNK         0.0000 
     23 C23         4.8576   53.2984   16.5713 C.ar      1 UNK         0.0000 
     24 C24         4.7700   53.2967   17.9594 C.ar      1 UNK         0.0000 
     25 C25         5.6438   54.3631   14.4117 C.2       1 UNK         0.0000 
     26 O26         6.2083   55.2620   13.7881 O.2       1 UNK         0.0000 
     27 C27         5.0383   53.2065   13.6160 C.3       1 UNK         0.0000 
     28 N28         3.1563   53.7571   22.0819 N.pl3     1 UNK         0.0000 
     29 C29         1.7244   53.2099   24.7462 C.3       1 UNK         0.0000 
     30 F30         0.7925   52.8966   25.6397 F         1 UNK         0.0000 
     31 F31         1.2046   54.1824   24.0007 F         1 UNK         0.0000 
     32 F32         1.8857   52.1305   23.9820 F         1 UNK         0.0000 
     33 C33         2.3655   53.3689   27.7580 C.3       1 UNK         0.0000 
     34 H34        -0.0404   52.1817   30.8431 H         1 UNK         0.0000 
     35 H35        -0.0071   52.6768   29.1570 H         1 UNK         0.0000 
     36 H36         0.9447   51.2963   29.6809 H         1 UNK         0.0000 
     37 H37         2.2301   52.8999   31.2213 H         1 UNK         0.0000 
     38 H38         1.4204   54.2282   30.4295 H         1 UNK         0.0000 
     39 H39         3.4864   55.3254   29.3559 H         1 UNK         0.0000 
     40 H40         4.2846   54.2833   30.4862 H         1 UNK         0.0000 
     41 H41         5.6179   53.1743   28.7696 H         1 UNK         0.0000 
     42 H42         5.8916   54.8948   28.7128 H         1 UNK         0.0000 
     43 H43         4.5642   53.5107   20.4221 H         1 UNK         0.0000 
     44 H44         6.4696   56.1762   18.5935 H         1 UNK         0.0000 
     45 H45         6.6160   56.1866   16.1788 H         1 UNK         0.0000 
     46 H46         4.4035   52.4741   16.0398 H         1 UNK         0.0000 
     47 H47         4.2625   52.4750   18.4446 H         1 UNK         0.0000 
     48 H48         5.4689   52.2595   13.9415 H         1 UNK         0.0000 
     49 H49         5.2283   53.3270   12.5500 H         1 UNK         0.0000 
     50 H50         3.9624   53.1593   13.7791 H         1 UNK         0.0000 
     51 H51         2.3086   53.3517   22.4582 H         1 UNK         0.0000 
     52 H52         3.0500   54.1625   21.1594 H         1 UNK         0.0000 
     53 H53         1.5880   54.1347   27.7368 H         1 UNK         0.0000 
     54 H54         1.8943   52.4138   27.5300 H         1 UNK         0.0000 
@<TRIPOS>BOND
     1    1    2 1    
     2    1   34 1    
     3    1   35 1    
     4    1   36 1    
     5    2    3 1    
     6    2   37 1    
     7    2   38 1    
     8    3    4 1    
     9    3   33 1    
    10    3    5 1    
    11    5    6 1    
    12    5   39 1    
    13    5   40 1    
    14    6    7 1    
    15    6   41 1    
    16    6   42 1    
    17    7   15 ar   
    18    7    8 ar   
    19    8    9 ar   
    20    8   33 1    
    21    9   10 ar   
    22    9   29 1    
    23   10   14 ar   
    24   10   11 1    
    25   11   12 2    
    26   11   28 1    
    27   12   13 1    
    28   12   16 1    
    29   13   14 1    
    30   14   15 ar   
    31   16   17 2    
    32   16   18 am   BACKBONE|DICT|INTERRES
    33   18   19 1    
    34   18   43 1    
    35   19   24 ar   
    36   19   20 ar   
    37   20   21 ar   
    38   20   44 1    
    39   21   22 ar   
    40   21   45 1    
    41   22   23 ar   
    42   22   25 1    
    43   23   24 ar   
    44   23   46 1    
    45   24   47 1    
    46   25   26 2    
    47   25   27 1    
    48   27   48 1    
    49   27   49 1    
    50   27   50 1    
    51   28   51 1    
    52   28   52 1    
    53   29   30 1    
    54   29   31 1    
    55   29   32 1    
    56   33   53 1    
    57   33   54 1    
@<TRIPOS>SUBSTRUCTURE
     1 UNK         1 GROUP             0       ****    0 ROOT    
