ZINC50649459_1651
                    3D
 Schrodinger Suite 2024-2.
 31 33  0  0  1  0            999 V2000
    0.9127   50.2628   23.3553 C   0  0  0  0  0  0
    0.7015   50.9941   24.6680 C   0  0  0  0  0  0
    1.2597   52.2545   24.8700 C   0  0  0  0  0  0
    1.0952   52.8959   26.0952 C   0  0  0  0  0  0
    0.3565   52.3129   27.1385 C   0  0  0  0  0  0
   -0.2030   51.0525   26.9025 C   0  0  0  0  0  0
   -0.0300   50.3900   25.6894 C   0  0  0  0  0  0
    0.1353   52.8698   28.3766 N   0  5  0  0  0  0
    0.9030   54.0924   28.9855 S   0  0  0  0  0  0
    1.1047   55.2274   28.0817 O   0  0  0  0  0  0
    0.4612   54.4044   30.3485 O   0  0  0  0  0  0
    2.5518   53.4441   29.2396 C   0  0  0  0  0  0
    3.0398   52.5944   30.2114 C   0  0  0  0  0  0
    4.3038   52.3000   30.0129 N   0  0  0  0  0  0
    4.6623   53.0102   28.9612 C   0  0  0  0  0  0
    3.6232   53.7390   28.4210 N   0  0  0  0  0  0
    3.9625   54.4958   27.3094 C   0  0  0  0  0  0
    5.2952   54.3639   26.9789 C   0  0  0  0  0  0
    6.1551   53.3026   28.0813 S   0  0  0  0  0  0
    2.3720   52.0999   31.2829 N   0  0  0  0  0  0
    1.1402   49.2132   23.5429 H   0  0  0  0  0  0
    1.7514   50.6739   22.7929 H   0  0  0  0  0  0
    0.0129   50.3066   22.7423 H   0  0  0  0  0  0
    1.8300   52.7345   24.0880 H   0  0  0  0  0  0
    1.5288   53.8718   26.1993 H   0  0  0  0  0  0
   -0.7695   50.5582   27.6804 H   0  0  0  0  0  0
   -0.4602   49.4081   25.5531 H   0  0  0  0  0  0
    3.2229   55.1136   26.8231 H   0  0  0  0  0  0
    5.8258   54.8372   26.1654 H   0  0  0  0  0  0
    1.3948   52.3339   31.4187 H   0  0  0  0  0  0
    2.8552   51.6985   32.0724 H   0  0  0  0  0  0
  1  2  1  0  0  0
  1 21  1  0  0  0
  1 22  1  0  0  0
  1 23  1  0  0  0
  2  7  2  0  0  0
  2  3  1  0  0  0
  3  4  2  0  0  0
  3 24  1  0  0  0
  4  5  1  0  0  0
  4 25  1  0  0  0
  5  6  2  0  0  0
  5  8  1  0  0  0
  6  7  1  0  0  0
  6 26  1  0  0  0
  7 27  1  0  0  0
  8  9  1  0  0  0
  9 10  2  0  0  0
  9 11  2  0  0  0
  9 12  1  0  0  0
 12 16  1  0  0  0
 12 13  2  0  0  0
 13 14  1  0  0  0
 13 20  1  0  0  0
 14 15  2  0  0  0
 15 19  1  0  0  0
 15 16  1  0  0  0
 16 17  1  0  0  0
 17 18  2  0  0  0
 17 28  1  0  0  0
 18 19  1  0  0  0
 18 29  1  0  0  0
 20 30  1  0  0  0
 20 31  1  0  0  0
M  CHG  1   8  -1
M  END
> <i_i_glide_confnum>
15

> <i_i_glide_lignum>
1652

> <i_i_glide_posenum>
123

> <i_i_glide_rotatable_bonds>
3

> <i_m_Source_File_Index>
2853

> <b_m_subgroup_collapsed>
0

> <r_i_docking_score>
-5.30671

> <r_i_glide_ecoul>
-4.29123

> <r_i_glide_eff_state_penalty>
0

> <r_i_glide_einternal>
1.64637

> <r_i_glide_emodel>
-48.2611

> <r_i_glide_energy>
-36.711

> <r_i_glide_erotb>
0.586987

> <r_i_glide_esite>
-0.0720451

> <r_i_glide_evdw>
-32.4198

> <r_i_glide_gscore>
-5.30671

> <r_i_glide_hbond>
0

> <r_i_glide_ligand_efficiency>
-0.265336

> <r_i_glide_ligand_efficiency_ln>
-1.32809

> <r_i_glide_ligand_efficiency_sa>
-0.720232

> <r_i_glide_lipo>
-1.47682

> <r_i_glide_metal>
0

> <r_i_glide_rewards>
-2.08016

> <s_i_glide_gridfile>
wee1_glide-grid

> <s_m_Source_File>
wee1_decoys_glide_SP.sdf

> <s_m_Source_Path>
/Users/zhangxujun/Desktop

> <s_m_entry_id>
3128

> <s_m_entry_name>
wee1_decoys_glide_SP.2853

> <s_m_subgroup_title>
wee1_decoys_glide_SP

> <s_m_subgroupid>
wee1_decoys_glide_SP


$$$$
