@<TRIPOS>MOLECULE
ZINC25531512_3535
57   59    1
SMALL
USER_CHARGES


@<TRIPOS>ATOM
      1 C1          6.7660   55.2488   26.2783 C.3       1 UNK         0.0000 
      2 C2          5.3812   54.6490   26.2570 C.2       1 UNK         0.0000 
      3 C3          4.6139   54.4719   27.4185 C.2       1 UNK         0.0000 
      4 C4          3.3427   53.9589   27.1921 C.2       1 UNK         0.0000 
      5 S5          3.0617   53.6965   25.5099 S.3       1 UNK         0.0000 
      6 C6          4.6751   54.2419   25.1114 C.2       1 UNK         0.0000 
      7 C7          5.1805   54.1526   23.7529 C.2       1 UNK         0.0000 
      8 O8          6.3907   54.1752   23.5200 O.2       1 UNK         0.0000 
      9 N9          4.2320   54.0375   22.7985 N.am      1 UNK         0.0000 
     10 C10         4.4202   53.8781   21.4194 C.ar      1 UNK         0.0000 
     11 C11         3.5048   53.0707   20.7520 C.ar      1 UNK         0.0000 
     12 C12         3.6137   52.8811   19.3786 C.ar      1 UNK         0.0000 
     13 C13         4.6321   53.5074   18.6570 C.ar      1 UNK         0.0000 
     14 C14         5.5501   54.3172   19.3296 C.ar      1 UNK         0.0000 
     15 C15         5.4483   54.5088   20.7052 C.ar      1 UNK         0.0000 
     16 N16         4.8177   53.2987   17.2822 N.pl3     1 UNK         0.0000 
     17 S17         3.5139   53.1751   16.0816 S.o2      1 UNK         0.0000 
     18 O18         4.1684   52.8300   14.8145 O.2       1 UNK         0.0000 
     19 O19         2.4316   52.3413   16.6194 O.2       1 UNK         0.0000 
     20 C20         2.8679   54.8345   15.8960 C.ar      1 UNK         0.0000 
     21 C21         3.3493   55.6623   14.8793 C.ar      1 UNK         0.0000 
     22 C22         2.8046   56.9306   14.7045 C.ar      1 UNK         0.0000 
     23 C23         1.7855   57.3663   15.5488 C.ar      1 UNK         0.0000 
     24 C24         1.3144   56.5490   16.5741 C.ar      1 UNK         0.0000 
     25 C25         1.8623   55.2823   16.7566 C.ar      1 UNK         0.0000 
     26 F26         1.2462   58.5914   15.3674 F         1 UNK         0.0000 
     27 N27         2.3097   53.6380   28.0529 N.am      1 UNK         0.0000 
     28 C28         2.3267   53.7132   29.4000 C.2       1 UNK         0.0000 
     29 O29         3.2972   54.0978   30.0590 O.2       1 UNK         0.0000 
     30 C30         1.0293   53.3076   30.1625 C.3       1 UNK         0.0000 
     31 C31         0.4547   54.5673   30.8540 C.3       1 UNK         0.0000 
     32 C32         1.3746   52.2267   31.2203 C.3       1 UNK         0.0000 
     33 C33        -0.0717   52.7182   29.2332 C.3       1 UNK         0.0000 
     34 H34         6.8679   56.0300   25.5269 H         1 UNK         0.0000 
     35 H35         7.0211   55.6965   27.2411 H         1 UNK         0.0000 
     36 H36         7.5049   54.4919   26.0282 H         1 UNK         0.0000 
     37 H37         4.9940   54.7257   28.3973 H         1 UNK         0.0000 
     38 H38         3.2794   53.9574   23.1165 H         1 UNK         0.0000 
     39 H39         2.7093   52.5742   21.2884 H         1 UNK         0.0000 
     40 H40         2.9204   52.2093   18.9001 H         1 UNK         0.0000 
     41 H41         6.3536   54.7974   18.7884 H         1 UNK         0.0000 
     42 H42         6.1600   55.1501   21.2034 H         1 UNK         0.0000 
     43 H43         5.7336   53.4858   16.9080 H         1 UNK         0.0000 
     44 H44         4.1292   55.3198   14.2130 H         1 UNK         0.0000 
     45 H45         3.1635   57.5759   13.9175 H         1 UNK         0.0000 
     46 H46         0.5340   56.9072   17.2304 H         1 UNK         0.0000 
     47 H47         1.4998   54.6461   17.5534 H         1 UNK         0.0000 
     48 H48         1.4667   53.2913   27.6253 H         1 UNK         0.0000 
     49 H49        -0.4954   54.3535   31.3409 H         1 UNK         0.0000 
     50 H50         0.3023   55.3741   30.1383 H         1 UNK         0.0000 
     51 H51         1.1044   54.9654   31.6275 H         1 UNK         0.0000 
     52 H52         1.8196   51.3565   30.7390 H         1 UNK         0.0000 
     53 H53         2.0910   52.5653   31.9699 H         1 UNK         0.0000 
     54 H54         0.4852   51.8967   31.7593 H         1 UNK         0.0000 
     55 H55         0.2763   51.8348   28.6939 H         1 UNK         0.0000 
     56 H56        -0.9439   52.4032   29.8097 H         1 UNK         0.0000 
     57 H57        -0.4235   53.4437   28.4969 H         1 UNK         0.0000 
@<TRIPOS>BOND
     1    1    2 1    
     2    1   34 1    
     3    1   35 1    
     4    1   36 1    
     5    2    6 2    
     6    2    3 1    
     7    3    4 2    
     8    3   37 1    
     9    4    5 1    
    10    4   27 am   BACKBONE|DICT|INTERRES
    11    5    6 1    
    12    6    7 1    
    13    7    8 2    
    14    7    9 am   BACKBONE|DICT|INTERRES
    15    9   10 1    
    16    9   38 1    
    17   10   15 ar   
    18   10   11 ar   
    19   11   12 ar   
    20   11   39 1    
    21   12   13 ar   
    22   12   40 1    
    23   13   14 ar   
    24   13   16 1    
    25   14   15 ar   
    26   14   41 1    
    27   15   42 1    
    28   16   17 1    
    29   16   43 1    
    30   17   18 2    
    31   17   19 2    
    32   17   20 1    
    33   20   25 ar   
    34   20   21 ar   
    35   21   22 ar   
    36   21   44 1    
    37   22   23 ar   
    38   22   45 1    
    39   23   24 ar   
    40   23   26 1    
    41   24   25 ar   
    42   24   46 1    
    43   25   47 1    
    44   27   28 am   BACKBONE|DICT|INTERRES
    45   27   48 1    
    46   28   29 2    
    47   28   30 1    
    48   30   31 1    
    49   30   32 1    
    50   30   33 1    
    51   31   49 1    
    52   31   50 1    
    53   31   51 1    
    54   32   52 1    
    55   32   53 1    
    56   32   54 1    
    57   33   55 1    
    58   33   56 1    
    59   33   57 1    
@<TRIPOS>SUBSTRUCTURE
     1 UNK         1 GROUP             0       ****    0 ROOT    
