@<TRIPOS>MOLECULE
ZINC18210519_1054
61   64    1
SMALL
USER_CHARGES


@<TRIPOS>ATOM
      1 C1          3.4698   52.1480   15.6928 C.3       1 UNK         0.0000 
      2 C2          2.7333   53.3635   16.2723 C.3       1 UNK         0.0000 
      3 C3          1.4989   52.9577   17.0767 C.2       1 UNK         0.0000 
      4 C4          0.2195   52.9978   16.4994 C.2       1 UNK         0.0000 
      5 S5         -0.9929   52.5232   17.6234 S.3       1 UNK         0.0000 
      6 C6          0.1816   52.2416   18.8692 C.2       1 UNK         0.0000 
      7 C7          1.5035   52.4948   18.4357 C.2       1 UNK         0.0000 
      8 C8          2.7258   52.3505   19.2682 C.2       1 UNK         0.0000 
      9 O9          3.8006   52.9000   19.0172 O.2       1 UNK         0.0000 
     10 O10         2.5274   51.5598   20.3540 O.3       1 UNK         0.0000 
     11 C11         3.5916   51.2992   21.2586 C.3       1 UNK         0.0000 
     12 N12        -0.1953   51.8625   20.1591 N.am      1 UNK         0.0000 
     13 C13        -1.4299   51.6963   20.6844 C.2       1 UNK         0.0000 
     14 O14        -2.4941   51.8274   20.0752 O.2       1 UNK         0.0000 
     15 C15        -1.4241   51.4307   22.1038 C.ar      1 UNK         0.0000 
     16 C16        -0.3779   50.8608   22.8607 C.ar      1 UNK         0.0000 
     17 C17        -0.8179   50.8553   24.1684 C.ar      1 UNK         0.0000 
     18 N18        -2.1062   51.3389   24.1305 N.pl3     1 UNK         0.0000 
     19 N19        -2.4656   51.6622   22.8785 N.2       1 UNK         0.0000 
     20 C20        -2.9907   51.4480   25.2971 C.3       1 UNK         0.0000 
     21 H21        -3.3015   50.4359   25.5624 H         1 UNK         0.0000 
     22 C22        -2.0568   51.9370   26.4266 C.3       1 UNK         0.0000 
     23 C23        -0.8016   51.0387   26.6323 C.3       1 UNK         0.0000 
     24 H24        -1.1151   50.1497   27.1837 H         1 UNK         0.0000 
     25 N25        -0.2369   50.5144   25.3715 N.pl3     1 UNK         0.0000 
     26 C26         0.2089   51.7583   27.5237 C.ar      1 UNK         0.0000 
     27 C27         0.0569   51.7061   28.9103 C.ar      1 UNK         0.0000 
     28 C28         0.9657   52.3627   29.7347 C.ar      1 UNK         0.0000 
     29 C29         2.0396   53.0645   29.1887 C.ar      1 UNK         0.0000 
     30 C30         2.1776   53.1378   27.7956 C.ar      1 UNK         0.0000 
     31 C31         1.2613   52.4962   26.9695 C.ar      1 UNK         0.0000 
     32 O32         2.9110   53.6473   30.0841 O.3       1 UNK         0.0000 
     33 C33         4.1061   54.2455   29.6015 C.3       1 UNK         0.0000 
     34 C34        -4.2687   52.3072   25.1115 C.3       1 UNK         0.0000 
     35 F35        -4.9472   52.4028   26.2561 F         1 UNK         0.0000 
     36 F36        -3.9861   53.5531   24.7256 F         1 UNK         0.0000 
     37 F37        -5.0933   51.7760   24.2082 F         1 UNK         0.0000 
     38 C38        -0.2073   53.3883   15.0993 C.3       1 UNK         0.0000 
     39 H39         4.3852   52.4458   15.1801 H         1 UNK         0.0000 
     40 H40         3.7449   51.4440   16.4761 H         1 UNK         0.0000 
     41 H41         2.8461   51.6086   14.9799 H         1 UNK         0.0000 
     42 H42         2.4729   54.0379   15.4574 H         1 UNK         0.0000 
     43 H43         3.4175   53.9686   16.8647 H         1 UNK         0.0000 
     44 H44         3.2675   50.5962   22.0279 H         1 UNK         0.0000 
     45 H45         3.9164   52.2175   21.7494 H         1 UNK         0.0000 
     46 H46         4.4470   50.8664   20.7392 H         1 UNK         0.0000 
     47 H47         0.5846   51.7352   20.7876 H         1 UNK         0.0000 
     48 H48         0.5926   50.5359   22.5150 H         1 UNK         0.0000 
     49 H49        -1.7636   52.9680   26.2164 H         1 UNK         0.0000 
     50 H50        -2.6109   51.9977   27.3647 H         1 UNK         0.0000 
     51 H51         0.4180   49.7523   25.4783 H         1 UNK         0.0000 
     52 H52        -0.7602   51.1511   29.3517 H         1 UNK         0.0000 
     53 H53         0.8433   52.3117   30.8070 H         1 UNK         0.0000 
     54 H54         2.9885   53.6828   27.3371 H         1 UNK         0.0000 
     55 H55         1.3791   52.5664   25.8981 H         1 UNK         0.0000 
     56 H56         4.7051   54.5252   30.4633 H         1 UNK         0.0000 
     57 H57         4.6990   53.5523   29.0015 H         1 UNK         0.0000 
     58 H58         3.9000   55.1465   29.0212 H         1 UNK         0.0000 
     59 H59         0.6191   53.4237   14.3915 H         1 UNK         0.0000 
     60 H60        -0.9260   52.6798   14.6877 H         1 UNK         0.0000 
     61 H61        -0.6839   54.3683   15.0875 H         1 UNK         0.0000 
@<TRIPOS>BOND
     1    1    2 1    
     2    1   39 1    
     3    1   40 1    
     4    1   41 1    
     5    2    3 1    
     6    2   42 1    
     7    2   43 1    
     8    3    7 1    
     9    3    4 2    
    10    4    5 1    
    11    4   38 1    
    12    5    6 1    
    13    6    7 2    
    14    6   12 am   BACKBONE|DICT|INTERRES
    15    7    8 1    
    16    8    9 2    
    17    8   10 1    
    18   10   11 1    
    19   11   44 1    
    20   11   45 1    
    21   11   46 1    
    22   12   13 am   BACKBONE|DICT|INTERRES
    23   12   47 1    
    24   13   14 2    
    25   13   15 1    
    26   15   19 ar   
    27   15   16 ar   
    28   16   17 ar   
    29   16   48 1    
    30   17   25 1    
    31   17   18 ar   
    32   18   19 ar   
    33   18   20 1    
    34   20   21 1    
    35   20   22 1    
    36   20   34 1    
    37   22   23 1    
    38   22   49 1    
    39   22   50 1    
    40   23   24 1    
    41   23   25 1    
    42   23   26 1    
    43   25   51 1    
    44   26   31 ar   
    45   26   27 ar   
    46   27   28 ar   
    47   27   52 1    
    48   28   29 ar   
    49   28   53 1    
    50   29   30 ar   
    51   29   32 1    
    52   30   31 ar   
    53   30   54 1    
    54   31   55 1    
    55   32   33 1    
    56   33   56 1    
    57   33   57 1    
    58   33   58 1    
    59   34   35 1    
    60   34   36 1    
    61   34   37 1    
    62   38   59 1    
    63   38   60 1    
    64   38   61 1    
@<TRIPOS>SUBSTRUCTURE
     1 UNK         1 GROUP             0       ****    0 ROOT    
