@<TRIPOS>MOLECULE
ZINC13946251_5297
71   74    1
SMALL
USER_CHARGES


@<TRIPOS>ATOM
      1 C1         -0.4822   51.6877   30.1316 C.3       1 UNK         0.0000 
      2 C2          0.4635   52.8717   30.4930 C.3       1 UNK         0.0000 
      3 C3          0.0336   54.1081   29.6626 C.3       1 UNK         0.0000 
      4 C4          0.2208   53.2957   31.9680 C.3       1 UNK         0.0000 
      5 C5          1.9779   52.4970   30.2887 C.2       1 UNK         0.0000 
      6 O6          2.6382   52.0974   31.2548 O.2       1 UNK         0.0000 
      7 N7          2.5737   52.6660   29.0803 N.am      1 UNK         0.0000 
      8 C8          4.0197   52.8925   28.9566 C.3       1 UNK         0.0000 
      9 C9          4.2144   54.1451   28.0656 C.3       1 UNK         0.0000 
     10 N10         3.5073   54.0955   26.7688 N.pl3     1 UNK         0.0000 
     11 C11         2.0922   53.7116   26.9416 C.3       1 UNK         0.0000 
     12 C12         1.8721   52.4659   27.8114 C.3       1 UNK         0.0000 
     13 C13         4.1062   54.2100   25.5115 C.ar      1 UNK         0.0000 
     14 C14         3.3133   54.4436   24.3793 C.ar      1 UNK         0.0000 
     15 C15         3.8715   54.4964   23.1141 C.ar      1 UNK         0.0000 
     16 C16         5.2507   54.3534   22.9551 C.ar      1 UNK         0.0000 
     17 C17         6.0683   54.1752   24.0682 C.ar      1 UNK         0.0000 
     18 C18         5.4963   54.0968   25.3372 C.ar      1 UNK         0.0000 
     19 N19         5.8550   54.5019   21.6992 N.pl3     1 UNK         0.0000 
     20 C20         5.5046   54.0129   20.4663 C.2       1 UNK         0.0000 
     21 S21         4.3038   52.8982   20.1697 S.2       1 UNK         0.0000 
     22 N22         6.1884   54.4758   19.3772 N.am      1 UNK         0.0000 
     23 C23         7.2730   55.2850   19.2796 C.2       1 UNK         0.0000 
     24 O24         7.8910   55.7378   20.2501 O.2       1 UNK         0.0000 
     25 C25         7.7398   55.5715   17.8319 C.3       1 UNK         0.0000 
     26 C26         8.3458   56.9791   17.6266 C.ar      1 UNK         0.0000 
     27 C27         9.4525   57.4279   18.3652 C.ar      1 UNK         0.0000 
     28 C28         9.9657   58.7060   18.1676 C.ar      1 UNK         0.0000 
     29 C29         9.3650   59.5528   17.2428 C.ar      1 UNK         0.0000 
     30 C30         8.2568   59.1330   16.5146 C.ar      1 UNK         0.0000 
     31 C31         7.7500   57.8506   16.7065 C.ar      1 UNK         0.0000 
     32 C32         8.5522   54.3765   17.2922 C.ar      1 UNK         0.0000 
     33 C33         9.9519   54.3251   17.3677 C.ar      1 UNK         0.0000 
     34 C34        10.6426   53.2199   16.8814 C.ar      1 UNK         0.0000 
     35 C35         9.9428   52.1479   16.3356 C.ar      1 UNK         0.0000 
     36 C36         8.5534   52.1756   16.2639 C.ar      1 UNK         0.0000 
     37 C37         7.8619   53.2870   16.7365 C.ar      1 UNK         0.0000 
     38 H38        -1.3525   52.0128   29.5630 H         1 UNK         0.0000 
     39 H39        -0.8910   51.1855   31.0079 H         1 UNK         0.0000 
     40 H40        -0.0075   50.9124   29.5259 H         1 UNK         0.0000 
     41 H41         0.7660   54.9145   29.7008 H         1 UNK         0.0000 
     42 H42        -0.1860   53.8990   28.6188 H         1 UNK         0.0000 
     43 H43        -0.8952   54.4967   30.0713 H         1 UNK         0.0000 
     44 H44         0.7044   54.2369   32.2248 H         1 UNK         0.0000 
     45 H45        -0.8392   53.4682   32.1325 H         1 UNK         0.0000 
     46 H46         0.5424   52.5384   32.6851 H         1 UNK         0.0000 
     47 H47         4.5014   53.0415   29.9241 H         1 UNK         0.0000 
     48 H48         4.5002   52.0343   28.4876 H         1 UNK         0.0000 
     49 H49         5.2798   54.3442   27.9583 H         1 UNK         0.0000 
     50 H50         3.8126   55.0201   28.5812 H         1 UNK         0.0000 
     51 H51         1.5906   53.5073   25.9985 H         1 UNK         0.0000 
     52 H52         1.5944   54.5820   27.3715 H         1 UNK         0.0000 
     53 H53         2.3052   51.6054   27.3086 H         1 UNK         0.0000 
     54 H54         0.8192   52.2217   27.9175 H         1 UNK         0.0000 
     55 H55         2.2502   54.6072   24.4502 H         1 UNK         0.0000 
     56 H56         3.2292   54.6943   22.2667 H         1 UNK         0.0000 
     57 H57         7.1399   54.0910   23.9575 H         1 UNK         0.0000 
     58 H58         6.1548   53.9138   26.1697 H         1 UNK         0.0000 
     59 H59         6.7220   55.0240   21.7168 H         1 UNK         0.0000 
     60 H60         5.8292   54.1383   18.4974 H         1 UNK         0.0000 
     61 H61         6.8262   55.5743   17.2341 H         1 UNK         0.0000 
     62 H62         9.9058   56.7910   19.1091 H         1 UNK         0.0000 
     63 H63        10.8187   59.0352   18.7427 H         1 UNK         0.0000 
     64 H64         9.7557   60.5486   17.0899 H         1 UNK         0.0000 
     65 H65         7.7786   59.8054   15.8146 H         1 UNK         0.0000 
     66 H66         6.8860   57.5443   16.1343 H         1 UNK         0.0000 
     67 H67        10.5252   55.1291   17.8025 H         1 UNK         0.0000 
     68 H68        11.7200   53.1839   16.9442 H         1 UNK         0.0000 
     69 H69        10.4800   51.2858   15.9673 H         1 UNK         0.0000 
     70 H70         8.0117   51.3364   15.8496 H         1 UNK         0.0000 
     71 H71         6.7818   53.2881   16.6793 H         1 UNK         0.0000 
@<TRIPOS>BOND
     1    1    2 1    
     2    1   38 1    
     3    1   39 1    
     4    1   40 1    
     5    2    3 1    
     6    2    4 1    
     7    2    5 1    
     8    3   41 1    
     9    3   42 1    
    10    3   43 1    
    11    4   44 1    
    12    4   45 1    
    13    4   46 1    
    14    5    6 2    
    15    5    7 am   BACKBONE|DICT|INTERRES
    16    7   12 1    
    17    7    8 1    
    18    8    9 1    
    19    8   47 1    
    20    8   48 1    
    21    9   10 1    
    22    9   49 1    
    23    9   50 1    
    24   10   11 1    
    25   10   13 1    
    26   11   12 1    
    27   11   51 1    
    28   11   52 1    
    29   12   53 1    
    30   12   54 1    
    31   13   18 ar   
    32   13   14 ar   
    33   14   15 ar   
    34   14   55 1    
    35   15   16 ar   
    36   15   56 1    
    37   16   17 ar   
    38   16   19 1    
    39   17   18 ar   
    40   17   57 1    
    41   18   58 1    
    42   19   20 1    
    43   19   59 1    
    44   20   21 2    
    45   20   22 am   BACKBONE|DICT|INTERRES
    46   22   23 am   BACKBONE|DICT|INTERRES
    47   22   60 1    
    48   23   24 2    
    49   23   25 1    
    50   25   26 1    
    51   25   32 1    
    52   25   61 1    
    53   26   31 ar   
    54   26   27 ar   
    55   27   28 ar   
    56   27   62 1    
    57   28   29 ar   
    58   28   63 1    
    59   29   30 ar   
    60   29   64 1    
    61   30   31 ar   
    62   30   65 1    
    63   31   66 1    
    64   32   37 ar   
    65   32   33 ar   
    66   33   34 ar   
    67   33   67 1    
    68   34   35 ar   
    69   34   68 1    
    70   35   36 ar   
    71   35   69 1    
    72   36   37 ar   
    73   36   70 1    
    74   37   71 1    
@<TRIPOS>SUBSTRUCTURE
     1 UNK         1 GROUP             0       ****    0 ROOT    
