@<TRIPOS>MOLECULE
ZINC39836487_4246
64   67    1
SMALL
USER_CHARGES


@<TRIPOS>ATOM
      1 C1          3.8265   55.1189   28.2587 C.3       1 UNK         0.0000 
      2 C2          4.1093   53.7189   27.6771 C.3       1 UNK         0.0000 
      3 C3          5.2804   53.1142   28.4881 C.3       1 UNK         0.0000 
      4 C4          2.8589   52.8501   27.9729 C.3       1 UNK         0.0000 
      5 C5          4.5092   53.7526   26.1409 C.3       1 UNK         0.0000 
      6 H6          5.1633   52.8969   25.9863 H         1 UNK         0.0000 
      7 C7          5.3639   54.9844   25.7316 C.3       1 UNK         0.0000 
      8 C8          6.0222   54.8585   24.3368 C.3       1 UNK         0.0000 
      9 C9          5.0187   54.3255   23.2980 C.2       1 UNK         0.0000 
     10 C10         3.8116   53.7469   23.7230 C.2       1 UNK         0.0000 
     11 S11         2.8805   53.1300   22.4163 S.3       1 UNK         0.0000 
     12 C12         4.0614   53.6759   21.2540 C.2       1 UNK         0.0000 
     13 C13         5.1243   54.3877   21.8680 C.2       1 UNK         0.0000 
     14 C14         6.1479   55.1626   21.1513 C.2       1 UNK         0.0000 
     15 O15         6.7412   56.0973   21.6804 O.2       1 UNK         0.0000 
     16 N16         6.3590   54.8234   19.8622 N.am      1 UNK         0.0000 
     17 C17         7.1987   55.4927   18.8574 C.3       1 UNK         0.0000 
     18 H18         7.1476   54.9237   17.9257 H         1 UNK         0.0000 
     19 C19         8.6981   55.5501   19.2514 C.3       1 UNK         0.0000 
     20 C20         9.4493   56.4505   18.2588 C.3       1 UNK         0.0000 
     21 S21         8.2227   57.7804   17.7654 S.o2      1 UNK         0.0000 
     22 O22         8.5050   59.0283   18.4813 O.2       1 UNK         0.0000 
     23 O23         8.0942   57.7695   16.3060 O.2       1 UNK         0.0000 
     24 C24         6.7436   56.9310   18.5420 C.3       1 UNK         0.0000 
     25 N25         3.8333   53.5067   19.8862 N.am      1 UNK         0.0000 
     26 C26         3.0855   52.5583   19.2753 C.2       1 UNK         0.0000 
     27 O27         2.5312   51.6163   19.8452 O.2       1 UNK         0.0000 
     28 C28         2.9855   52.7105   17.7725 C.ar      1 UNK         0.0000 
     29 C29         4.1774   52.8990   17.0509 C.ar      1 UNK         0.0000 
     30 C30         4.1872   52.9422   15.6616 C.ar      1 UNK         0.0000 
     31 C31         2.9997   52.7919   14.9596 C.ar      1 UNK         0.0000 
     32 C32         1.8055   52.6114   15.6497 C.ar      1 UNK         0.0000 
     33 C33         1.7610   52.5843   17.0552 C.ar      1 UNK         0.0000 
     34 N34         0.4229   52.4425   17.7002 N.pl3     1 UNK         0.0000 
     35 O35         0.2337   52.8933   18.8247 O.co2     1 UNK         0.0000 
     36 O36        -0.4840   51.9286   17.0484 O.co2     1 UNK         0.0000 
     37 C37         3.3089   53.6747   25.1621 C.3       1 UNK         0.0000 
     38 H38         3.0755   55.6831   27.7015 H         1 UNK         0.0000 
     39 H39         3.4944   55.0755   29.2970 H         1 UNK         0.0000 
     40 H40         4.7484   55.6960   28.2497 H         1 UNK         0.0000 
     41 H41         5.5406   52.1184   28.1342 H         1 UNK         0.0000 
     42 H42         6.1821   53.7241   28.4262 H         1 UNK         0.0000 
     43 H43         5.0252   53.0136   29.5435 H         1 UNK         0.0000 
     44 H44         2.9994   51.8115   27.6815 H         1 UNK         0.0000 
     45 H45         2.6246   52.8353   29.0389 H         1 UNK         0.0000 
     46 H46         1.9668   53.2244   27.4696 H         1 UNK         0.0000 
     47 H47         4.7728   55.8970   25.8011 H         1 UNK         0.0000 
     48 H48         6.1710   55.1188   26.4524 H         1 UNK         0.0000 
     49 H49         6.8760   54.1819   24.3892 H         1 UNK         0.0000 
     50 H50         6.4306   55.8320   24.0720 H         1 UNK         0.0000 
     51 H51         6.0489   53.9000   19.6012 H         1 UNK         0.0000 
     52 H52         8.8252   55.9424   20.2611 H         1 UNK         0.0000 
     53 H53         9.1293   54.5482   19.2830 H         1 UNK         0.0000 
     54 H54        10.3786   56.8989   18.6073 H         1 UNK         0.0000 
     55 H55         9.6741   55.8736   17.3622 H         1 UNK         0.0000 
     56 H56         5.8021   57.1050   18.0256 H         1 UNK         0.0000 
     57 H57         6.6511   57.4490   19.4932 H         1 UNK         0.0000 
     58 H58         4.3435   54.1250   19.2754 H         1 UNK         0.0000 
     59 H59         5.1284   52.9536   17.5605 H         1 UNK         0.0000 
     60 H60         5.1198   53.0642   15.1302 H         1 UNK         0.0000 
     61 H61         3.0031   52.8106   13.8800 H         1 UNK         0.0000 
     62 H62         0.8976   52.5087   15.0727 H         1 UNK         0.0000 
     63 H63         2.6173   54.4957   25.3487 H         1 UNK         0.0000 
     64 H64         2.7417   52.7550   25.3055 H         1 UNK         0.0000 
@<TRIPOS>BOND
     1    1    2 1    
     2    1   38 1    
     3    1   39 1    
     4    1   40 1    
     5    2    3 1    
     6    2    4 1    
     7    2    5 1    
     8    3   41 1    
     9    3   42 1    
    10    3   43 1    
    11    4   44 1    
    12    4   45 1    
    13    4   46 1    
    14    5    6 1    
    15    5   37 1    
    16    5    7 1    
    17    7    8 1    
    18    7   47 1    
    19    7   48 1    
    20    8    9 1    
    21    8   49 1    
    22    8   50 1    
    23    9   13 1    
    24    9   10 2    
    25   10   11 1    
    26   10   37 1    
    27   11   12 1    
    28   12   13 2    
    29   12   25 am   BACKBONE|DICT|INTERRES
    30   13   14 1    
    31   14   15 2    
    32   14   16 am   BACKBONE|DICT|INTERRES
    33   16   17 1    
    34   16   51 1    
    35   17   18 1    
    36   17   24 1    
    37   17   19 1    
    38   19   20 1    
    39   19   52 1    
    40   19   53 1    
    41   20   21 1    
    42   20   54 1    
    43   20   55 1    
    44   21   22 2    
    45   21   23 2    
    46   21   24 1    
    47   24   56 1    
    48   24   57 1    
    49   25   26 am   BACKBONE|DICT|INTERRES
    50   25   58 1    
    51   26   27 2    
    52   26   28 1    
    53   28   33 ar   
    54   28   29 ar   
    55   29   30 ar   
    56   29   59 1    
    57   30   31 ar   
    58   30   60 1    
    59   31   32 ar   
    60   31   61 1    
    61   32   33 ar   
    62   32   62 1    
    63   33   34 1    
    64   34   35 2    
    65   34   36 1    
    66   37   63 1    
    67   37   64 1    
@<TRIPOS>SUBSTRUCTURE
     1 UNK         1 GROUP             0       ****    0 ROOT    
