ZINC65265899_1313
                    3D
 Schrodinger Suite 2024-2.
 66 70  0  0  1  0            999 V2000
    6.5317   54.0975   28.1234 C   0  0  0  0  0  0
    6.7040   54.4076   26.7435 O   0  0  0  0  0  0
    5.6164   54.3053   25.8981 C   0  0  0  0  0  0
    5.8831   54.3994   24.5348 C   0  0  0  0  0  0
    4.8769   54.2639   23.5611 C   0  0  0  0  0  0
    3.5592   54.0962   24.0182 C   0  0  0  0  0  0
    3.2607   53.9689   25.3744 C   0  0  0  0  0  0
    4.2954   54.0932   26.3143 C   0  0  0  0  0  0
    1.9431   53.6963   25.6849 O   0  0  0  0  0  0
    1.6135   53.3006   27.0124 C   0  0  0  0  0  0
    5.2771   54.3236   22.0900 C   0  0  0  0  0  0
    6.3372   54.8980   21.8138 O   0  0  0  0  0  0
    4.5568   53.7090   21.1089 N   0  0  0  0  0  0
    5.1463   53.5370   19.7798 C   0  0  0  0  0  0
    3.9886   53.0417   18.9353 C   0  0  0  0  0  0
    3.0572   52.2600   19.8709 C   0  0  1  0  0  0
    3.2544   53.0281   21.2039 C   0  0  0  0  0  0
    1.6122   52.2899   19.3495 C   0  0  0  0  0  0
    0.5871   51.9940   20.1651 N   0  0  0  0  0  0
    0.6280   51.4081   21.4519 C   0  0  0  0  0  0
   -0.3163   51.7834   22.4130 C   0  0  0  0  0  0
   -0.2473   51.2609   23.7029 C   0  0  0  0  0  0
    0.7646   50.3646   24.0307 C   0  0  0  0  0  0
    1.6817   49.9651   23.0589 C   0  0  0  0  0  0
    1.5987   50.4368   21.7462 C   0  0  0  0  0  0
    2.5456   49.9429   20.6483 C   0  0  0  0  0  0
    3.5048   50.8853   20.0815 N   0  0  0  0  0  0
    1.3387   52.5983   18.0755 N   0  3  0  0  0  0
    0.0206   52.6994   17.4252 C   0  0  0  0  0  0
   -0.3517   54.1958   17.2979 C   0  0  0  0  0  0
   -0.5412   54.4656   15.7979 C   0  0  0  0  0  0
    0.3237   53.4128   15.1037 C   0  0  0  0  0  0
    0.1607   52.1703   15.9850 C   0  0  0  0  0  0
    7.5033   54.0965   28.6131 H   0  0  0  0  0  0
    5.9048   54.8405   28.6225 H   0  0  0  0  0  0
    6.0956   53.1085   28.2708 H   0  0  0  0  0  0
    6.9128   54.5449   24.2358 H   0  0  0  0  0  0
    2.7192   54.0581   23.3476 H   0  0  0  0  0  0
    4.0772   54.0125   27.3650 H   0  0  0  0  0  0
    0.5834   52.9413   27.0383 H   0  0  0  0  0  0
    1.6946   54.1424   27.7042 H   0  0  0  0  0  0
    2.2447   52.4800   27.3635 H   0  0  0  0  0  0
    5.5773   54.4581   19.3804 H   0  0  0  0  0  0
    5.9049   52.7544   19.8217 H   0  0  0  0  0  0
    3.4750   53.9320   18.5743 H   0  0  0  0  0  0
    4.3192   52.4957   18.0503 H   0  0  0  0  0  0
    3.2498   52.3330   22.0443 H   0  0  0  0  0  0
    2.4376   53.7328   21.2844 H   0  0  0  0  0  0
   -1.0911   52.4968   22.1725 H   0  0  0  0  0  0
   -0.9666   51.5610   24.4508 H   0  0  0  0  0  0
    0.8360   49.9692   25.0345 H   0  0  0  0  0  0
    2.4782   49.2966   23.3289 H   0  0  0  0  0  0
    3.0937   49.0812   21.0279 H   0  0  0  0  0  0
    1.9306   49.5528   19.8346 H   0  0  0  0  0  0
    3.9604   50.5068   19.2362 H   0  0  0  0  0  0
    2.1378   52.7849   17.4853 H   0  0  0  0  0  0
   -0.7505   52.1313   17.9471 H   0  0  0  0  0  0
   -1.2602   54.4296   17.8556 H   0  0  0  0  0  0
    0.4325   54.8558   17.6855 H   0  0  0  0  0  0
   -1.5897   54.3272   15.5206 H   0  0  0  0  0  0
   -0.2559   55.4829   15.5218 H   0  0  0  0  0  0
    0.0120   53.2346   14.0733 H   0  0  0  0  0  0
    1.3687   53.7315   15.0834 H   0  0  0  0  0  0
    0.9712   51.4483   15.8445 H   0  0  0  0  0  0
   -0.7592   51.6565   15.7005 H   0  0  0  0  0  0
   -0.3383   52.2390   19.8486 H   0  0  0  0  0  0
  1  2  1  0  0  0
  1 34  1  0  0  0
  1 35  1  0  0  0
  1 36  1  0  0  0
  2  3  1  0  0  0
  3  8  2  0  0  0
  3  4  1  0  0  0
  4  5  2  0  0  0
  4 37  1  0  0  0
  5  6  1  0  0  0
  5 11  1  0  0  0
  6  7  2  0  0  0
  6 38  1  0  0  0
  7  8  1  0  0  0
  7  9  1  0  0  0
  8 39  1  0  0  0
  9 10  1  0  0  0
 10 40  1  0  0  0
 10 41  1  0  0  0
 10 42  1  0  0  0
 11 12  2  0  0  0
 11 13  1  0  0  0
 13 17  1  0  0  0
 13 14  1  0  0  0
 14 15  1  0  0  0
 14 43  1  0  0  0
 14 44  1  0  0  0
 15 16  1  0  0  0
 15 45  1  0  0  0
 15 46  1  0  0  0
 16 27  1  0  0  0
 16 17  1  0  0  0
 16 18  1  0  0  0
 17 47  1  0  0  0
 17 48  1  0  0  0
 18 19  1  0  0  0
 18 28  2  0  0  0
 19 20  1  0  0  0
 19 66  1  0  0  0
 20 25  2  0  0  0
 20 21  1  0  0  0
 21 22  2  0  0  0
 21 49  1  0  0  0
 22 23  1  0  0  0
 22 50  1  0  0  0
 23 24  2  0  0  0
 23 51  1  0  0  0
 24 25  1  0  0  0
 24 52  1  0  0  0
 25 26  1  0  0  0
 26 27  1  0  0  0
 26 53  1  0  0  0
 26 54  1  0  0  0
 27 55  1  0  0  0
 28 29  1  0  0  0
 28 56  1  0  0  0
 29 33  1  0  0  0
 29 30  1  0  0  0
 29 57  1  0  0  0
 30 31  1  0  0  0
 30 58  1  0  0  0
 30 59  1  0  0  0
 31 32  1  0  0  0
 31 60  1  0  0  0
 31 61  1  0  0  0
 32 33  1  0  0  0
 32 62  1  0  0  0
 32 63  1  0  0  0
 33 64  1  0  0  0
 33 65  1  0  0  0
M  CHG  1  28   1
M  END
> <i_i_glide_confnum>
68

> <i_i_glide_lignum>
1314

> <i_i_glide_posenum>
372

> <i_i_glide_rotatable_bonds>
5

> <i_m_Source_File_Index>
3524

> <b_m_subgroup_collapsed>
0

> <r_i_docking_score>
-5.91433

> <r_i_glide_ecoul>
-6.40382

> <r_i_glide_eff_state_penalty>
0

> <r_i_glide_einternal>
7.55222

> <r_i_glide_emodel>
-55.4684

> <r_i_glide_energy>
-43.2056

> <r_i_glide_erotb>
0.198328

> <r_i_glide_esite>
-0.056009

> <r_i_glide_evdw>
-36.8017

> <r_i_glide_gscore>
-5.91433

> <r_i_glide_hbond>
-0.167425

> <r_i_glide_ligand_efficiency>
-0.179222

> <r_i_glide_ligand_efficiency_ln>
-1.31532

> <r_i_glide_ligand_efficiency_sa>
-0.574861

> <r_i_glide_lipo>
-2.30578

> <r_i_glide_metal>
0

> <r_i_glide_rewards>
-0.782779

> <s_i_glide_gridfile>
wee1_glide-grid

> <s_m_Source_File>
wee1_decoys_glide_SP.sdf

> <s_m_Source_Path>
/Users/zhangxujun/Desktop

> <s_m_entry_id>
3799

> <s_m_entry_name>
wee1_decoys_glide_SP.3524

> <s_m_subgroup_title>
wee1_decoys_glide_SP

> <s_m_subgroupid>
wee1_decoys_glide_SP


$$$$
