@<TRIPOS>MOLECULE
ZINC09325386_2239
48   51    1
SMALL
USER_CHARGES


@<TRIPOS>ATOM
      1 C1          2.9880   50.8266   21.4867 C.3       1 UNK         0.0000 
      2 N2          3.9543   51.8950   21.2478 N.am      1 UNK         0.0000 
      3 C3          3.8667   52.7268   20.1936 C.2       1 UNK         0.0000 
      4 O4          2.9702   52.6287   19.3553 O.2       1 UNK         0.0000 
      5 C5          4.8929   53.7646   20.1026 C.2       1 UNK         0.0000 
      6 C6          5.3411   54.3152   18.8640 C.2       1 UNK         0.0000 
      7 C7          6.2717   55.3468   19.0345 C.2       1 UNK         0.0000 
      8 S8          6.5894   55.6880   20.6886 S.3       1 UNK         0.0000 
      9 C9          5.4954   54.4233   21.2046 C.2       1 UNK         0.0000 
     10 N10         5.2360   54.1894   22.5588 N.am      1 UNK         0.0000 
     11 C11         5.9037   54.6661   23.6332 C.2       1 UNK         0.0000 
     12 O12         6.9359   55.3303   23.5794 O.2       1 UNK         0.0000 
     13 C13         5.2882   54.3736   24.9075 C.2       1 UNK         0.0000 
     14 C14         3.9553   54.0971   25.2254 C.2       1 UNK         0.0000 
     15 C15         3.7547   53.9099   26.6286 C.ar      1 UNK         0.0000 
     16 C16         2.5855   53.5919   27.3443 C.ar      1 UNK         0.0000 
     17 C17         2.6394   53.4409   28.7306 C.ar      1 UNK         0.0000 
     18 C18         3.8308   53.6216   29.4218 C.ar      1 UNK         0.0000 
     19 C19         5.0040   53.9659   28.7568 C.ar      1 UNK         0.0000 
     20 C20         4.9603   54.0970   27.3672 C.ar      1 UNK         0.0000 
     21 S21         6.3079   54.4972   26.3325 S.3       1 UNK         0.0000 
     22 Cl22        2.6228   53.9840   24.1276 Cl        1 UNK         0.0000 
     23 C23         6.9603   56.1033   17.9071 C.3       1 UNK         0.0000 
     24 N24         6.6045   55.4687   16.6251 N.am      1 UNK         0.0000 
     25 C25         5.1990   55.0724   16.4426 C.3       1 UNK         0.0000 
     26 C26         4.9139   53.9190   17.4407 C.3       1 UNK         0.0000 
     27 C27         7.4916   55.3962   15.5371 C.2       1 UNK         0.0000 
     28 O28         7.2276   54.8997   14.4393 O.2       1 UNK         0.0000 
     29 O29         8.7060   55.9286   15.8345 O.3       1 UNK         0.0000 
     30 C30         9.7555   55.9218   14.8766 C.3       1 UNK         0.0000 
     31 H31         3.1065   50.3985   22.4828 H         1 UNK         0.0000 
     32 H32         1.9655   51.1950   21.4057 H         1 UNK         0.0000 
     33 H33         3.1169   50.0267   20.7570 H         1 UNK         0.0000 
     34 H34         4.8178   51.8700   21.7722 H         1 UNK         0.0000 
     35 H35         4.4472   53.5859   22.7544 H         1 UNK         0.0000 
     36 H36         1.6508   53.4460   26.8254 H         1 UNK         0.0000 
     37 H37         1.7405   53.1848   29.2765 H         1 UNK         0.0000 
     38 H38         3.8549   53.4899   30.4920 H         1 UNK         0.0000 
     39 H39         5.9325   54.1232   29.2814 H         1 UNK         0.0000 
     40 H40         8.0378   56.1187   18.0760 H         1 UNK         0.0000 
     41 H41         6.6469   57.1484   17.8922 H         1 UNK         0.0000 
     42 H42         4.5667   55.9303   16.6875 H         1 UNK         0.0000 
     43 H43         4.9602   54.7986   15.4121 H         1 UNK         0.0000 
     44 H44         3.8538   53.6890   17.3688 H         1 UNK         0.0000 
     45 H45         5.4306   53.0073   17.1258 H         1 UNK         0.0000 
     46 H46        10.6393   56.3976   15.3024 H         1 UNK         0.0000 
     47 H47         9.4711   56.4704   13.9778 H         1 UNK         0.0000 
     48 H48        10.0190   54.9024   14.5910 H         1 UNK         0.0000 
@<TRIPOS>BOND
     1    1    2 1    
     2    1   31 1    
     3    1   32 1    
     4    1   33 1    
     5    2    3 am   BACKBONE|DICT|INTERRES
     6    2   34 1    
     7    3    4 2    
     8    3    5 1    
     9    5    9 2    
    10    5    6 1    
    11    6   26 1    
    12    6    7 2    
    13    7    8 1    
    14    7   23 1    
    15    8    9 1    
    16    9   10 am   BACKBONE|DICT|INTERRES
    17   10   11 am   BACKBONE|DICT|INTERRES
    18   10   35 1    
    19   11   12 2    
    20   11   13 1    
    21   13   21 1    
    22   13   14 2    
    23   14   15 1    
    24   14   22 1    
    25   15   20 ar   
    26   15   16 ar   
    27   16   17 ar   
    28   16   36 1    
    29   17   18 ar   
    30   17   37 1    
    31   18   19 ar   
    32   18   38 1    
    33   19   20 ar   
    34   19   39 1    
    35   20   21 1    
    36   23   24 1    
    37   23   40 1    
    38   23   41 1    
    39   24   25 1    
    40   24   27 am   BACKBONE|DICT|INTERRES
    41   25   26 1    
    42   25   42 1    
    43   25   43 1    
    44   26   44 1    
    45   26   45 1    
    46   27   28 2    
    47   27   29 1    
    48   29   30 1    
    49   30   46 1    
    50   30   47 1    
    51   30   48 1    
@<TRIPOS>SUBSTRUCTURE
     1 UNK         1 GROUP             0       ****    0 ROOT    
