@<TRIPOS>MOLECULE
ZINC12379053_1880
44   47    1
SMALL
USER_CHARGES


@<TRIPOS>ATOM
      1 C1         -3.2756   51.2871   26.1797 C.3       1 UNK         0.0000 
      2 C2         -2.5506   50.5797   25.0250 C.3       1 UNK         0.0000 
      3 C3         -1.3188   51.3778   24.5570 C.3       1 UNK         0.0000 
      4 C4         -0.5133   51.8243   25.7699 C.2       1 UNK         0.0000 
      5 C5         -0.9683   51.8315   27.1023 C.2       1 UNK         0.0000 
      6 C6         -0.0037   52.3835   27.9998 C.2       1 UNK         0.0000 
      7 C7          1.1480   52.7916   27.2986 C.2       1 UNK         0.0000 
      8 S8          1.0674   52.4967   25.6005 S.3       1 UNK         0.0000 
      9 N9          2.3349   53.3406   27.7451 N.am      1 UNK         0.0000 
     10 C10         3.1245   52.7395   28.6573 C.2       1 UNK         0.0000 
     11 O11         2.8286   51.6967   29.2461 O.2       1 UNK         0.0000 
     12 C12         4.4947   53.3701   28.9600 C.3       1 UNK         0.0000 
     13 H13         4.7044   53.0179   29.9686 H         1 UNK         0.0000 
     14 C14         4.5984   54.8967   28.9187 C.3       1 UNK         0.0000 
     15 C15         5.7888   55.1467   27.9447 C.3       1 UNK         0.0000 
     16 H16         6.3044   56.0967   28.0817 H         1 UNK         0.0000 
     17 C17         5.3552   54.8967   26.4928 C.3       1 UNK         0.0000 
     18 C18         5.2946   53.3731   26.4817 C.3       1 UNK         0.0000 
     19 C19         5.6091   52.9990   27.9521 C.3       1 UNK         0.0000 
     20 H20         6.0075   52.0277   28.1008 H         1 UNK         0.0000 
     21 C21         6.7026   53.9914   28.2444 C.3       1 UNK         0.0000 
     22 C22        -0.1905   52.6150   29.4246 C.2       1 UNK         0.0000 
     23 O23         0.2829   53.5915   30.0033 O.2       1 UNK         0.0000 
     24 N24        -0.8956   51.6967   30.0817 N.am      1 UNK         0.0000 
     25 C25        -2.3940   51.3696   27.4440 C.3       1 UNK         0.0000 
     26 H26        -4.2017   50.7613   26.4162 H         1 UNK         0.0000 
     27 H27        -3.5696   52.2905   25.8671 H         1 UNK         0.0000 
     28 H28        -2.2451   49.5817   25.3464 H         1 UNK         0.0000 
     29 H29        -3.2330   50.4313   24.1872 H         1 UNK         0.0000 
     30 H30        -0.7159   50.7722   23.8792 H         1 UNK         0.0000 
     31 H31        -1.6505   52.2521   23.9957 H         1 UNK         0.0000 
     32 H32         2.7414   54.0825   27.1969 H         1 UNK         0.0000 
     33 H33         3.6945   55.4094   28.5875 H         1 UNK         0.0000 
     34 H34         4.8523   55.2848   29.9044 H         1 UNK         0.0000 
     35 H35         4.3962   55.3560   26.2514 H         1 UNK         0.0000 
     36 H36         6.0958   55.2700   25.7835 H         1 UNK         0.0000 
     37 H37         6.0791   52.9967   25.8293 H         1 UNK         0.0000 
     38 H38         4.3526   52.9760   26.1077 H         1 UNK         0.0000 
     39 H39         7.0642   53.9732   29.2749 H         1 UNK         0.0000 
     40 H40         7.5612   53.9231   27.5740 H         1 UNK         0.0000 
     41 H41        -1.2237   50.8601   29.6165 H         1 UNK         0.0000 
     42 H42        -1.0304   51.7788   31.0855 H         1 UNK         0.0000 
     43 H43        -2.8700   52.0318   28.1633 H         1 UNK         0.0000 
     44 H44        -2.3652   50.3953   27.9247 H         1 UNK         0.0000 
@<TRIPOS>BOND
     1    1   25 1    
     2    1    2 1    
     3    1   26 1    
     4    1   27 1    
     5    2    3 1    
     6    2   28 1    
     7    2   29 1    
     8    3    4 1    
     9    3   30 1    
    10    3   31 1    
    11    4    8 1    
    12    4    5 2    
    13    5    6 1    
    14    5   25 1    
    15    6    7 2    
    16    6   22 1    
    17    7    8 1    
    18    7    9 am   BACKBONE|DICT|INTERRES
    19    9   10 am   BACKBONE|DICT|INTERRES
    20    9   32 1    
    21   10   11 2    
    22   10   12 1    
    23   12   13 1    
    24   12   19 1    
    25   12   14 1    
    26   14   15 1    
    27   14   33 1    
    28   14   34 1    
    29   15   16 1    
    30   15   21 1    
    31   15   17 1    
    32   17   18 1    
    33   17   35 1    
    34   17   36 1    
    35   18   19 1    
    36   18   37 1    
    37   18   38 1    
    38   19   20 1    
    39   19   21 1    
    40   21   39 1    
    41   21   40 1    
    42   22   23 2    
    43   22   24 am   BACKBONE|DICT|INTERRES
    44   24   41 1    
    45   24   42 1    
    46   25   43 1    
    47   25   44 1    
@<TRIPOS>SUBSTRUCTURE
     1 UNK         1 GROUP             0       ****    0 ROOT    
