@<TRIPOS>MOLECULE
ZINC02143058_2876
66   69    1
SMALL
USER_CHARGES


@<TRIPOS>ATOM
      1 C1         -0.0709   53.7846   31.8529 C.3       1 UNK         0.0000 
      2 C2         -0.1741   52.6726   30.8040 C.3       1 UNK         0.0000 
      3 O3          0.7830   52.8153   29.7640 O.3       1 UNK         0.0000 
      4 C4          2.0726   52.4541   29.9347 C.2       1 UNK         0.0000 
      5 O5          2.5813   52.0969   31.0017 O.2       1 UNK         0.0000 
      6 C6          2.9102   52.4950   28.6393 C.3       1 UNK         0.0000 
      7 H7          3.1046   51.4647   28.3440 H         1 UNK         0.0000 
      8 C8          4.2837   53.1592   28.8517 C.3       1 UNK         0.0000 
      9 O9          2.2667   53.1790   27.5580 O.3       1 UNK         0.0000 
     10 C10         1.4015   52.4979   26.7202 C.ar      1 UNK         0.0000 
     11 C11         1.1045   53.1261   25.5164 C.ar      1 UNK         0.0000 
     12 C12         0.2650   52.5233   24.5886 C.ar      1 UNK         0.0000 
     13 C13        -0.2051   51.2229   24.7960 C.ar      1 UNK         0.0000 
     14 C14         0.0619   50.5990   26.0228 C.ar      1 UNK         0.0000 
     15 C15         0.8319   51.2451   26.9891 C.ar      1 UNK         0.0000 
     16 C16        -1.0482   50.5317   23.7048 C.3       1 UNK         0.0000 
     17 H17        -1.7999   51.2794   23.4431 H         1 UNK         0.0000 
     18 C18        -0.3174   50.1721   22.3654 C.2       1 UNK         0.0000 
     19 C19        -0.5096   48.9575   21.7695 C.2       1 UNK         0.0000 
     20 N20        -1.2939   48.0103   22.3544 N.pl3     1 UNK         0.0000 
     21 C21        -1.9482   48.1382   23.5380 C.2       1 UNK         0.0000 
     22 S22        -2.8338   46.8970   24.1773 S.2       1 UNK         0.0000 
     23 N23        -1.8257   49.3452   24.1632 N.pl3     1 UNK         0.0000 
     24 C24         0.0965   48.4966   20.4814 C.ar      1 UNK         0.0000 
     25 C25        -0.7187   47.9659   19.4696 C.ar      1 UNK         0.0000 
     26 C26        -0.1694   47.5526   18.2580 C.ar      1 UNK         0.0000 
     27 C27         1.2024   47.6692   18.0458 C.ar      1 UNK         0.0000 
     28 C28         2.0287   48.1832   19.0399 C.ar      1 UNK         0.0000 
     29 C29         1.4781   48.5833   20.2534 C.ar      1 UNK         0.0000 
     30 C30         0.4375   51.2178   21.7095 C.2       1 UNK         0.0000 
     31 O31        -0.0613   51.9301   20.8378 O.2       1 UNK         0.0000 
     32 N32         1.7121   51.2987   22.1363 N.am      1 UNK         0.0000 
     33 C33         2.6885   52.1503   21.6097 C.ar      1 UNK         0.0000 
     34 C34         3.3600   53.0136   22.4761 C.ar      1 UNK         0.0000 
     35 C35         4.3746   53.8325   21.9880 C.ar      1 UNK         0.0000 
     36 C36         4.7175   53.7838   20.6349 C.ar      1 UNK         0.0000 
     37 C37         4.0521   52.9103   19.7705 C.ar      1 UNK         0.0000 
     38 C38         3.0334   52.0961   20.2548 C.ar      1 UNK         0.0000 
     39 C39         5.8388   54.6582   20.1056 C.3       1 UNK         0.0000 
     40 H40        -0.8953   53.6975   32.5594 H         1 UNK         0.0000 
     41 H41        -0.0964   54.7756   31.3998 H         1 UNK         0.0000 
     42 H42         0.8424   53.6930   32.4339 H         1 UNK         0.0000 
     43 H43        -0.0918   51.6967   31.2815 H         1 UNK         0.0000 
     44 H44        -1.1565   52.6968   30.3349 H         1 UNK         0.0000 
     45 H45         4.8294   52.7018   29.6784 H         1 UNK         0.0000 
     46 H46         4.9062   53.0510   27.9620 H         1 UNK         0.0000 
     47 H47         4.1867   54.2253   29.0608 H         1 UNK         0.0000 
     48 H48         1.5171   54.1009   25.3051 H         1 UNK         0.0000 
     49 H49         0.0312   53.0564   23.6785 H         1 UNK         0.0000 
     50 H50        -0.3149   49.6100   26.2478 H         1 UNK         0.0000 
     51 H51         1.0120   50.7364   27.9223 H         1 UNK         0.0000 
     52 H52        -1.4185   47.1002   21.9342 H         1 UNK         0.0000 
     53 H53        -2.3682   49.4195   25.0127 H         1 UNK         0.0000 
     54 H54        -1.7883   47.8950   19.6109 H         1 UNK         0.0000 
     55 H55        -0.8068   47.1578   17.4791 H         1 UNK         0.0000 
     56 H56         1.6320   47.3692   17.1003 H         1 UNK         0.0000 
     57 H57         3.0932   48.2744   18.8658 H         1 UNK         0.0000 
     58 H58         2.1414   48.9620   21.0172 H         1 UNK         0.0000 
     59 H59         1.9374   50.8122   22.9902 H         1 UNK         0.0000 
     60 H60         3.1074   53.0464   23.5254 H         1 UNK         0.0000 
     61 H61         4.8938   54.4961   22.6638 H         1 UNK         0.0000 
     62 H62         4.3237   52.8509   18.7262 H         1 UNK         0.0000 
     63 H63         2.5292   51.4172   19.5828 H         1 UNK         0.0000 
     64 H64         6.5587   54.9026   20.8888 H         1 UNK         0.0000 
     65 H65         6.3936   54.1408   19.3212 H         1 UNK         0.0000 
     66 H66         5.4391   55.5855   19.6923 H         1 UNK         0.0000 
@<TRIPOS>BOND
     1    1    2 1    
     2    1   40 1    
     3    1   41 1    
     4    1   42 1    
     5    2    3 1    
     6    2   43 1    
     7    2   44 1    
     8    3    4 1    
     9    4    5 2    
    10    4    6 1    
    11    6    7 1    
    12    6    8 1    
    13    6    9 1    
    14    8   45 1    
    15    8   46 1    
    16    8   47 1    
    17    9   10 1    
    18   10   15 ar   
    19   10   11 ar   
    20   11   12 ar   
    21   11   48 1    
    22   12   13 ar   
    23   12   49 1    
    24   13   14 ar   
    25   13   16 1    
    26   14   15 ar   
    27   14   50 1    
    28   15   51 1    
    29   16   17 1    
    30   16   23 1    
    31   16   18 1    
    32   18   19 2    
    33   18   30 1    
    34   19   20 1    
    35   19   24 1    
    36   20   21 1    
    37   20   52 1    
    38   21   22 2    
    39   21   23 1    
    40   23   53 1    
    41   24   29 ar   
    42   24   25 ar   
    43   25   26 ar   
    44   25   54 1    
    45   26   27 ar   
    46   26   55 1    
    47   27   28 ar   
    48   27   56 1    
    49   28   29 ar   
    50   28   57 1    
    51   29   58 1    
    52   30   31 2    
    53   30   32 am   BACKBONE|DICT|INTERRES
    54   32   33 1    
    55   32   59 1    
    56   33   38 ar   
    57   33   34 ar   
    58   34   35 ar   
    59   34   60 1    
    60   35   36 ar   
    61   35   61 1    
    62   36   37 ar   
    63   36   39 1    
    64   37   38 ar   
    65   37   62 1    
    66   38   63 1    
    67   39   64 1    
    68   39   65 1    
    69   39   66 1    
@<TRIPOS>SUBSTRUCTURE
     1 UNK         1 GROUP             0       ****    0 ROOT    
