@<TRIPOS>MOLECULE
ZINC65601176_6219
58   59    1
SMALL
USER_CHARGES


@<TRIPOS>ATOM
      1 C1          4.2673   54.4415   26.2922 C.3       1 UNK         0.0000 
      2 C2          4.2515   54.2907   24.7813 C.ar      1 UNK         0.0000 
      3 C3          5.4482   54.0971   24.0922 C.ar      1 UNK         0.0000 
      4 C4          5.4357   53.8974   22.7153 C.ar      1 UNK         0.0000 
      5 C5          4.2331   53.9412   22.0018 C.ar      1 UNK         0.0000 
      6 C6          3.0436   54.1839   22.6952 C.ar      1 UNK         0.0000 
      7 C7          3.0468   54.3381   24.0802 C.ar      1 UNK         0.0000 
      8 C8          4.1891   53.7046   20.4789 C.3       1 UNK         0.0000 
      9 C9          3.6691   52.2796   20.1126 C.3       1 UNK         0.0000 
     10 N10         2.2915   52.0356   20.5563 N.am      1 UNK         0.0000 
     11 C11         1.9145   51.1537   21.5022 C.2       1 UNK         0.0000 
     12 O12         2.7047   50.4006   22.0818 O.2       1 UNK         0.0000 
     13 C13         0.4501   51.1798   21.7944 C.2       1 UNK         0.0000 
     14 O14        -0.3484   51.8827   21.1604 O.2       1 UNK         0.0000 
     15 N15         0.1228   50.3675   22.8257 N.am      1 UNK         0.0000 
     16 C16        -1.1470   50.0691   23.3627 C.ar      1 UNK         0.0000 
     17 C17        -2.3238   50.1638   22.5982 C.ar      1 UNK         0.0000 
     18 C18        -3.5592   49.8325   23.1519 C.ar      1 UNK         0.0000 
     19 C19        -3.6360   49.3954   24.4718 C.ar      1 UNK         0.0000 
     20 C20        -2.4774   49.2897   25.2393 C.ar      1 UNK         0.0000 
     21 C21        -1.2284   49.6214   24.6986 C.ar      1 UNK         0.0000 
     22 C22        -0.0084   49.5427   25.6212 C.3       1 UNK         0.0000 
     23 C23         0.1976   50.8646   26.3631 C.2       1 UNK         0.0000 
     24 O24         0.7049   51.8270   25.7893 O.2       1 UNK         0.0000 
     25 N25        -0.2185   50.8968   27.6371 N.am      1 UNK         0.0000 
     26 C26        -0.1135   52.0561   28.5073 C.3       1 UNK         0.0000 
     27 N27         5.5037   54.0733   19.7203 N.4       1 UNK         0.0000 
     28 C28         5.6031   53.5926   18.2499 C.3       1 UNK         0.0000 
     29 C29         5.8020   55.5914   19.7802 C.3       1 UNK         0.0000 
     30 H30         3.3627   54.9285   26.6556 H         1 UNK         0.0000 
     31 H31         4.3603   53.4608   26.7634 H         1 UNK         0.0000 
     32 H32         5.1161   55.0513   26.6041 H         1 UNK         0.0000 
     33 H33         6.3850   54.0572   24.6284 H         1 UNK         0.0000 
     34 H34         6.3698   53.7050   22.2183 H         1 UNK         0.0000 
     35 H35         2.1035   54.2298   22.1666 H         1 UNK         0.0000 
     36 H36         2.1133   54.4888   24.6029 H         1 UNK         0.0000 
     37 H37         3.5045   54.4375   20.0518 H         1 UNK         0.0000 
     38 H38         4.3609   51.5284   20.5003 H         1 UNK         0.0000 
     39 H39         3.6432   52.1143   19.0377 H         1 UNK         0.0000 
     40 H40         1.5654   52.5987   20.1308 H         1 UNK         0.0000 
     41 H41         0.9053   49.9347   23.2989 H         1 UNK         0.0000 
     42 H42        -2.3042   50.4762   21.5640 H         1 UNK         0.0000 
     43 H43        -4.4575   49.9102   22.5588 H         1 UNK         0.0000 
     44 H44        -4.5926   49.1430   24.9062 H         1 UNK         0.0000 
     45 H45        -2.5518   48.9592   26.2670 H         1 UNK         0.0000 
     46 H46         0.8953   49.2704   25.0735 H         1 UNK         0.0000 
     47 H47        -0.1437   48.7222   26.3288 H         1 UNK         0.0000 
     48 H48        -0.6557   50.0570   28.0153 H         1 UNK         0.0000 
     49 H49        -0.6487   51.8724   29.4417 H         1 UNK         0.0000 
     50 H50        -0.5407   52.9430   28.0346 H         1 UNK         0.0000 
     51 H51         0.9310   52.2639   28.7466 H         1 UNK         0.0000 
     52 H52         4.7214   53.9529   17.7136 H         1 UNK         0.0000 
     53 H53         6.5234   53.9897   17.8213 H         1 UNK         0.0000 
     54 H54         5.6581   52.5027   18.2534 H         1 UNK         0.0000 
     55 H55         5.0504   56.1091   19.1797 H         1 UNK         0.0000 
     56 H56         5.7634   55.9145   20.8221 H         1 UNK         0.0000 
     57 H57         6.8037   55.7483   19.3749 H         1 UNK         0.0000 
     58 H58         6.2494   53.6106   20.2250 H         1 UNK         0.0000 
@<TRIPOS>BOND
     1    1    2 1    
     2    1   30 1    
     3    1   31 1    
     4    1   32 1    
     5    2    7 ar   
     6    2    3 ar   
     7    3    4 ar   
     8    3   33 1    
     9    4    5 ar   
    10    4   34 1    
    11    5    6 ar   
    12    5    8 1    
    13    6    7 ar   
    14    6   35 1    
    15    7   36 1    
    16    8    9 1    
    17    8   27 1    
    18    8   37 1    
    19    9   10 1    
    20    9   38 1    
    21    9   39 1    
    22   10   11 am   BACKBONE|DICT|INTERRES
    23   10   40 1    
    24   11   12 2    
    25   11   13 1    
    26   13   14 2    
    27   13   15 am   BACKBONE|DICT|INTERRES
    28   15   16 1    
    29   15   41 1    
    30   16   21 ar   
    31   16   17 ar   
    32   17   18 ar   
    33   17   42 1    
    34   18   19 ar   
    35   18   43 1    
    36   19   20 ar   
    37   19   44 1    
    38   20   21 ar   
    39   20   45 1    
    40   21   22 1    
    41   22   23 1    
    42   22   46 1    
    43   22   47 1    
    44   23   24 2    
    45   23   25 am   BACKBONE|DICT|INTERRES
    46   25   26 1    
    47   25   48 1    
    48   26   49 1    
    49   26   50 1    
    50   26   51 1    
    51   27   28 1    
    52   27   29 1    
    53   27   58 1    
    54   28   52 1    
    55   28   53 1    
    56   28   54 1    
    57   29   55 1    
    58   29   56 1    
    59   29   57 1    
@<TRIPOS>SUBSTRUCTURE
     1 UNK         1 GROUP             0       ****    0 ROOT    
