ZINC13075835_1025
                    3D
 Schrodinger Suite 2024-2.
 63 66  0  0  1  0            999 V2000
    1.5475   53.2967   26.4801 C   0  0  0  0  0  0
    1.0331   52.4541   25.5018 C   0  0  0  0  0  0
    0.3048   51.3269   25.8776 C   0  0  0  0  0  0
    0.0892   51.0431   27.2226 C   0  0  0  0  0  0
    0.6072   51.8856   28.2032 C   0  0  0  0  0  0
    1.3548   53.0147   27.8415 C   0  0  0  0  0  0
    1.8625   53.9984   28.9137 C   0  0  0  0  0  0
    1.5484   55.5131   28.7434 C   0  0  0  0  0  0
    1.2192   55.6431   30.2303 C   0  0  0  0  0  0
    1.0706   54.1231   30.2512 C   0  0  0  0  0  0
    3.3755   53.6585   29.0282 C   0  0  0  0  0  0
    3.8410   53.0873   30.0171 O   0  0  0  0  0  0
    4.0932   54.1201   27.9710 O   0  0  0  0  0  0
    5.5072   53.9416   27.8724 C   0  0  0  0  0  0
    5.9934   54.3788   26.4774 C   0  0  0  0  0  0
    7.1032   54.8967   26.3795 O   0  0  0  0  0  0
    5.1785   54.1129   25.4298 N   0  0  0  0  0  0
    5.3591   54.3476   24.0509 C   0  0  0  0  0  0
    4.2485   54.0947   23.2400 C   0  0  0  0  0  0
    4.3192   54.2791   21.8613 C   0  0  0  0  0  0
    5.5054   54.7296   21.2744 C   0  0  0  0  0  0
    6.6209   54.9802   22.0777 C   0  0  0  0  0  0
    6.5520   54.7889   23.4580 C   0  0  0  0  0  0
    5.6044   54.9488   19.4817 S   0  0  0  0  0  0
    6.6622   54.0203   19.0829 O   0  0  0  0  0  0
    4.2751   54.5853   18.9836 O   0  0  0  0  0  0
    5.9462   56.6800   19.4577 N   0  0  0  0  0  0
    7.0634   57.1400   19.0635 C   0  0  0  0  0  0
    8.4057   56.4384   18.8024 C   0  0  0  0  0  0
    8.8010   56.3148   17.3161 C   0  0  0  0  0  0
    9.4322   57.5803   16.7145 C   0  0  0  0  0  0
    8.5905   58.8700   16.7949 C   0  0  0  0  0  0
    8.1734   59.3038   18.2146 C   0  0  0  0  0  0
    7.1049   58.4971   18.7991 N   0  0  0  0  0  0
   -0.3134   50.2664   24.6641 Cl  0  0  0  0  0  0
    2.0943   54.1770   26.1829 H   0  0  0  0  0  0
    1.1943   52.6693   24.4579 H   0  0  0  0  0  0
   -0.4809   50.1657   27.5057 H   0  0  0  0  0  0
    0.4257   51.6484   29.2411 H   0  0  0  0  0  0
    2.3713   56.1426   28.4068 H   0  0  0  0  0  0
    0.7023   55.6964   28.0812 H   0  0  0  0  0  0
    2.0495   56.0218   30.8252 H   0  0  0  0  0  0
    0.3181   56.2051   30.4816 H   0  0  0  0  0  0
    0.0306   53.8012   30.1706 H   0  0  0  0  0  0
    1.5017   53.6210   31.1185 H   0  0  0  0  0  0
    6.0300   54.5116   28.6449 H   0  0  0  0  0  0
    5.7630   52.8882   28.0083 H   0  0  0  0  0  0
    4.3000   53.6817   25.6739 H   0  0  0  0  0  0
    3.3190   53.7480   23.6691 H   0  0  0  0  0  0
    3.4480   54.0756   21.2515 H   0  0  0  0  0  0
    7.5490   55.3075   21.6342 H   0  0  0  0  0  0
    7.4427   54.9807   24.0341 H   0  0  0  0  0  0
    9.2015   56.9449   19.3498 H   0  0  0  0  0  0
    8.4357   55.4570   19.2622 H   0  0  0  0  0  0
    9.5097   55.4911   17.2153 H   0  0  0  0  0  0
    7.9348   56.0109   16.7229 H   0  0  0  0  0  0
    9.6754   57.3857   15.6699 H   0  0  0  0  0  0
   10.3912   57.7579   17.2033 H   0  0  0  0  0  0
    7.7020   58.7765   16.1707 H   0  0  0  0  0  0
    9.1687   59.6790   16.3482 H   0  0  0  0  0  0
    7.9068   60.3595   18.2257 H   0  0  0  0  0  0
    9.0348   59.2232   18.8793 H   0  0  0  0  0  0
    6.2123   58.9720   18.8136 H   0  0  0  0  0  0
  1  6  2  0  0  0
  1  2  1  0  0  0
  1 36  1  0  0  0
  2  3  2  0  0  0
  2 37  1  0  0  0
  3  4  1  0  0  0
  3 35  1  0  0  0
  4  5  2  0  0  0
  4 38  1  0  0  0
  5  6  1  0  0  0
  5 39  1  0  0  0
  6  7  1  0  0  0
  7 10  1  0  0  0
  7  8  1  0  0  0
  7 11  1  0  0  0
  8  9  1  0  0  0
  8 40  1  0  0  0
  8 41  1  0  0  0
  9 10  1  0  0  0
  9 42  1  0  0  0
  9 43  1  0  0  0
 10 44  1  0  0  0
 10 45  1  0  0  0
 11 12  2  0  0  0
 11 13  1  0  0  0
 13 14  1  0  0  0
 14 15  1  0  0  0
 14 46  1  0  0  0
 14 47  1  0  0  0
 15 16  2  0  0  0
 15 17  1  0  0  0
 17 18  1  0  0  0
 17 48  1  0  0  0
 18 23  2  0  0  0
 18 19  1  0  0  0
 19 20  2  0  0  0
 19 49  1  0  0  0
 20 21  1  0  0  0
 20 50  1  0  0  0
 21 22  2  0  0  0
 21 24  1  0  0  0
 22 23  1  0  0  0
 22 51  1  0  0  0
 23 52  1  0  0  0
 24 25  2  0  0  0
 24 26  2  0  0  0
 24 27  1  0  0  0
 27 28  2  0  0  0
 28 34  1  0  0  0
 28 29  1  0  0  0
 29 30  1  0  0  0
 29 53  1  0  0  0
 29 54  1  0  0  0
 30 31  1  0  0  0
 30 55  1  0  0  0
 30 56  1  0  0  0
 31 32  1  0  0  0
 31 57  1  0  0  0
 31 58  1  0  0  0
 32 33  1  0  0  0
 32 59  1  0  0  0
 32 60  1  0  0  0
 33 34  1  0  0  0
 33 61  1  0  0  0
 33 62  1  0  0  0
 34 63  1  0  0  0
M  END
> <i_i_glide_confnum>
391

> <i_i_glide_lignum>
1026

> <i_i_glide_posenum>
294

> <i_i_glide_rotatable_bonds>
9

> <i_m_Source_File_Index>
1495

> <b_m_subgroup_collapsed>
0

> <r_i_docking_score>
-6.57301

> <r_i_glide_ecoul>
-6.31351

> <r_i_glide_eff_state_penalty>
0

> <r_i_glide_einternal>
9.4861

> <r_i_glide_emodel>
-75.2943

> <r_i_glide_energy>
-57.1499

> <r_i_glide_erotb>
0.688733

> <r_i_glide_esite>
-0.0966871

> <r_i_glide_evdw>
-50.8364

> <r_i_glide_gscore>
-6.57301

> <r_i_glide_hbond>
-0.351283

> <r_i_glide_ligand_efficiency>
-0.1878

> <r_i_glide_ligand_efficiency_ln>
-1.44292

> <r_i_glide_ligand_efficiency_sa>
-0.614307

> <r_i_glide_lipo>
-3.21757

> <r_i_glide_metal>
0

> <r_i_glide_rewards>
-0.107354

> <s_i_glide_gridfile>
wee1_glide-grid

> <s_m_Source_File>
wee1_decoys_glide_SP.sdf

> <s_m_Source_Path>
/Users/zhangxujun/Desktop

> <s_m_entry_id>
1770

> <s_m_entry_name>
wee1_decoys_glide_SP.1495

> <s_m_subgroup_title>
wee1_decoys_glide_SP

> <s_m_subgroupid>
wee1_decoys_glide_SP


$$$$
