@<TRIPOS>MOLECULE
ZINC21625779_3971
67   70    1
SMALL
USER_CHARGES


@<TRIPOS>ATOM
      1 C1          2.5957   52.9692   28.4389 C.3       1 UNK         0.0000 
      2 C2          1.2923   52.4265   27.8849 C.ar      1 UNK         0.0000 
      3 C3          0.2972   51.9726   28.7475 C.ar      1 UNK         0.0000 
      4 C4         -0.8824   51.4486   28.2280 C.ar      1 UNK         0.0000 
      5 C5         -1.1051   51.4011   26.8420 C.ar      1 UNK         0.0000 
      6 C6         -0.0839   51.8458   25.9875 C.ar      1 UNK         0.0000 
      7 C7          1.1024   52.3544   26.5050 C.ar      1 UNK         0.0000 
      8 C8         -2.4063   50.7627   26.2917 C.3       1 UNK         0.0000 
      9 C9         -2.8031   51.1564   24.8683 C.2       1 UNK         0.0000 
     10 O10        -3.2230   52.2624   24.5182 O.2       1 UNK         0.0000 
     11 N11        -2.6915   50.0381   24.1173 N.am      1 UNK         0.0000 
     12 C12        -2.2480   48.9544   24.8148 C.2       1 UNK         0.0000 
     13 O13        -1.7821   47.9082   24.3661 O.2       1 UNK         0.0000 
     14 N14        -2.1695   49.3649   26.0807 N.am      1 UNK         0.0000 
     15 C15        -3.2613   49.9651   22.7476 C.3       1 UNK         0.0000 
     16 C16        -2.1910   49.5272   21.7183 C.2       1 UNK         0.0000 
     17 O17        -2.3954   48.4529   21.1541 O.2       1 UNK         0.0000 
     18 N18        -1.0870   50.2989   21.4968 N.am      1 UNK         0.0000 
     19 C19        -1.1042   51.7201   21.8977 C.3       1 UNK         0.0000 
     20 C20         0.2612   49.7281   21.1660 C.3       1 UNK         0.0000 
     21 H21         0.6547   49.4227   22.1380 H         1 UNK         0.0000 
     22 C22         0.3052   48.4182   20.3309 C.3       1 UNK         0.0000 
     23 C23         1.2926   50.7453   20.6489 C.ar      1 UNK         0.0000 
     24 C24         1.6266   50.8500   19.2921 C.ar      1 UNK         0.0000 
     25 C25         2.6409   51.7134   18.8808 C.ar      1 UNK         0.0000 
     26 C26         3.3247   52.4919   19.8147 C.ar      1 UNK         0.0000 
     27 C27         2.9899   52.4136   21.1675 C.ar      1 UNK         0.0000 
     28 C28         1.9929   51.5201   21.5792 C.ar      1 UNK         0.0000 
     29 N29         3.7365   53.1718   22.0794 N.am      1 UNK         0.0000 
     30 C30         3.3041   53.6980   23.2461 C.2       1 UNK         0.0000 
     31 O31         2.1118   53.7941   23.5444 O.2       1 UNK         0.0000 
     32 C32         4.3793   54.1337   24.2233 C.ar      1 UNK         0.0000 
     33 C33         4.0202   54.4996   25.5296 C.ar      1 UNK         0.0000 
     34 C34         4.9903   54.8352   26.4696 C.ar      1 UNK         0.0000 
     35 C35         6.3310   54.8368   26.1074 C.ar      1 UNK         0.0000 
     36 C36         6.7065   54.4987   24.8116 C.ar      1 UNK         0.0000 
     37 C37         5.7422   54.1482   23.8733 C.ar      1 UNK         0.0000 
     38 C38        -3.6461   50.9462   27.2141 C.3       1 UNK         0.0000 
     39 H39         3.4419   52.5193   27.9202 H         1 UNK         0.0000 
     40 H40         2.7156   52.7532   29.5002 H         1 UNK         0.0000 
     41 H41         2.6482   54.0471   28.2892 H         1 UNK         0.0000 
     42 H42         0.4343   52.0013   29.8179 H         1 UNK         0.0000 
     43 H43        -1.6108   51.0720   28.9271 H         1 UNK         0.0000 
     44 H44        -0.1855   51.7791   24.9154 H         1 UNK         0.0000 
     45 H45         1.8813   52.6612   25.8271 H         1 UNK         0.0000 
     46 H46        -2.1216   48.7291   26.8753 H         1 UNK         0.0000 
     47 H47        -4.0674   49.2276   22.7431 H         1 UNK         0.0000 
     48 H48        -3.7251   50.9018   22.4341 H         1 UNK         0.0000 
     49 H49        -0.5152   51.8815   22.7982 H         1 UNK         0.0000 
     50 H50        -0.6785   52.3367   21.1053 H         1 UNK         0.0000 
     51 H51        -2.1005   52.1199   22.0772 H         1 UNK         0.0000 
     52 H52         1.3325   48.1282   20.1097 H         1 UNK         0.0000 
     53 H53        -0.1301   47.5767   20.8673 H         1 UNK         0.0000 
     54 H54        -0.2255   48.5258   19.3837 H         1 UNK         0.0000 
     55 H55         1.1252   50.2499   18.5471 H         1 UNK         0.0000 
     56 H56         2.9115   51.7656   17.8355 H         1 UNK         0.0000 
     57 H57         4.1140   53.1508   19.4789 H         1 UNK         0.0000 
     58 H58         1.7682   51.4107   22.6291 H         1 UNK         0.0000 
     59 H59         4.7078   53.2951   21.8435 H         1 UNK         0.0000 
     60 H60         2.9849   54.5160   25.8364 H         1 UNK         0.0000 
     61 H61         4.7031   55.1043   27.4744 H         1 UNK         0.0000 
     62 H62         7.0815   55.0954   26.8407 H         1 UNK         0.0000 
     63 H63         7.7486   54.4959   24.5307 H         1 UNK         0.0000 
     64 H64         6.0813   53.8815   22.8842 H         1 UNK         0.0000 
     65 H65        -3.8169   51.9979   27.4522 H         1 UNK         0.0000 
     66 H66        -4.5649   50.5658   26.7627 H         1 UNK         0.0000 
     67 H67        -3.5326   50.4076   28.1576 H         1 UNK         0.0000 
@<TRIPOS>BOND
     1    1    2 1    
     2    1   39 1    
     3    1   40 1    
     4    1   41 1    
     5    2    7 ar   
     6    2    3 ar   
     7    3    4 ar   
     8    3   42 1    
     9    4    5 ar   
    10    4   43 1    
    11    5    6 ar   
    12    5    8 1    
    13    6    7 ar   
    14    6   44 1    
    15    7   45 1    
    16    8   14 1    
    17    8    9 1    
    18    8   38 1    
    19    9   10 2    
    20    9   11 am   BACKBONE|DICT|INTERRES
    21   11   12 am   BACKBONE|DICT|INTERRES
    22   11   15 1    
    23   12   13 2    
    24   12   14 am   BACKBONE|DICT|INTERRES
    25   14   46 1    
    26   15   16 1    
    27   15   47 1    
    28   15   48 1    
    29   16   17 2    
    30   16   18 am   BACKBONE|DICT|INTERRES
    31   18   19 1    
    32   18   20 1    
    33   19   49 1    
    34   19   50 1    
    35   19   51 1    
    36   20   21 1    
    37   20   22 1    
    38   20   23 1    
    39   22   52 1    
    40   22   53 1    
    41   22   54 1    
    42   23   28 ar   
    43   23   24 ar   
    44   24   25 ar   
    45   24   55 1    
    46   25   26 ar   
    47   25   56 1    
    48   26   27 ar   
    49   26   57 1    
    50   27   28 ar   
    51   27   29 1    
    52   28   58 1    
    53   29   30 am   BACKBONE|DICT|INTERRES
    54   29   59 1    
    55   30   31 2    
    56   30   32 1    
    57   32   37 ar   
    58   32   33 ar   
    59   33   34 ar   
    60   33   60 1    
    61   34   35 ar   
    62   34   61 1    
    63   35   36 ar   
    64   35   62 1    
    65   36   37 ar   
    66   36   63 1    
    67   37   64 1    
    68   38   65 1    
    69   38   66 1    
    70   38   67 1    
@<TRIPOS>SUBSTRUCTURE
     1 UNK         1 GROUP             0       ****    0 ROOT    
