@<TRIPOS>MOLECULE
ZINC39426537_2558
33   34    1
SMALL
USER_CHARGES


@<TRIPOS>ATOM
      1 C1          4.1052   52.6194   29.5440 C.3       1 UNK         0.0000 
      2 C2          4.1228   54.1126   29.1388 C.3       1 UNK         0.0000 
      3 H3          4.7698   54.6008   29.8695 H         1 UNK         0.0000 
      4 C4          4.7997   54.3348   27.7748 C.2       1 UNK         0.0000 
      5 O5          5.8873   54.9013   27.7373 O.2       1 UNK         0.0000 
      6 N6          4.1278   53.9063   26.6908 N.am      1 UNK         0.0000 
      7 C7          4.4235   54.0861   25.3234 C.ar      1 UNK         0.0000 
      8 C8          3.3176   54.0969   24.4650 C.ar      1 UNK         0.0000 
      9 C9          3.4858   54.0991   23.0804 C.ar      1 UNK         0.0000 
     10 C10         4.7734   54.1091   22.5193 C.ar      1 UNK         0.0000 
     11 C11         5.8822   54.1123   23.3791 C.ar      1 UNK         0.0000 
     12 C12         5.7177   54.0951   24.7645 C.ar      1 UNK         0.0000 
     13 F13         6.8345   53.9895   25.5217 F         1 UNK         0.0000 
     14 F14         7.1394   54.0888   22.8797 F         1 UNK         0.0000 
     15 C15         4.9914   54.0886   21.0018 C.3       1 UNK         0.0000 
     16 F16         3.9148   54.4497   20.3085 F         1 UNK         0.0000 
     17 F17         5.3260   52.8519   20.6373 F         1 UNK         0.0000 
     18 F18         5.9786   54.9160   20.6552 F         1 UNK         0.0000 
     19 F19         2.3814   54.0707   22.3004 F         1 UNK         0.0000 
     20 F20         2.0616   54.0628   24.9737 F         1 UNK         0.0000 
     21 S21         2.5580   55.0606   29.2816 S.3       1 UNK         0.0000 
     22 C22         1.3537   53.7826   29.1814 C.2       1 UNK         0.0000 
     23 N23         1.0636   53.0934   28.1019 N.2       1 UNK         0.0000 
     24 N24         0.0853   52.1306   28.3251 N.2       1 UNK         0.0000 
     25 C25        -0.3434   52.1335   29.5632 C.2       1 UNK         0.0000 
     26 S26         0.4179   53.3213   30.5730 S.3       1 UNK         0.0000 
     27 N27        -1.2922   51.2988   30.0816 N.pl3     1 UNK         0.0000 
     28 H28         5.1040   52.1838   29.5179 H         1 UNK         0.0000 
     29 H29         3.7285   52.4988   30.5604 H         1 UNK         0.0000 
     30 H30         3.4795   52.0175   28.8831 H         1 UNK         0.0000 
     31 H31         3.2431   53.4517   26.8727 H         1 UNK         0.0000 
     32 H32        -1.6957   50.5464   29.5401 H         1 UNK         0.0000 
     33 H33        -1.4789   51.2766   31.0818 H         1 UNK         0.0000 
@<TRIPOS>BOND
     1    1    2 1    
     2    1   28 1    
     3    1   29 1    
     4    1   30 1    
     5    2    3 1    
     6    2    4 1    
     7    2   21 1    
     8    4    5 2    
     9    4    6 am   BACKBONE|DICT|INTERRES
    10    6    7 1    
    11    6   31 1    
    12    7   12 ar   
    13    7    8 ar   
    14    8    9 ar   
    15    8   20 1    
    16    9   10 ar   
    17    9   19 1    
    18   10   11 ar   
    19   10   15 1    
    20   11   12 ar   
    21   11   14 1    
    22   12   13 1    
    23   15   16 1    
    24   15   17 1    
    25   15   18 1    
    26   21   22 1    
    27   22   26 1    
    28   22   23 2    
    29   23   24 1    
    30   24   25 2    
    31   25   26 1    
    32   25   27 1    
    33   27   32 1    
    34   27   33 1    
@<TRIPOS>SUBSTRUCTURE
     1 UNK         1 GROUP             0       ****    0 ROOT    
