@<TRIPOS>MOLECULE
ZINC35692948_4628
67   71    1
SMALL
USER_CHARGES


@<TRIPOS>ATOM
      1 C1         -2.6978   49.8711   21.7425 C.3       1 UNK         0.0000 
      2 C2         -3.4148   50.4158   22.9878 C.3       1 UNK         0.0000 
      3 O3         -2.4906   50.9116   23.9495 O.3       1 UNK         0.0000 
      4 C4         -1.8995   52.1244   23.8185 C.2       1 UNK         0.0000 
      5 O5         -2.0971   52.8966   22.8818 O.2       1 UNK         0.0000 
      6 C6         -0.9287   52.4116   24.8828 C.2       1 UNK         0.0000 
      7 C7         -1.1995   52.2440   26.2183 C.2       1 UNK         0.0000 
      8 N8         -0.2564   52.4895   27.1809 N.2       1 UNK         0.0000 
      9 C9          0.9168   52.8724   26.8450 C.2       1 UNK         0.0000 
     10 N10         1.4103   53.0743   25.5534 N.pl3     1 UNK         0.0000 
     11 C11         0.4964   52.8150   24.3929 C.3       1 UNK         0.0000 
     12 H12         0.3868   53.7918   23.9188 H         1 UNK         0.0000 
     13 C13         1.0814   51.8649   23.3232 C.ar      1 UNK         0.0000 
     14 C14         1.4204   52.4108   22.0759 C.ar      1 UNK         0.0000 
     15 C15         1.9520   51.6197   21.0617 C.ar      1 UNK         0.0000 
     16 C16         2.1438   50.2590   21.2735 C.ar      1 UNK         0.0000 
     17 C17         1.7715   49.6938   22.4900 C.ar      1 UNK         0.0000 
     18 C18         1.2213   50.4708   23.5123 C.ar      1 UNK         0.0000 
     19 C19         0.7522   49.7593   24.7801 C.3       1 UNK         0.0000 
     20 C20         2.6795   53.6623   25.4969 C.2       1 UNK         0.0000 
     21 C21         3.1938   53.8492   26.7284 C.2       1 UNK         0.0000 
     22 S22         2.1503   53.3149   28.0347 S.3       1 UNK         0.0000 
     23 C23         3.4170   53.9741   24.2699 C.2       1 UNK         0.0000 
     24 C24         4.7561   54.0963   24.1060 C.2       1 UNK         0.0000 
     25 O25         5.7125   54.0970   24.9642 O.co2     1 UNK         0.0000 
     26 N26         5.3655   54.2147   22.8829 N.pl3     1 UNK         0.0000 
     27 C27         4.7586   54.5684   21.6064 C.3       1 UNK         0.0000 
     28 C28         5.6570   54.3018   20.3876 C.3       1 UNK         0.0000 
     29 H29         6.7015   54.5007   20.6362 H         1 UNK         0.0000 
     30 C30         5.4056   52.9938   19.6440 C.3       1 UNK         0.0000 
     31 C31         5.8007   53.2962   18.2137 C.3       1 UNK         0.0000 
     32 C32         5.7242   54.8188   18.1113 C.3       1 UNK         0.0000 
     33 O33         5.2940   55.2609   19.3971 O.3       1 UNK         0.0000 
     34 C34        -2.5398   51.9016   26.8004 C.ar      1 UNK         0.0000 
     35 C35        -3.7247   52.4973   26.3354 C.ar      1 UNK         0.0000 
     36 C36        -4.9629   52.1338   26.8600 C.ar      1 UNK         0.0000 
     37 C37        -5.0311   51.1888   27.8786 C.ar      1 UNK         0.0000 
     38 C38        -3.8699   50.6055   28.3737 C.ar      1 UNK         0.0000 
     39 C39        -2.6386   50.9613   27.8326 C.ar      1 UNK         0.0000 
     40 H40        -3.4103   49.4277   21.0469 H         1 UNK         0.0000 
     41 H41        -2.1620   50.6588   21.2136 H         1 UNK         0.0000 
     42 H42        -1.9718   49.1029   22.0117 H         1 UNK         0.0000 
     43 H43        -3.9800   49.6088   23.4551 H         1 UNK         0.0000 
     44 H44        -4.1412   51.1842   22.7207 H         1 UNK         0.0000 
     45 H45         1.2773   53.4641   21.8802 H         1 UNK         0.0000 
     46 H46         2.2067   52.0606   20.1093 H         1 UNK         0.0000 
     47 H47         2.5663   49.6444   20.4933 H         1 UNK         0.0000 
     48 H48         1.9041   48.6313   22.6266 H         1 UNK         0.0000 
     49 H49         1.1044   48.7318   24.8421 H         1 UNK         0.0000 
     50 H50         1.0953   50.2711   25.6750 H         1 UNK         0.0000 
     51 H51        -0.3340   49.7170   24.8220 H         1 UNK         0.0000 
     52 H52         4.1640   54.2634   26.9563 H         1 UNK         0.0000 
     53 H53         2.8156   54.0921   23.3898 H         1 UNK         0.0000 
     54 H54         6.3391   54.4714   22.9436 H         1 UNK         0.0000 
     55 H55         4.5822   55.6302   21.6696 H         1 UNK         0.0000 
     56 H56         3.7876   54.0930   21.4725 H         1 UNK         0.0000 
     57 H57         4.3476   52.7402   19.6925 H         1 UNK         0.0000 
     58 H58         5.9053   52.1346   20.0884 H         1 UNK         0.0000 
     59 H59         5.1337   52.8023   17.5051 H         1 UNK         0.0000 
     60 H60         6.8152   52.9462   18.0122 H         1 UNK         0.0000 
     61 H61         5.0173   55.1436   17.3471 H         1 UNK         0.0000 
     62 H62         6.6976   55.2508   17.8789 H         1 UNK         0.0000 
     63 H63        -3.6914   53.2484   25.5612 H         1 UNK         0.0000 
     64 H64        -5.8656   52.5914   26.4833 H         1 UNK         0.0000 
     65 H65        -5.9901   50.9078   28.2893 H         1 UNK         0.0000 
     66 H66        -3.9107   49.8701   29.1636 H         1 UNK         0.0000 
     67 H67        -1.7426   50.4971   28.2177 H         1 UNK         0.0000 
@<TRIPOS>BOND
     1    1    2 1    
     2    1   40 1    
     3    1   41 1    
     4    1   42 1    
     5    2    3 1    
     6    2   43 1    
     7    2   44 1    
     8    3    4 1    
     9    4    5 2    
    10    4    6 1    
    11    6   11 1    
    12    6    7 2    
    13    7    8 1    
    14    7   34 1    
    15    8    9 2    
    16    9   22 1    
    17    9   10 1    
    18   10   11 1    
    19   10   20 1    
    20   11   12 1    
    21   11   13 1    
    22   13   18 ar   
    23   13   14 ar   
    24   14   15 ar   
    25   14   45 1    
    26   15   16 ar   
    27   15   46 1    
    28   16   17 ar   
    29   16   47 1    
    30   17   18 ar   
    31   17   48 1    
    32   18   19 1    
    33   19   49 1    
    34   19   50 1    
    35   19   51 1    
    36   20   21 2    
    37   20   23 1    
    38   21   22 1    
    39   21   52 1    
    40   23   24 2    
    41   23   53 1    
    42   24   25 1    
    43   24   26 1    
    44   26   27 1    
    45   26   54 1    
    46   27   28 1    
    47   27   55 1    
    48   27   56 1    
    49   28   29 1    
    50   28   33 1    
    51   28   30 1    
    52   30   31 1    
    53   30   57 1    
    54   30   58 1    
    55   31   32 1    
    56   31   59 1    
    57   31   60 1    
    58   32   33 1    
    59   32   61 1    
    60   32   62 1    
    61   34   39 ar   
    62   34   35 ar   
    63   35   36 ar   
    64   35   63 1    
    65   36   37 ar   
    66   36   64 1    
    67   37   38 ar   
    68   37   65 1    
    69   38   39 ar   
    70   38   66 1    
    71   39   67 1    
@<TRIPOS>SUBSTRUCTURE
     1 UNK         1 GROUP             0       ****    0 ROOT    
