@<TRIPOS>MOLECULE
ZINC02242418_5982
60   64    1
SMALL
USER_CHARGES


@<TRIPOS>ATOM
      1 C1         -7.7366   52.3381   31.7108 C.3       1 UNK         0.0000 
      2 C2         -8.4602   51.3964   30.7243 C.3       1 UNK         0.0000 
      3 C3         -8.1335   51.5702   29.2174 C.3       1 UNK         0.0000 
      4 C4         -6.6198   51.2905   28.9326 C.3       1 UNK         0.0000 
      5 C5         -6.1468   52.0096   27.6690 C.2       1 UNK         0.0000 
      6 C6         -6.9178   52.9877   27.0571 C.2       1 UNK         0.0000 
      7 S7         -6.1916   53.6969   25.6350 S.3       1 UNK         0.0000 
      8 C8         -4.7443   52.7533   25.9060 C.ar      1 UNK         0.0000 
      9 C9         -4.8758   51.8662   27.0195 C.ar      1 UNK         0.0000 
     10 C10        -3.7372   51.0662   27.2782 C.ar      1 UNK         0.0000 
     11 N11        -2.6010   51.2142   26.5578 N.ar      1 UNK         0.0000 
     12 C12        -2.5957   52.1375   25.5648 C.ar      1 UNK         0.0000 
     13 N13        -3.6431   52.8973   25.1606 N.ar      1 UNK         0.0000 
     14 S14        -1.0305   52.4967   24.8299 S.3       1 UNK         0.0000 
     15 C15         0.1078   52.3596   26.2509 C.3       1 UNK         0.0000 
     16 C16         1.5401   52.8966   26.0421 C.2       1 UNK         0.0000 
     17 O17         1.9821   52.8750   24.8911 O.2       1 UNK         0.0000 
     18 N18         2.2787   53.3279   27.1254 N.am      1 UNK         0.0000 
     19 C19         3.6484   53.7301   27.0153 C.ar      1 UNK         0.0000 
     20 C20         4.1241   54.4968   25.9371 C.ar      1 UNK         0.0000 
     21 C21         5.4633   54.8746   25.8729 C.ar      1 UNK         0.0000 
     22 C22         6.3350   54.4959   26.8902 C.ar      1 UNK         0.0000 
     23 C23         5.8837   53.7477   27.9719 C.ar      1 UNK         0.0000 
     24 C24         4.5463   53.3671   28.0344 C.ar      1 UNK         0.0000 
     25 C25         1.6728   53.4700   28.4013 C.ar      1 UNK         0.0000 
     26 C26         1.5397   54.7555   28.9423 C.ar      1 UNK         0.0000 
     27 C27         0.9374   54.9280   30.1848 C.ar      1 UNK         0.0000 
     28 C28         0.4603   53.8211   30.8823 C.ar      1 UNK         0.0000 
     29 C29         0.6011   52.5386   30.3608 C.ar      1 UNK         0.0000 
     30 C30         1.2264   52.3551   29.1290 C.ar      1 UNK         0.0000 
     31 N31        -3.6956   50.1062   28.2909 N.pl3     1 UNK         0.0000 
     32 C32        -8.2789   53.3903   27.5760 C.3       1 UNK         0.0000 
     33 O33        -8.4283   52.9481   28.9269 O.3       1 UNK         0.0000 
     34 C34        -9.0016   50.6384   28.3348 C.3       1 UNK         0.0000 
     35 H35        -8.1669   52.2479   32.7072 H         1 UNK         0.0000 
     36 H36        -6.6792   52.0960   31.8043 H         1 UNK         0.0000 
     37 H37        -7.8254   53.3826   31.4143 H         1 UNK         0.0000 
     38 H38        -9.5335   51.5391   30.8576 H         1 UNK         0.0000 
     39 H39        -8.2712   50.3615   31.0184 H         1 UNK         0.0000 
     40 H40        -6.4468   50.2143   28.8845 H         1 UNK         0.0000 
     41 H41        -5.9975   51.6468   29.7501 H         1 UNK         0.0000 
     42 H42         0.1756   51.3088   26.5367 H         1 UNK         0.0000 
     43 H43        -0.3912   52.8953   27.0569 H         1 UNK         0.0000 
     44 H44         3.4622   54.8190   25.1464 H         1 UNK         0.0000 
     45 H45         5.8209   55.4608   25.0385 H         1 UNK         0.0000 
     46 H46         7.3727   54.7854   26.8481 H         1 UNK         0.0000 
     47 H47         6.5677   53.4646   28.7580 H         1 UNK         0.0000 
     48 H48         4.2147   52.7777   28.8768 H         1 UNK         0.0000 
     49 H49         1.8959   55.6193   28.3988 H         1 UNK         0.0000 
     50 H50         0.8302   55.9185   30.6027 H         1 UNK         0.0000 
     51 H51        -0.0230   53.9534   31.8411 H         1 UNK         0.0000 
     52 H52         0.2122   51.6973   30.9163 H         1 UNK         0.0000 
     53 H53         1.3374   51.3548   28.7345 H         1 UNK         0.0000 
     54 H54        -4.4975   49.9456   28.8807 H         1 UNK         0.0000 
     55 H55        -2.8472   49.5373   28.4074 H         1 UNK         0.0000 
     56 H56        -8.3851   54.4749   27.5686 H         1 UNK         0.0000 
     57 H57        -9.0745   52.9973   26.9422 H         1 UNK         0.0000 
     58 H58        -8.9073   49.5966   28.6467 H         1 UNK         0.0000 
     59 H59       -10.0574   50.9050   28.4025 H         1 UNK         0.0000 
     60 H60        -8.7250   50.6802   27.2811 H         1 UNK         0.0000 
@<TRIPOS>BOND
     1    1    2 1    
     2    1   35 1    
     3    1   36 1    
     4    1   37 1    
     5    2    3 1    
     6    2   38 1    
     7    2   39 1    
     8    3   33 1    
     9    3    4 1    
    10    3   34 1    
    11    4    5 1    
    12    4   40 1    
    13    4   41 1    
    14    5    9 1    
    15    5    6 2    
    16    6    7 1    
    17    6   32 1    
    18    7    8 1    
    19    8   13 ar   
    20    8    9 ar   
    21    9   10 ar   
    22   10   11 ar   
    23   10   31 1    
    24   11   12 ar   
    25   12   13 ar   
    26   12   14 1    
    27   14   15 1    
    28   15   16 1    
    29   15   42 1    
    30   15   43 1    
    31   16   17 2    
    32   16   18 am   BACKBONE|DICT|INTERRES
    33   18   19 1    
    34   18   25 1    
    35   19   24 ar   
    36   19   20 ar   
    37   20   21 ar   
    38   20   44 1    
    39   21   22 ar   
    40   21   45 1    
    41   22   23 ar   
    42   22   46 1    
    43   23   24 ar   
    44   23   47 1    
    45   24   48 1    
    46   25   30 ar   
    47   25   26 ar   
    48   26   27 ar   
    49   26   49 1    
    50   27   28 ar   
    51   27   50 1    
    52   28   29 ar   
    53   28   51 1    
    54   29   30 ar   
    55   29   52 1    
    56   30   53 1    
    57   31   54 1    
    58   31   55 1    
    59   32   33 1    
    60   32   56 1    
    61   32   57 1    
    62   34   58 1    
    63   34   59 1    
    64   34   60 1    
@<TRIPOS>SUBSTRUCTURE
     1 UNK         1 GROUP             0       ****    0 ROOT    
