@<TRIPOS>MOLECULE
ZINC22411091_1622
31   32    1
SMALL
USER_CHARGES


@<TRIPOS>ATOM
      1 C1          1.9779   53.3031   23.8363 C.ar      1 UNK         0.0000 
      2 C2          2.2164   53.1334   22.4760 C.ar      1 UNK         0.0000 
      3 C3          3.4907   53.3832   21.9687 C.ar      1 UNK         0.0000 
      4 C4          4.5085   53.8395   22.8026 C.ar      1 UNK         0.0000 
      5 C5          4.2955   53.9706   24.1742 C.ar      1 UNK         0.0000 
      6 C6          3.0132   53.7008   24.6810 C.ar      1 UNK         0.0000 
      7 S7          5.7009   54.5181   25.1747 S.o2      1 UNK         0.0000 
      8 O8          5.5051   55.9630   25.2826 O.2       1 UNK         0.0000 
      9 O9          6.8805   54.0956   24.4136 O.2       1 UNK         0.0000 
     10 N10         5.5580   53.6971   26.5082 N.2       1 UNK         0.0000 
     11 C11         4.6794   53.8756   27.5445 C.ar      1 UNK         0.0000 
     12 C12         3.7202   54.8913   27.6415 C.ar      1 UNK         0.0000 
     13 C13         2.8090   54.9335   28.6950 C.ar      1 UNK         0.0000 
     14 C14         2.8416   53.9549   29.6816 C.ar      1 UNK         0.0000 
     15 C15         3.7959   52.9457   29.6188 C.ar      1 UNK         0.0000 
     16 C16         4.7051   52.9170   28.5638 C.ar      1 UNK         0.0000 
     17 F17         3.8294   51.9864   30.5712 F         1 UNK         0.0000 
     18 F18         1.8809   55.9147   28.7495 F         1 UNK         0.0000 
     19 S19         3.9034   53.0133   20.2888 S.o2      1 UNK         0.0000 
     20 O20         2.7085   52.4970   19.6155 O.2       1 UNK         0.0000 
     21 O21         4.6676   54.1466   19.7604 O.2       1 UNK         0.0000 
     22 N22         5.0138   51.6969   20.4817 N.pl3     1 UNK         0.0000 
     23 H23         0.9988   53.0955   24.2428 H         1 UNK         0.0000 
     24 H24         1.4259   52.7822   21.8280 H         1 UNK         0.0000 
     25 H25         5.4869   54.0366   22.3857 H         1 UNK         0.0000 
     26 H26         2.7787   53.7652   25.7239 H         1 UNK         0.0000 
     27 H27         3.6354   55.6176   26.8504 H         1 UNK         0.0000 
     28 H28         2.1158   53.9702   30.4810 H         1 UNK         0.0000 
     29 H29         5.4163   52.1032   28.5126 H         1 UNK         0.0000 
     30 H30         5.1028   51.1995   19.5718 H         1 UNK         0.0000 
     31 H31         5.9361   52.0512   20.7270 H         1 UNK         0.0000 
@<TRIPOS>BOND
     1    1    6 ar   
     2    1    2 ar   
     3    1   23 1    
     4    2    3 ar   
     5    2   24 1    
     6    3    4 ar   
     7    3   19 1    
     8    4    5 ar   
     9    4   25 1    
    10    5    6 ar   
    11    5    7 1    
    12    6   26 1    
    13    7    8 2    
    14    7    9 2    
    15    7   10 1    
    16   10   11 1    
    17   11   16 ar   
    18   11   12 ar   
    19   12   13 ar   
    20   12   27 1    
    21   13   14 ar   
    22   13   18 1    
    23   14   15 ar   
    24   14   28 1    
    25   15   16 ar   
    26   15   17 1    
    27   16   29 1    
    28   19   20 2    
    29   19   21 2    
    30   19   22 1    
    31   22   30 1    
    32   22   31 1    
@<TRIPOS>SUBSTRUCTURE
     1 UNK         1 GROUP             0       ****    0 ROOT    
