@<TRIPOS>MOLECULE
ZINC08883081_4158
57   61    1
SMALL
USER_CHARGES


@<TRIPOS>ATOM
      1 C1          1.6837   51.9736   32.0819 C.ar      1 UNK         0.0000 
      2 C2          2.8400   52.0969   31.2466 C.ar      1 UNK         0.0000 
      3 C3          2.8296   53.0703   30.3275 C.ar      1 UNK         0.0000 
      4 N4          1.7795   54.0069   30.2298 N.pl3     1 UNK         0.0000 
      5 C5          0.7044   53.9811   31.0766 C.ar      1 UNK         0.0000 
      6 O6         -0.0957   54.8962   31.1870 O.2       1 UNK         0.0000 
      7 C7          0.7025   52.8839   32.0037 C.ar      1 UNK         0.0000 
      8 C8          1.8746   55.2444   29.4421 C.3       1 UNK         0.0000 
      9 C9          2.8901   55.1083   28.3338 C.3       1 UNK         0.0000 
     10 H10         3.1031   56.0967   28.0815 H         1 UNK         0.0000 
     11 C11         4.2135   54.5290   28.8430 C.3       1 UNK         0.0000 
     12 C12         3.9059   53.1019   29.2660 C.3       1 UNK         0.0000 
     13 H13         4.8163   52.6172   29.6213 H         1 UNK         0.0000 
     14 C14         3.3510   52.3127   28.0816 C.3       1 UNK         0.0000 
     15 N15         2.1661   52.9221   27.4641 N.pl3     1 UNK         0.0000 
     16 C16         2.3427   54.3293   27.1297 C.3       1 UNK         0.0000 
     17 S17         0.5420   52.2262   27.6869 S.o2      1 UNK         0.0000 
     18 O18        -0.4528   53.2976   27.7362 O.2       1 UNK         0.0000 
     19 O19         0.6107   51.2323   28.7536 O.2       1 UNK         0.0000 
     20 C20         0.3028   51.4095   26.1227 C.ar      1 UNK         0.0000 
     21 C21         0.2768   52.2285   24.9967 C.ar      1 UNK         0.0000 
     22 C22         0.3821   51.6688   23.7378 C.ar      1 UNK         0.0000 
     23 C23         0.5704   50.2889   23.6083 C.ar      1 UNK         0.0000 
     24 C24         0.4462   49.4567   24.7249 C.ar      1 UNK         0.0000 
     25 C25         0.3062   50.0184   25.9944 C.ar      1 UNK         0.0000 
     26 N26         0.9290   49.7237   22.3690 N.am      1 UNK         0.0000 
     27 C27         1.8102   50.2058   21.4572 C.2       1 UNK         0.0000 
     28 O28         1.9028   49.6766   20.3532 O.2       1 UNK         0.0000 
     29 N29         2.5564   51.2573   21.8716 N.am      1 UNK         0.0000 
     30 C30         3.3788   52.1525   21.1674 C.ar      1 UNK         0.0000 
     31 C31         3.5075   52.1846   19.7715 C.ar      1 UNK         0.0000 
     32 C32         4.3255   53.1394   19.1744 C.ar      1 UNK         0.0000 
     33 C33         5.0050   54.0655   19.9615 C.ar      1 UNK         0.0000 
     34 C34         4.8810   54.0418   21.3481 C.ar      1 UNK         0.0000 
     35 C35         4.0630   53.0903   21.9486 C.ar      1 UNK         0.0000 
     36 Cl36        6.0091   55.2499   19.2158 Cl        1 UNK         0.0000 
     37 H37         1.6470   51.2120   32.8476 H         1 UNK         0.0000 
     38 H38         3.6479   51.3844   31.3152 H         1 UNK         0.0000 
     39 H39        -0.0953   52.8971   32.7203 H         1 UNK         0.0000 
     40 H40         2.1133   56.0829   30.1002 H         1 UNK         0.0000 
     41 H41         0.9060   55.4897   29.0034 H         1 UNK         0.0000 
     42 H42         4.9736   54.5452   28.0604 H         1 UNK         0.0000 
     43 H43         4.6150   55.1116   29.6712 H         1 UNK         0.0000 
     44 H44         3.0996   51.2973   28.3869 H         1 UNK         0.0000 
     45 H45         4.1129   52.2565   27.3063 H         1 UNK         0.0000 
     46 H46         2.9762   54.3950   26.2461 H         1 UNK         0.0000 
     47 H47         1.3598   54.7149   26.8816 H         1 UNK         0.0000 
     48 H48         0.2849   53.3021   25.0944 H         1 UNK         0.0000 
     49 H49         0.4087   52.3215   22.8767 H         1 UNK         0.0000 
     50 H50         0.5561   48.3860   24.6331 H         1 UNK         0.0000 
     51 H51         0.2929   49.3784   26.8672 H         1 UNK         0.0000 
     52 H52         0.5750   48.7958   22.1868 H         1 UNK         0.0000 
     53 H53         2.4714   51.4651   22.8555 H         1 UNK         0.0000 
     54 H54         3.0015   51.4746   19.1339 H         1 UNK         0.0000 
     55 H55         4.4408   53.1470   18.0991 H         1 UNK         0.0000 
     56 H56         5.4106   54.7614   21.9536 H         1 UNK         0.0000 
     57 H57         3.9616   53.0924   23.0253 H         1 UNK         0.0000 
@<TRIPOS>BOND
     1    1    7 ar   
     2    1    2 ar   
     3    1   37 1    
     4    2    3 ar   
     5    2   38 1    
     6    3   12 1    
     7    3    4 ar   
     8    4    5 ar   
     9    4    8 1    
    10    5    6 2    
    11    5    7 ar   
    12    7   39 1    
    13    8    9 1    
    14    8   40 1    
    15    8   41 1    
    16    9   10 1    
    17    9   16 1    
    18    9   11 1    
    19   11   12 1    
    20   11   42 1    
    21   11   43 1    
    22   12   13 1    
    23   12   14 1    
    24   14   15 1    
    25   14   44 1    
    26   14   45 1    
    27   15   16 1    
    28   15   17 1    
    29   16   46 1    
    30   16   47 1    
    31   17   18 2    
    32   17   19 2    
    33   17   20 1    
    34   20   25 ar   
    35   20   21 ar   
    36   21   22 ar   
    37   21   48 1    
    38   22   23 ar   
    39   22   49 1    
    40   23   24 ar   
    41   23   26 1    
    42   24   25 ar   
    43   24   50 1    
    44   25   51 1    
    45   26   27 am   BACKBONE|DICT|INTERRES
    46   26   52 1    
    47   27   28 2    
    48   27   29 am   BACKBONE|DICT|INTERRES
    49   29   30 1    
    50   29   53 1    
    51   30   35 ar   
    52   30   31 ar   
    53   31   32 ar   
    54   31   54 1    
    55   32   33 ar   
    56   32   55 1    
    57   33   34 ar   
    58   33   36 1    
    59   34   35 ar   
    60   34   56 1    
    61   35   57 1    
@<TRIPOS>SUBSTRUCTURE
     1 UNK         1 GROUP             0       ****    0 ROOT    
