@<TRIPOS>MOLECULE
ZINC40227240_3886
34   37    1
SMALL
USER_CHARGES


@<TRIPOS>ATOM
      1 C1          0.8275   54.0168   28.6803 C.ar      1 UNK         0.0000 
      2 C2          0.7184   53.4054   29.9251 C.ar      1 UNK         0.0000 
      3 C3          1.8526   52.7836   30.4541 C.ar      1 UNK         0.0000 
      4 C4          2.1708   52.0965   31.6567 C.ar      1 UNK         0.0000 
      5 N5          3.4228   51.7139   31.6816 N.2       1 UNK         0.0000 
      6 N6          3.9592   52.0969   30.5114 N.pl3     1 UNK         0.0000 
      7 H7          4.9328   51.9150   30.3148 H         1 UNK         0.0000 
      8 C8          3.0560   52.7654   29.7080 C.ar      1 UNK         0.0000 
      9 C9          3.1740   53.3592   28.4436 C.ar      1 UNK         0.0000 
     10 C10         2.0263   54.0060   27.9698 C.ar      1 UNK         0.0000 
     11 N11         4.3707   53.2978   27.7105 N.pl3     1 UNK         0.0000 
     12 C12         4.7864   54.3522   26.7894 C.3       1 UNK         0.0000 
     13 H13         4.3418   55.2965   27.0958 H         1 UNK         0.0000 
     14 C14         6.3089   54.5221   26.8104 C.3       1 UNK         0.0000 
     15 C15         6.7044   55.0086   25.4202 C.3       1 UNK         0.0000 
     16 C16         5.5860   54.5133   24.5414 C.ar      1 UNK         0.0000 
     17 C17         4.4806   54.1296   25.3108 C.ar      1 UNK         0.0000 
     18 C18         3.3156   53.6968   24.6659 C.ar      1 UNK         0.0000 
     19 C19         3.2552   53.6798   23.2694 C.ar      1 UNK         0.0000 
     20 C20         4.3595   54.0760   22.5135 C.ar      1 UNK         0.0000 
     21 C21         5.5253   54.4959   23.1490 C.ar      1 UNK         0.0000 
     22 Br22        4.2829   54.0522   20.6131 Br        1 UNK         0.0000 
     23 H23        -0.0367   54.4964   28.2552 H         1 UNK         0.0000 
     24 H24        -0.2117   53.4144   30.4737 H         1 UNK         0.0000 
     25 H25         1.5024   51.8901   32.4809 H         1 UNK         0.0000 
     26 H26         2.0491   54.4966   27.0135 H         1 UNK         0.0000 
     27 H27         5.1056   52.6992   28.0586 H         1 UNK         0.0000 
     28 H28         6.6390   55.2023   27.5969 H         1 UNK         0.0000 
     29 H29         6.8036   53.5647   26.9934 H         1 UNK         0.0000 
     30 H30         6.7594   56.0971   25.3944 H         1 UNK         0.0000 
     31 H31         7.6726   54.6180   25.1142 H         1 UNK         0.0000 
     32 H32         2.4521   53.3734   25.2251 H         1 UNK         0.0000 
     33 H33         2.3539   53.3553   22.7696 H         1 UNK         0.0000 
     34 H34         6.3704   54.8136   22.5564 H         1 UNK         0.0000 
@<TRIPOS>BOND
     1    1   10 ar   
     2    1    2 ar   
     3    1   23 1    
     4    2    3 ar   
     5    2   24 1    
     6    3    8 ar   
     7    3    4 ar   
     8    4    5 ar   
     9    4   25 1    
    10    5    6 ar   
    11    6    7 1    
    12    6    8 ar   
    13    8    9 ar   
    14    9   10 ar   
    15    9   11 1    
    16   10   26 1    
    17   11   12 1    
    18   11   27 1    
    19   12   13 1    
    20   12   17 1    
    21   12   14 1    
    22   14   15 1    
    23   14   28 1    
    24   14   29 1    
    25   15   16 1    
    26   15   30 1    
    27   15   31 1    
    28   16   21 ar   
    29   16   17 ar   
    30   17   18 ar   
    31   18   19 ar   
    32   18   32 1    
    33   19   20 ar   
    34   19   33 1    
    35   20   21 ar   
    36   20   22 1    
    37   21   34 1    
@<TRIPOS>SUBSTRUCTURE
     1 UNK         1 GROUP             0       ****    0 ROOT    
