@<TRIPOS>MOLECULE
ZINC39688190_3086
64   67    1
SMALL
USER_CHARGES


@<TRIPOS>ATOM
      1 C1          5.4815   54.0971   24.4272 C.ar      1 UNK         0.0000 
      2 C2          5.8303   54.1273   23.0813 C.ar      1 UNK         0.0000 
      3 C3          4.8389   54.1714   22.1056 C.ar      1 UNK         0.0000 
      4 C4          3.4967   54.2119   22.4834 C.ar      1 UNK         0.0000 
      5 C5          3.1472   54.1920   23.8305 C.ar      1 UNK         0.0000 
      6 C6          4.1347   54.1007   24.8252 C.ar      1 UNK         0.0000 
      7 C7          3.8210   54.0508   26.3143 C.2       1 UNK         0.0000 
      8 O8          4.6673   54.4915   27.0988 O.2       1 UNK         0.0000 
      9 N9          2.6757   53.4739   26.7816 N.am      1 UNK         0.0000 
     10 C10         1.6410   52.7861   26.0033 C.3       1 UNK         0.0000 
     11 C11         0.9376   51.8478   27.0133 C.3       1 UNK         0.0000 
     12 H12         1.4198   50.8703   26.9919 H         1 UNK         0.0000 
     13 C13         1.1570   52.5324   28.4060 C.3       1 UNK         0.0000 
     14 C14         2.5183   53.2304   28.2171 C.3       1 UNK         0.0000 
     15 C15         1.1462   51.4924   29.5406 C.3       1 UNK         0.0000 
     16 C16         1.5336   52.0969   30.9143 C.3       1 UNK         0.0000 
     17 N17         0.4660   53.1460   31.2806 N.4       1 UNK         0.0000 
     18 C18         0.3256   54.2374   30.1922 C.3       1 UNK         0.0000 
     19 C19         0.0629   53.5601   28.8235 C.3       1 UNK         0.0000 
     20 C20        -0.5434   51.6510   26.5663 C.2       1 UNK         0.0000 
     21 O21        -1.1385   52.5011   25.9110 O.2       1 UNK         0.0000 
     22 N22        -1.1510   50.4972   26.8817 N.am      1 UNK         0.0000 
     23 C23        -2.6044   50.2894   26.8116 C.3       1 UNK         0.0000 
     24 C24        -3.2835   50.6920   28.1370 C.3       1 UNK         0.0000 
     25 O25        -4.6989   50.5237   28.0856 O.3       1 UNK         0.0000 
     26 C26        -5.4282   50.5149   29.2630 C.ar      1 UNK         0.0000 
     27 C27        -6.8173   50.5212   29.1239 C.ar      1 UNK         0.0000 
     28 C28        -7.6435   50.5215   30.2467 C.ar      1 UNK         0.0000 
     29 C29        -7.0793   50.5126   31.5205 C.ar      1 UNK         0.0000 
     30 C30        -5.6968   50.5001   31.6781 C.ar      1 UNK         0.0000 
     31 C31        -4.8719   50.4986   30.5565 C.ar      1 UNK         0.0000 
     32 F32        -7.8787   50.5150   32.6116 F         1 UNK         0.0000 
     33 O33         5.2212   54.2467   20.7882 O.3       1 UNK         0.0000 
     34 C34         4.8143   53.1751   19.9394 C.3       1 UNK         0.0000 
     35 F35         5.5062   53.2958   18.8097 F         1 UNK         0.0000 
     36 F36         5.1019   51.9904   20.4821 F         1 UNK         0.0000 
     37 F37         3.5180   53.2440   19.6435 F         1 UNK         0.0000 
     38 H38         6.2758   54.0508   25.1609 H         1 UNK         0.0000 
     39 H39         6.8715   54.1227   22.7928 H         1 UNK         0.0000 
     40 H40         2.7229   54.2951   21.7353 H         1 UNK         0.0000 
     41 H41         2.0996   54.2882   24.0647 H         1 UNK         0.0000 
     42 H42         2.0321   52.1886   25.1779 H         1 UNK         0.0000 
     43 H43         0.9552   53.5742   25.6948 H         1 UNK         0.0000 
     44 H44         2.7235   54.0716   28.8784 H         1 UNK         0.0000 
     45 H45         3.2890   52.4926   28.4547 H         1 UNK         0.0000 
     46 H46         0.1850   50.9724   29.5776 H         1 UNK         0.0000 
     47 H47         1.8848   50.7356   29.2818 H         1 UNK         0.0000 
     48 H48         1.5157   51.3786   31.7354 H         1 UNK         0.0000 
     49 H49         2.5020   52.5983   30.9109 H         1 UNK         0.0000 
     50 H50        -0.4185   52.6692   31.4346 H         1 UNK         0.0000 
     51 H51        -0.4957   54.8782   30.5116 H         1 UNK         0.0000 
     52 H52         1.2404   54.8307   30.2158 H         1 UNK         0.0000 
     53 H53        -0.0264   54.3490   28.0817 H         1 UNK         0.0000 
     54 H54        -0.8954   53.0566   28.8514 H         1 UNK         0.0000 
     55 H55        -0.6547   49.7494   27.3532 H         1 UNK         0.0000 
     56 H56        -2.8041   49.2360   26.6156 H         1 UNK         0.0000 
     57 H57        -3.0646   50.8244   25.9778 H         1 UNK         0.0000 
     58 H58        -3.0591   51.7297   28.3769 H         1 UNK         0.0000 
     59 H59        -2.8438   50.0967   28.9315 H         1 UNK         0.0000 
     60 H60        -7.2563   50.5297   28.1364 H         1 UNK         0.0000 
     61 H61        -8.7166   50.5281   30.1336 H         1 UNK         0.0000 
     62 H62        -5.2622   50.4965   32.6701 H         1 UNK         0.0000 
     63 H63        -3.8068   50.4830   30.7266 H         1 UNK         0.0000 
     64 H64         0.6935   53.5657   32.1715 H         1 UNK         0.0000 
@<TRIPOS>BOND
     1    1    6 ar   
     2    1    2 ar   
     3    1   38 1    
     4    2    3 ar   
     5    2   39 1    
     6    3    4 ar   
     7    3   33 1    
     8    4    5 ar   
     9    4   40 1    
    10    5    6 ar   
    11    5   41 1    
    12    6    7 1    
    13    7    8 2    
    14    7    9 am   BACKBONE|DICT|INTERRES
    15    9   14 1    
    16    9   10 1    
    17   10   11 1    
    18   10   42 1    
    19   10   43 1    
    20   11   12 1    
    21   11   13 1    
    22   11   20 1    
    23   13   19 1    
    24   13   14 1    
    25   13   15 1    
    26   14   44 1    
    27   14   45 1    
    28   15   16 1    
    29   15   46 1    
    30   15   47 1    
    31   16   17 1    
    32   16   48 1    
    33   16   49 1    
    34   17   18 1    
    35   17   50 1    
    36   17   64 1    
    37   18   19 1    
    38   18   51 1    
    39   18   52 1    
    40   19   53 1    
    41   19   54 1    
    42   20   21 2    
    43   20   22 am   BACKBONE|DICT|INTERRES
    44   22   23 1    
    45   22   55 1    
    46   23   24 1    
    47   23   56 1    
    48   23   57 1    
    49   24   25 1    
    50   24   58 1    
    51   24   59 1    
    52   25   26 1    
    53   26   31 ar   
    54   26   27 ar   
    55   27   28 ar   
    56   27   60 1    
    57   28   29 ar   
    58   28   61 1    
    59   29   30 ar   
    60   29   32 1    
    61   30   31 ar   
    62   30   62 1    
    63   31   63 1    
    64   33   34 1    
    65   34   35 1    
    66   34   36 1    
    67   34   37 1    
@<TRIPOS>SUBSTRUCTURE
     1 UNK         1 GROUP             0       ****    0 ROOT    
