@<TRIPOS>MOLECULE
ZINC09262189_3497
37   38    1
SMALL
USER_CHARGES


@<TRIPOS>ATOM
      1 C1          4.4886   53.9031   23.3283 C.ar      1 UNK         0.0000 
      2 C2          5.7643   54.4950   23.2984 C.ar      1 UNK         0.0000 
      3 C3          6.2802   54.8996   22.0470 C.ar      1 UNK         0.0000 
      4 C4          5.5363   54.6944   20.8766 C.ar      1 UNK         0.0000 
      5 C5          4.2833   54.0924   20.9351 C.ar      1 UNK         0.0000 
      6 C6          3.7559   53.7029   22.1615 C.ar      1 UNK         0.0000 
      7 Cl7         2.1929   52.9766   22.2369 Cl        1 UNK         0.0000 
      8 Br8         6.2057   55.2414   19.1763 Br        1 UNK         0.0000 
      9 O9          7.5046   55.5183   21.9277 O.3       1 UNK         0.0000 
     10 C10         6.5279   54.7019   24.5296 C.2       1 UNK         0.0000 
     11 N11         6.0703   54.3580   25.7256 N.pl3     1 UNK         0.0000 
     12 C12         6.8592   54.5774   26.9649 C.3       1 UNK         0.0000 
     13 C13         6.5057   53.5366   28.0337 C.3       1 UNK         0.0000 
     14 N14         5.1784   53.8762   28.5868 N.pl3     1 UNK         0.0000 
     15 C15         4.1378   53.0677   28.5263 C.2       1 UNK         0.0000 
     16 C16         2.8398   53.4554   29.0802 C.ar      1 UNK         0.0000 
     17 C17         1.7842   52.5217   29.2489 C.ar      1 UNK         0.0000 
     18 C18         0.5773   52.9246   29.8396 C.ar      1 UNK         0.0000 
     19 C19         0.4139   54.2449   30.2508 C.ar      1 UNK         0.0000 
     20 C20         1.4169   55.1822   30.0358 C.ar      1 UNK         0.0000 
     21 C21         2.6152   54.7907   29.4561 C.ar      1 UNK         0.0000 
     22 Cl22        1.1808   56.8305   30.4832 Cl        1 UNK         0.0000 
     23 Br23       -0.8791   51.7085   30.0811 Br        1 UNK         0.0000 
     24 O24         1.9103   51.3078   28.8817 O.co2     1 UNK         0.0000 
     25 H25         4.0377   53.5830   24.2573 H         1 UNK         0.0000 
     26 H26         3.7098   53.9427   20.0303 H         1 UNK         0.0000 
     27 H27         8.1650   55.2966   22.5942 H         1 UNK         0.0000 
     28 H28         7.5044   55.1558   24.4899 H         1 UNK         0.0000 
     29 H29         6.6452   55.5903   27.3121 H         1 UNK         0.0000 
     30 H30         7.9050   54.4968   26.7084 H         1 UNK         0.0000 
     31 H31         7.1980   53.5994   28.8761 H         1 UNK         0.0000 
     32 H32         6.5056   52.5013   27.6710 H         1 UNK         0.0000 
     33 H33         4.2740   52.0969   28.0769 H         1 UNK         0.0000 
     34 H34        -0.4961   54.5564   30.7333 H         1 UNK         0.0000 
     35 H35         3.3695   55.5525   29.3141 H         1 UNK         0.0000 
     36 H36         5.1419   53.9530   25.8174 H         1 UNK         0.0000 
     37 H37         5.0736   54.7848   29.0299 H         1 UNK         0.0000 
@<TRIPOS>BOND
     1    1    6 ar   
     2    1    2 ar   
     3    1   25 1    
     4    2    3 ar   
     5    2   10 1    
     6    3    4 ar   
     7    3    9 1    
     8    4    5 ar   
     9    4    8 1    
    10    5    6 ar   
    11    5   26 1    
    12    6    7 1    
    13    9   27 1    
    14   10   11 2    
    15   10   28 1    
    16   11   12 1    
    17   11   36 1    
    18   12   13 1    
    19   12   29 1    
    20   12   30 1    
    21   13   14 1    
    22   13   31 1    
    23   13   32 1    
    24   14   15 2    
    25   14   37 1    
    26   15   16 1    
    27   15   33 1    
    28   16   21 ar   
    29   16   17 ar   
    30   17   18 ar   
    31   17   24 1    
    32   18   19 ar   
    33   18   23 1    
    34   19   20 ar   
    35   19   34 1    
    36   20   21 ar   
    37   20   22 1    
    38   21   35 1    
@<TRIPOS>SUBSTRUCTURE
     1 UNK         1 GROUP             0       ****    0 ROOT    
