@<TRIPOS>MOLECULE
ZINC33630251_3180
67   72    1
SMALL
USER_CHARGES


@<TRIPOS>ATOM
      1 C1         -0.7537   53.1402   23.6817 C.3       1 UNK         0.0000 
      2 C2         -0.4547   51.8869   24.4918 C.ar      1 UNK         0.0000 
      3 C3         -0.8149   51.8871   25.8432 C.ar      1 UNK         0.0000 
      4 C4         -0.5973   50.7628   26.6347 C.ar      1 UNK         0.0000 
      5 C5         -0.0283   49.6196   26.0817 C.ar      1 UNK         0.0000 
      6 C6          0.3209   49.5971   24.7369 C.ar      1 UNK         0.0000 
      7 C7          0.1274   50.7264   23.9273 C.ar      1 UNK         0.0000 
      8 N8          0.5789   50.6617   22.5882 N.am      1 UNK         0.0000 
      9 C9          1.5487   51.4878   22.0810 C.2       1 UNK         0.0000 
     10 O10         2.1755   52.3701   22.6631 O.2       1 UNK         0.0000 
     11 C11         1.6079   51.1700   20.5970 C.3       1 UNK         0.0000 
     12 H12         0.8918   51.8497   20.1252 H         1 UNK         0.0000 
     13 C13         2.8453   51.1314   19.7000 C.3       1 UNK         0.0000 
     14 H14         3.6673   50.5481   20.1181 H         1 UNK         0.0000 
     15 N15         2.3044   50.1872   18.5747 N.4       1 UNK         0.0000 
     16 C16         1.0835   49.3602   19.1244 C.3       1 UNK         0.0000 
     17 C17         1.2366   49.7470   20.6108 C.3       1 UNK         0.0000 
     18 H18         2.0274   49.0933   21.0081 H         1 UNK         0.0000 
     19 C19         0.1800   49.7016   21.6929 C.2       1 UNK         0.0000 
     20 O20        -0.7577   48.9083   21.7667 O.2       1 UNK         0.0000 
     21 C21        -0.2975   49.8063   18.5264 C.3       1 UNK         0.0000 
     22 C22        -0.3676   49.8351   17.0016 C.ar      1 UNK         0.0000 
     23 C23        -0.7083   48.6791   16.2941 C.ar      1 UNK         0.0000 
     24 C24        -0.7620   48.7053   14.9031 C.ar      1 UNK         0.0000 
     25 C25        -0.4793   49.8881   14.2240 C.ar      1 UNK         0.0000 
     26 C26        -0.1488   51.0486   14.9235 C.ar      1 UNK         0.0000 
     27 C27        -0.0989   51.0231   16.3145 C.ar      1 UNK         0.0000 
     28 C28         1.3384   47.8420   18.8023 C.2       1 UNK         0.0000 
     29 O29         0.5413   47.0164   19.3030 O.co2     1 UNK         0.0000 
     30 O30         2.3016   47.4979   18.0823 O.co2     1 UNK         0.0000 
     31 C31         3.3830   52.4844   19.1939 C.ar      1 UNK         0.0000 
     32 C32         3.0030   52.9955   17.9512 C.ar      1 UNK         0.0000 
     33 C33         3.4519   54.2307   17.5079 C.ar      1 UNK         0.0000 
     34 C34         4.3032   55.0208   18.2861 C.ar      1 UNK         0.0000 
     35 C35         4.7315   54.5272   19.5516 C.ar      1 UNK         0.0000 
     36 C36         4.2753   53.2498   20.0168 C.ar      1 UNK         0.0000 
     37 C37         4.7217   52.8116   21.2973 C.ar      1 UNK         0.0000 
     38 C38         5.5045   53.6241   22.1086 C.ar      1 UNK         0.0000 
     39 C39         5.9472   54.8557   21.6515 C.ar      1 UNK         0.0000 
     40 C40         5.5915   55.2967   20.3836 C.ar      1 UNK         0.0000 
     41 O41         4.7449   56.2764   17.9018 O.3       1 UNK         0.0000 
     42 C42         4.2757   56.8505   16.6868 C.3       1 UNK         0.0000 
     43 H43        -1.6147   53.6750   24.0817 H         1 UNK         0.0000 
     44 H44         0.1064   53.8106   23.6821 H         1 UNK         0.0000 
     45 H45        -1.0110   52.8946   22.6520 H         1 UNK         0.0000 
     46 H46        -1.2699   52.7602   26.2887 H         1 UNK         0.0000 
     47 H47        -0.8825   50.7619   27.6780 H         1 UNK         0.0000 
     48 H48         0.1383   48.7446   26.6942 H         1 UNK         0.0000 
     49 H49         0.7701   48.6981   24.3356 H         1 UNK         0.0000 
     50 H50         2.0194   50.7042   17.7585 H         1 UNK         0.0000 
     51 H51        -0.5759   50.7979   18.8818 H         1 UNK         0.0000 
     52 H52        -1.1020   49.1695   18.9008 H         1 UNK         0.0000 
     53 H53        -0.9239   47.7590   16.8189 H         1 UNK         0.0000 
     54 H54        -1.0201   47.8112   14.3546 H         1 UNK         0.0000 
     55 H55        -0.5180   49.9060   13.1441 H         1 UNK         0.0000 
     56 H56         0.0637   51.9622   14.3885 H         1 UNK         0.0000 
     57 H57         0.1444   51.9258   16.8541 H         1 UNK         0.0000 
     58 H58         2.3432   52.4450   17.3020 H         1 UNK         0.0000 
     59 H59         3.1113   54.5674   16.5415 H         1 UNK         0.0000 
     60 H60         4.4293   51.8480   21.6805 H         1 UNK         0.0000 
     61 H61         5.7960   53.2795   23.0904 H         1 UNK         0.0000 
     62 H62         6.5798   55.4665   22.2783 H         1 UNK         0.0000 
     63 H63         5.9456   56.2581   20.0388 H         1 UNK         0.0000 
     64 H64         4.7011   57.8481   16.5729 H         1 UNK         0.0000 
     65 H65         4.5778   56.2598   15.8196 H         1 UNK         0.0000 
     66 H66         3.1892   56.9588   16.6872 H         1 UNK         0.0000 
     67 H67         3.0361   49.5661   18.2257 H         1 UNK         0.0000 
@<TRIPOS>BOND
     1    1    2 1    
     2    1   43 1    
     3    1   44 1    
     4    1   45 1    
     5    2    7 ar   
     6    2    3 ar   
     7    3    4 ar   
     8    3   46 1    
     9    4    5 ar   
    10    4   47 1    
    11    5    6 ar   
    12    5   48 1    
    13    6    7 ar   
    14    6   49 1    
    15    7    8 1    
    16    8   19 am   BACKBONE|DICT|INTERRES
    17    8    9 am   BACKBONE|DICT|INTERRES
    18    9   10 2    
    19    9   11 1    
    20   11   12 1    
    21   11   17 1    
    22   11   13 1    
    23   13   14 1    
    24   13   15 1    
    25   13   31 1    
    26   15   16 1    
    27   15   50 1    
    28   15   67 1    
    29   16   17 1    
    30   16   21 1    
    31   16   28 1    
    32   17   18 1    
    33   17   19 1    
    34   19   20 2    
    35   21   22 1    
    36   21   51 1    
    37   21   52 1    
    38   22   27 ar   
    39   22   23 ar   
    40   23   24 ar   
    41   23   53 1    
    42   24   25 ar   
    43   24   54 1    
    44   25   26 ar   
    45   25   55 1    
    46   26   27 ar   
    47   26   56 1    
    48   27   57 1    
    49   28   29 2    
    50   28   30 1    
    51   31   36 ar   
    52   31   32 ar   
    53   32   33 ar   
    54   32   58 1    
    55   33   34 ar   
    56   33   59 1    
    57   34   35 ar   
    58   34   41 1    
    59   35   40 ar   
    60   35   36 ar   
    61   36   37 ar   
    62   37   38 ar   
    63   37   60 1    
    64   38   39 ar   
    65   38   61 1    
    66   39   40 ar   
    67   39   62 1    
    68   40   63 1    
    69   41   42 1    
    70   42   64 1    
    71   42   65 1    
    72   42   66 1    
@<TRIPOS>SUBSTRUCTURE
     1 UNK         1 GROUP             0       ****    0 ROOT    
