@<TRIPOS>MOLECULE
ZINC66770989_1560
44   47    1
SMALL
USER_CHARGES


@<TRIPOS>ATOM
      1 C1          4.5243   52.1528   29.5019 C.ar      1 UNK         0.0000 
      2 C2          4.9522   52.8936   28.4010 C.ar      1 UNK         0.0000 
      3 C3          4.2090   53.9750   27.9230 C.ar      1 UNK         0.0000 
      4 C4          3.0780   54.3745   28.6571 C.ar      1 UNK         0.0000 
      5 C5          2.6391   53.5974   29.7443 C.ar      1 UNK         0.0000 
      6 C6          3.3638   52.4971   30.1763 C.ar      1 UNK         0.0000 
      7 O7          1.5327   53.9141   30.4912 O.3       1 UNK         0.0000 
      8 C8          0.7045   54.9188   29.9267 C.3       1 UNK         0.0000 
      9 C9          1.5383   56.0515   29.2915 C.3       1 UNK         0.0000 
     10 O10         2.3692   55.4954   28.2634 O.3       1 UNK         0.0000 
     11 C11         4.6689   54.7089   26.6529 C.3       1 UNK         0.0000 
     12 H12         4.2192   55.6965   26.7140 H         1 UNK         0.0000 
     13 C13         6.1801   54.9234   26.4859 C.3       1 UNK         0.0000 
     14 C14         6.3179   55.2993   25.0307 C.3       1 UNK         0.0000 
     15 C15         5.3165   54.3842   24.3327 C.3       1 UNK         0.0000 
     16 N16         4.2529   54.1637   25.3342 N.am      1 UNK         0.0000 
     17 C17         2.9765   53.7441   25.0519 C.2       1 UNK         0.0000 
     18 O18         2.0888   53.6970   25.9024 O.2       1 UNK         0.0000 
     19 C19         2.6208   53.2975   23.7146 C.2       1 UNK         0.0000 
     20 C20         1.3960   52.8395   23.2277 C.2       1 UNK         0.0000 
     21 C21         1.5790   52.4967   21.8873 C.2       1 UNK         0.0000 
     22 C22         2.9068   52.7578   21.6076 C.2       1 UNK         0.0000 
     23 O23         3.5325   53.2399   22.7074 O.3       1 UNK         0.0000 
     24 S24         3.8784   52.5637   20.1074 S.o2      1 UNK         0.0000 
     25 O25         2.9672   52.1050   19.0552 O.2       1 UNK         0.0000 
     26 O26         5.1032   51.8506   20.4817 O.2       1 UNK         0.0000 
     27 N27         4.3048   54.2190   19.7842 N.pl3     1 UNK         0.0000 
     28 H28         5.1040   51.3041   29.8253 H         1 UNK         0.0000 
     29 H29         5.8357   52.5528   27.8855 H         1 UNK         0.0000 
     30 H30         3.0290   51.9341   31.0355 H         1 UNK         0.0000 
     31 H31         0.0730   54.4743   29.1542 H         1 UNK         0.0000 
     32 H32         0.0472   55.3082   30.7045 H         1 UNK         0.0000 
     33 H33         0.9028   56.8338   28.8811 H         1 UNK         0.0000 
     34 H34         2.1693   56.5134   30.0566 H         1 UNK         0.0000 
     35 H35         6.7668   54.0376   26.7206 H         1 UNK         0.0000 
     36 H36         6.5468   55.6970   27.1589 H         1 UNK         0.0000 
     37 H37         7.3309   55.1872   24.6417 H         1 UNK         0.0000 
     38 H38         6.0317   56.3427   24.8836 H         1 UNK         0.0000 
     39 H39         5.8202   53.4424   24.1082 H         1 UNK         0.0000 
     40 H40         4.9712   54.8966   23.4343 H         1 UNK         0.0000 
     41 H41         0.4798   52.7536   23.7921 H         1 UNK         0.0000 
     42 H42         0.8409   52.1104   21.2004 H         1 UNK         0.0000 
     43 H43         5.1844   54.2887   19.2696 H         1 UNK         0.0000 
     44 H44         3.5548   54.6914   19.2752 H         1 UNK         0.0000 
@<TRIPOS>BOND
     1    1    6 ar   
     2    1    2 ar   
     3    1   28 1    
     4    2    3 ar   
     5    2   29 1    
     6    3    4 ar   
     7    3   11 1    
     8    4   10 1    
     9    4    5 ar   
    10    5    6 ar   
    11    5    7 1    
    12    6   30 1    
    13    7    8 1    
    14    8    9 1    
    15    8   31 1    
    16    8   32 1    
    17    9   10 1    
    18    9   33 1    
    19    9   34 1    
    20   11   12 1    
    21   11   16 1    
    22   11   13 1    
    23   13   14 1    
    24   13   35 1    
    25   13   36 1    
    26   14   15 1    
    27   14   37 1    
    28   14   38 1    
    29   15   16 1    
    30   15   39 1    
    31   15   40 1    
    32   16   17 am   BACKBONE|DICT|INTERRES
    33   17   18 2    
    34   17   19 1    
    35   19   23 1    
    36   19   20 2    
    37   20   21 1    
    38   20   41 1    
    39   21   22 2    
    40   21   42 1    
    41   22   23 1    
    42   22   24 1    
    43   24   25 2    
    44   24   26 2    
    45   24   27 1    
    46   27   43 1    
    47   27   44 1    
@<TRIPOS>SUBSTRUCTURE
     1 UNK         1 GROUP             0       ****    0 ROOT    
