@<TRIPOS>MOLECULE
ZINC16695580_1172
61   66    1
SMALL
USER_CHARGES


@<TRIPOS>ATOM
      1 C1          1.9063   47.8631   18.3861 C.ar      1 UNK         0.0000 
      2 C2          1.7149   46.8965   17.3903 C.ar      1 UNK         0.0000 
      3 C3          0.6832   45.9841   17.5757 C.ar      1 UNK         0.0000 
      4 C4         -0.1201   46.0203   18.6794 C.ar      1 UNK         0.0000 
      5 C5          0.0460   46.9707   19.6811 C.ar      1 UNK         0.0000 
      6 C6          1.0873   47.9113   19.5290 C.ar      1 UNK         0.0000 
      7 N7          1.4122   48.8953   20.4774 N.am      1 UNK         0.0000 
      8 C8          0.6577   49.4050   21.4755 C.2       1 UNK         0.0000 
      9 O9         -0.5004   49.0617   21.7168 O.2       1 UNK         0.0000 
     10 C10         1.3293   50.5230   22.3086 C.3       1 UNK         0.0000 
     11 C11         0.6017   50.7517   23.6611 C.3       1 UNK         0.0000 
     12 C12         1.2738   51.8996   24.4495 C.3       1 UNK         0.0000 
     13 C13         2.0801   52.9091   22.2337 C.3       1 UNK         0.0000 
     14 C14         1.3375   51.8139   21.4573 C.3       1 UNK         0.0000 
     15 C15         1.9215   54.3631   24.3412 C.3       1 UNK         0.0000 
     16 C16         3.3898   54.2630   24.7750 C.ar      1 UNK         0.0000 
     17 C17         4.4045   54.4966   23.8379 C.ar      1 UNK         0.0000 
     18 C18         5.7417   54.4954   24.2207 C.ar      1 UNK         0.0000 
     19 C19         6.0836   54.2599   25.5483 C.ar      1 UNK         0.0000 
     20 C20         5.0971   54.0113   26.5022 C.ar      1 UNK         0.0000 
     21 C21         3.7493   54.0301   26.1101 C.ar      1 UNK         0.0000 
     22 O22         2.7319   53.8770   27.0353 O.3       1 UNK         0.0000 
     23 C23         3.1294   53.2520   28.2296 C.3       1 UNK         0.0000 
     24 H24         3.3876   52.2118   28.0048 H         1 UNK         0.0000 
     25 O25         4.2432   53.9131   28.7747 O.3       1 UNK         0.0000 
     26 C26         5.4050   53.7354   27.9633 C.3       1 UNK         0.0000 
     27 C27         2.0177   53.3954   29.2000 C.2       1 UNK         0.0000 
     28 C28         1.2584   52.3334   29.7183 C.2       1 UNK         0.0000 
     29 C29         0.3049   52.7263   30.6486 C.2       1 UNK         0.0000 
     30 S30         0.3044   54.4384   30.8817 S.3       1 UNK         0.0000 
     31 C31         1.5770   54.6090   29.7225 C.2       1 UNK         0.0000 
     32 F32         6.7042   54.7300   23.3002 F         1 UNK         0.0000 
     33 O33        -1.0048   44.9895   18.6212 O.3       1 UNK         0.0000 
     34 C34        -0.8837   44.4661   17.3259 C.3       1 UNK         0.0000 
     35 O35         0.3271   44.9327   16.7946 O.3       1 UNK         0.0000 
     36 H36         2.7036   48.5798   18.2537 H         1 UNK         0.0000 
     37 H37         2.3590   46.8730   16.5227 H         1 UNK         0.0000 
     38 H38        -0.5882   46.9504   20.5519 H         1 UNK         0.0000 
     39 H39         2.3138   49.3220   20.3346 H         1 UNK         0.0000 
     40 H40         2.3468   50.1650   22.4871 H         1 UNK         0.0000 
     41 H41        -0.4333   51.0649   23.5120 H         1 UNK         0.0000 
     42 H42         0.6583   49.8663   24.2974 H         1 UNK         0.0000 
     43 H43         2.3043   51.6968   24.7348 H         1 UNK         0.0000 
     44 H44         0.6869   52.1514   25.3377 H         1 UNK         0.0000 
     45 H45         3.1073   52.6174   22.4645 H         1 UNK         0.0000 
     46 H46         2.0745   53.8482   21.6818 H         1 UNK         0.0000 
     47 H47         1.8889   51.6929   20.5233 H         1 UNK         0.0000 
     48 H48         0.3291   52.1915   21.2731 H         1 UNK         0.0000 
     49 H49         1.7792   55.2177   23.6797 H         1 UNK         0.0000 
     50 H50         1.2418   54.4920   25.1825 H         1 UNK         0.0000 
     51 H51         4.1614   54.7086   22.8074 H         1 UNK         0.0000 
     52 H52         7.1212   54.2511   25.8321 H         1 UNK         0.0000 
     53 H53         5.7488   52.7049   28.0620 H         1 UNK         0.0000 
     54 H54         6.2066   54.3790   28.3271 H         1 UNK         0.0000 
     55 H55         1.4078   51.3007   29.4350 H         1 UNK         0.0000 
     56 H56        -0.3899   52.1030   31.2055 H         1 UNK         0.0000 
     57 H57         1.9650   55.5902   29.4948 H         1 UNK         0.0000 
     58 H58        -0.9031   43.3766   17.3414 H         1 UNK         0.0000 
     59 H59        -1.7106   44.8285   16.7110 H         1 UNK         0.0000 
     60 N60         1.3283   53.1617   23.5612 N.4       1 UNK         0.0000 
     61 H61         0.3740   53.4046   23.3226 H         1 UNK         0.0000 
@<TRIPOS>BOND
     1    1    6 ar   
     2    1    2 ar   
     3    1   36 1    
     4    2    3 ar   
     5    2   37 1    
     6    3   35 1    
     7    3    4 ar   
     8    4    5 ar   
     9    4   33 1    
    10    5    6 ar   
    11    5   38 1    
    12    6    7 1    
    13    7    8 am   BACKBONE|DICT|INTERRES
    14    7   39 1    
    15    8    9 2    
    16    8   10 1    
    17   10   14 1    
    18   10   11 1    
    19   10   40 1    
    20   11   12 1    
    21   11   41 1    
    22   11   42 1    
    23   12   43 1    
    24   12   44 1    
    25   12   60 1    
    26   13   14 1    
    27   13   45 1    
    28   13   46 1    
    29   13   60 1    
    30   14   47 1    
    31   14   48 1    
    32   15   16 1    
    33   15   49 1    
    34   15   50 1    
    35   15   60 1    
    36   16   21 ar   
    37   16   17 ar   
    38   17   18 ar   
    39   17   51 1    
    40   18   19 ar   
    41   18   32 1    
    42   19   20 ar   
    43   19   52 1    
    44   20   26 1    
    45   20   21 ar   
    46   21   22 1    
    47   22   23 1    
    48   23   24 1    
    49   23   25 1    
    50   23   27 1    
    51   25   26 1    
    52   26   53 1    
    53   26   54 1    
    54   27   31 2    
    55   27   28 1    
    56   28   29 2    
    57   28   55 1    
    58   29   30 1    
    59   29   56 1    
    60   30   31 1    
    61   31   57 1    
    62   33   34 1    
    63   34   35 1    
    64   34   58 1    
    65   34   59 1    
    66   60   61 1    
@<TRIPOS>SUBSTRUCTURE
     1 UNK         1 GROUP             0       ****    0 ROOT    
