ZINC42015106_4731
                    3D
 Schrodinger Suite 2024-2.
 43 45  0  0  1  0            999 V2000
    3.2765   53.7131   23.2276 C   0  0  0  0  0  0
    3.6026   53.6978   24.5820 C   0  0  0  0  0  0
    4.8700   54.0967   25.0423 C   0  0  0  0  0  0
    5.8091   54.5121   24.0669 C   0  0  0  0  0  0
    5.4923   54.4921   22.7075 C   0  0  0  0  0  0
    4.2257   54.0976   22.2880 C   0  0  0  0  0  0
    3.9050   54.0962   20.9345 N   0  0  0  0  0  0
    7.0845   54.9545   24.4163 N   0  0  0  0  0  0
    5.2361   53.9649   26.5153 C   0  0  0  0  0  0
    6.4753   53.7795   26.9250 N   0  0  0  0  0  0
    6.4505   53.6966   28.3033 N   0  0  0  0  0  0
    5.1551   53.7977   28.7427 N   0  0  0  0  0  0
    4.4134   53.9733   27.6387 N   0  0  0  0  0  0
    2.9554   54.1187   27.7820 C   0  0  0  0  0  0
    2.2607   52.7334   27.9173 C   0  0  0  0  0  0
    2.5287   51.8905   29.1842 C   0  0  0  0  0  0
    2.0978   52.4916   30.5369 C   0  0  0  0  0  0
    0.6741   53.0850   30.5732 C   0  0  0  0  0  0
    0.6009   54.6216   30.4824 C   0  0  0  0  0  0
    1.1044   55.2974   29.1883 C   0  0  0  0  0  0
    2.6036   55.1503   28.8821 C   0  0  0  0  0  0
    2.2947   53.3933   22.9119 H   0  0  0  0  0  0
    2.8559   53.3080   25.2486 H   0  0  0  0  0  0
    6.2257   54.8028   21.9776 H   0  0  0  0  0  0
    4.6146   54.3855   20.2776 H   0  0  0  0  0  0
    2.9285   54.1602   20.6649 H   0  0  0  0  0  0
    7.3588   54.7217   25.3580 H   0  0  0  0  0  0
    7.7979   55.0406   23.7012 H   0  0  0  0  0  0
    2.5928   54.5831   26.8685 H   0  0  0  0  0  0
    1.1869   52.8533   27.7837 H   0  0  0  0  0  0
    2.5558   52.1160   27.0696 H   0  0  0  0  0  0
    2.0029   50.9426   29.0538 H   0  0  0  0  0  0
    3.5851   51.6229   29.2341 H   0  0  0  0  0  0
    2.1493   51.6966   31.2810 H   0  0  0  0  0  0
    2.8372   53.2093   30.8819 H   0  0  0  0  0  0
    0.0419   52.6281   29.8123 H   0  0  0  0  0  0
    0.2120   52.7962   31.5188 H   0  0  0  0  0  0
   -0.4464   54.8967   30.6112 H   0  0  0  0  0  0
    1.1031   55.0663   31.3391 H   0  0  0  0  0  0
    0.5027   54.9722   28.3380 H   0  0  0  0  0  0
    0.8964   56.3657   29.2866 H   0  0  0  0  0  0
    3.1652   55.0102   29.8015 H   0  0  0  0  0  0
    2.9586   56.0996   28.5026 H   0  0  0  0  0  0
  1  6  2  0  0  0
  1  2  1  0  0  0
  1 22  1  0  0  0
  2  3  2  0  0  0
  2 23  1  0  0  0
  3  4  1  0  0  0
  3  9  1  0  0  0
  4  5  2  0  0  0
  4  8  1  0  0  0
  5  6  1  0  0  0
  5 24  1  0  0  0
  6  7  1  0  0  0
  7 25  1  0  0  0
  7 26  1  0  0  0
  8 27  1  0  0  0
  8 28  1  0  0  0
  9 13  1  0  0  0
  9 10  2  0  0  0
 10 11  1  0  0  0
 11 12  2  0  0  0
 12 13  1  0  0  0
 13 14  1  0  0  0
 14 21  1  0  0  0
 14 15  1  0  0  0
 14 29  1  0  0  0
 15 16  1  0  0  0
 15 30  1  0  0  0
 15 31  1  0  0  0
 16 17  1  0  0  0
 16 32  1  0  0  0
 16 33  1  0  0  0
 17 18  1  0  0  0
 17 34  1  0  0  0
 17 35  1  0  0  0
 18 19  1  0  0  0
 18 36  1  0  0  0
 18 37  1  0  0  0
 19 20  1  0  0  0
 19 38  1  0  0  0
 19 39  1  0  0  0
 20 21  1  0  0  0
 20 40  1  0  0  0
 20 41  1  0  0  0
 21 42  1  0  0  0
 21 43  1  0  0  0
M  END
> <i_i_glide_confnum>
118

> <i_i_glide_lignum>
4732

> <i_i_glide_posenum>
152

> <i_i_glide_rotatable_bonds>
2

> <i_m_Source_File_Index>
4394

> <b_m_subgroup_collapsed>
0

> <r_i_docking_score>
-7.25251

> <r_i_glide_ecoul>
-2.31451

> <r_i_glide_eff_state_penalty>
0

> <r_i_glide_einternal>
2.20479

> <r_i_glide_emodel>
-54.331

> <r_i_glide_energy>
-40.1631

> <r_i_glide_erotb>
0.442844

> <r_i_glide_esite>
-0.0131946

> <r_i_glide_evdw>
-37.8486

> <r_i_glide_gscore>
-7.25251

> <r_i_glide_hbond>
-0.517986

> <r_i_glide_ligand_efficiency>
-0.345358

> <r_i_glide_ligand_efficiency_ln>
-1.79317

> <r_i_glide_ligand_efficiency_sa>
-0.952816

> <r_i_glide_lipo>
-2.7493

> <r_i_glide_metal>
0

> <r_i_glide_rewards>
-2.17526

> <s_i_glide_gridfile>
wee1_glide-grid

> <s_m_Source_File>
wee1_decoys_glide_SP.sdf

> <s_m_Source_Path>
/Users/zhangxujun/Desktop

> <s_m_entry_id>
4669

> <s_m_entry_name>
wee1_decoys_glide_SP.4394

> <s_m_subgroup_title>
wee1_decoys_glide_SP

> <s_m_subgroupid>
wee1_decoys_glide_SP


$$$$
