@<TRIPOS>MOLECULE
ZINC52012312_1654
46   47    1
SMALL
USER_CHARGES


@<TRIPOS>ATOM
      1 C1          0.3840   52.9002   23.5405 C.3       1 UNK         0.0000 
      2 C2          0.4497   51.3940   23.2271 C.3       1 UNK         0.0000 
      3 C3          1.9044   50.9014   23.0658 C.3       1 UNK         0.0000 
      4 C4          2.7386   51.7602   22.0734 C.3       1 UNK         0.0000 
      5 H5          3.7813   51.4413   22.0817 H         1 UNK         0.0000 
      6 C6          2.6548   53.2851   22.3925 C.3       1 UNK         0.0000 
      7 H7          3.0964   53.8457   21.5634 H         1 UNK         0.0000 
      8 C8          1.1721   53.6956   22.4824 C.3       1 UNK         0.0000 
      9 N9          3.3853   53.6960   23.5994 N.am      1 UNK         0.0000 
     10 C10         4.7014   53.9680   23.7041 C.2       1 UNK         0.0000 
     11 O11         5.4731   53.7862   22.7577 O.2       1 UNK         0.0000 
     12 N12         5.1187   54.3286   24.9513 N.am      1 UNK         0.0000 
     13 C13         6.5652   54.4916   25.2124 C.3       1 UNK         0.0000 
     14 C14         6.8383   53.9749   26.6429 C.3       1 UNK         0.0000 
     15 C15         5.9536   54.6437   27.7021 C.3       1 UNK         0.0000 
     16 C16         4.4515   54.5385   27.3468 C.3       1 UNK         0.0000 
     17 H17         3.9316   55.2415   27.9977 H         1 UNK         0.0000 
     18 C18         4.2335   55.0535   25.8986 C.3       1 UNK         0.0000 
     19 C19         3.8473   53.1189   27.5199 C.3       1 UNK         0.0000 
     20 C20         4.0469   52.3602   28.8621 C.3       1 UNK         0.0000 
     21 C21         3.3413   52.9494   30.0807 C.2       1 UNK         0.0000 
     22 O22         3.1528   52.1569   31.0316 O.co2     1 UNK         0.0000 
     23 O23         3.0180   54.1580   30.0815 O.co2     1 UNK         0.0000 
     24 O24         2.3384   51.4947   20.7396 O.3       1 UNK         0.0000 
     25 H25        -0.6554   53.2300   23.5655 H         1 UNK         0.0000 
     26 H26         0.7865   53.0932   24.5358 H         1 UNK         0.0000 
     27 H27        -0.1027   51.1899   22.3067 H         1 UNK         0.0000 
     28 H28        -0.0550   50.8273   24.0115 H         1 UNK         0.0000 
     29 H29         1.9257   49.8460   22.7900 H         1 UNK         0.0000 
     30 H30         2.3182   50.9932   24.0663 H         1 UNK         0.0000 
     31 H31         1.1051   54.7667   22.6769 H         1 UNK         0.0000 
     32 H32         0.7053   53.5273   21.5093 H         1 UNK         0.0000 
     33 H33         2.8611   53.6481   24.4592 H         1 UNK         0.0000 
     34 H34         6.8162   55.5505   25.1331 H         1 UNK         0.0000 
     35 H35         7.1784   53.9079   24.5216 H         1 UNK         0.0000 
     36 H36         7.8820   54.1434   26.8984 H         1 UNK         0.0000 
     37 H37         6.7014   52.8980   26.6811 H         1 UNK         0.0000 
     38 H38         6.2362   55.6943   27.7714 H         1 UNK         0.0000 
     39 H39         6.1599   54.2223   28.6865 H         1 UNK         0.0000 
     40 H40         3.1745   54.9602   25.6584 H         1 UNK         0.0000 
     41 H41         4.5065   56.0971   25.8412 H         1 UNK         0.0000 
     42 H42         4.2784   52.4968   26.7450 H         1 UNK         0.0000 
     43 H43         2.7810   53.1565   27.2943 H         1 UNK         0.0000 
     44 H44         5.1038   52.2257   29.0863 H         1 UNK         0.0000 
     45 H45         3.6175   51.3647   28.7680 H         1 UNK         0.0000 
     46 H46         2.9270   51.9588   20.1382 H         1 UNK         0.0000 
@<TRIPOS>BOND
     1    1    8 1    
     2    1    2 1    
     3    1   25 1    
     4    1   26 1    
     5    2    3 1    
     6    2   27 1    
     7    2   28 1    
     8    3    4 1    
     9    3   29 1    
    10    3   30 1    
    11    4    5 1    
    12    4    6 1    
    13    4   24 1    
    14    6    7 1    
    15    6    8 1    
    16    6    9 1    
    17    8   31 1    
    18    8   32 1    
    19    9   10 am   BACKBONE|DICT|INTERRES
    20    9   33 1    
    21   10   11 2    
    22   10   12 am   BACKBONE|DICT|INTERRES
    23   12   18 1    
    24   12   13 1    
    25   13   14 1    
    26   13   34 1    
    27   13   35 1    
    28   14   15 1    
    29   14   36 1    
    30   14   37 1    
    31   15   16 1    
    32   15   38 1    
    33   15   39 1    
    34   16   17 1    
    35   16   18 1    
    36   16   19 1    
    37   18   40 1    
    38   18   41 1    
    39   19   20 1    
    40   19   42 1    
    41   19   43 1    
    42   20   21 1    
    43   20   44 1    
    44   20   45 1    
    45   21   22 2    
    46   21   23 1    
    47   24   46 1    
@<TRIPOS>SUBSTRUCTURE
     1 UNK         1 GROUP             0       ****    0 ROOT    
