@<TRIPOS>MOLECULE
ZINC38700693_6013
57   61    1
SMALL
USER_CHARGES


@<TRIPOS>ATOM
      1 C1         -0.0106   52.2852   28.4761 C.3       1 UNK         0.0000 
      2 C2          1.3726   52.8070   28.1306 C.ar      1 UNK         0.0000 
      3 C3          2.3144   53.0153   29.1443 C.ar      1 UNK         0.0000 
      4 C4          3.6053   53.4752   28.8626 C.ar      1 UNK         0.0000 
      5 C5          3.9574   53.7272   27.5253 C.ar      1 UNK         0.0000 
      6 C6          5.1406   54.1606   26.8407 C.2       1 UNK         0.0000 
      7 C7          4.7991   54.1704   25.4792 C.2       1 UNK         0.0000 
      8 O8          3.4921   53.8066   25.2912 O.3       1 UNK         0.0000 
      9 C9          2.9844   53.5292   26.5242 C.ar      1 UNK         0.0000 
     10 C10         1.6891   53.0739   26.7957 C.ar      1 UNK         0.0000 
     11 C11         5.5944   54.4956   24.2869 C.2       1 UNK         0.0000 
     12 O12         6.7045   55.0257   24.3499 O.2       1 UNK         0.0000 
     13 O13         4.9472   54.0965   23.1435 O.3       1 UNK         0.0000 
     14 C14         5.4168   54.2834   21.8511 C.ar      1 UNK         0.0000 
     15 C15         4.9044   53.4155   20.8827 C.ar      1 UNK         0.0000 
     16 C16         5.2495   53.5469   19.5369 C.ar      1 UNK         0.0000 
     17 C17         6.1126   54.5616   19.1101 C.ar      1 UNK         0.0000 
     18 C18         6.6193   55.4423   20.0854 C.ar      1 UNK         0.0000 
     19 C19         6.2983   55.2979   21.4357 C.ar      1 UNK         0.0000 
     20 O20         7.4006   56.5309   19.7481 O.3       1 UNK         0.0000 
     21 C21         7.3653   56.9634   18.4620 C.2       1 UNK         0.0000 
     22 C22         6.9145   56.2328   17.4220 C.2       1 UNK         0.0000 
     23 C23         6.4312   54.7936   17.6221 C.3       1 UNK         0.0000 
     24 H24         5.4910   54.7037   17.0734 H         1 UNK         0.0000 
     25 C25         7.3877   53.7488   17.0369 C.ar      1 UNK         0.0000 
     26 C26         6.9385   52.8645   16.0496 C.ar      1 UNK         0.0000 
     27 C27         7.8098   51.9318   15.4903 C.ar      1 UNK         0.0000 
     28 C28         9.1347   51.8698   15.9242 C.ar      1 UNK         0.0000 
     29 C29         9.5909   52.7598   16.8933 C.ar      1 UNK         0.0000 
     30 C30         8.7233   53.6969   17.4509 C.ar      1 UNK         0.0000 
     31 S31        10.2715   50.6677   15.2818 S.3       1 UNK         0.0000 
     32 C32         9.5276   49.8203   13.8569 C.3       1 UNK         0.0000 
     33 C33         6.9321   56.7664   16.0981 C.1       1 UNK         0.0000 
     34 N34         6.9712   57.1964   15.0249 N.1       1 UNK         0.0000 
     35 N35         7.8886   58.2264   18.4153 N.pl3     1 UNK         0.0000 
     36 C36         6.4527   54.4946   27.5133 C.3       1 UNK         0.0000 
     37 H37        -0.2133   52.3329   29.5469 H         1 UNK         0.0000 
     38 H38        -0.7734   52.8800   27.9732 H         1 UNK         0.0000 
     39 H39        -0.1246   51.2533   28.1408 H         1 UNK         0.0000 
     40 H40         2.0426   52.8055   30.1693 H         1 UNK         0.0000 
     41 H41         4.3257   53.6171   29.6545 H         1 UNK         0.0000 
     42 H42         0.9751   52.9150   26.0014 H         1 UNK         0.0000 
     43 H43         4.2176   52.6336   21.1729 H         1 UNK         0.0000 
     44 H44         4.8322   52.8559   18.8167 H         1 UNK         0.0000 
     45 H45         6.6965   56.0160   22.1356 H         1 UNK         0.0000 
     46 H46         5.9119   52.8897   15.7136 H         1 UNK         0.0000 
     47 H47         7.4380   51.2554   14.7376 H         1 UNK         0.0000 
     48 H48        10.6188   52.7172   17.2219 H         1 UNK         0.0000 
     49 H49         9.0893   54.3765   18.2073 H         1 UNK         0.0000 
     50 H50        10.2580   49.1510   13.3967 H         1 UNK         0.0000 
     51 H51         9.2124   50.5434   13.1036 H         1 UNK         0.0000 
     52 H52         8.6696   49.2238   14.1640 H         1 UNK         0.0000 
     53 H53         7.7566   58.8094   17.5999 H         1 UNK         0.0000 
     54 H54         8.5645   58.5249   19.1040 H         1 UNK         0.0000 
     55 H55         6.3040   55.2924   28.2376 H         1 UNK         0.0000 
     56 H56         6.8564   53.6399   28.0562 H         1 UNK         0.0000 
     57 H57         7.2251   54.8262   26.8236 H         1 UNK         0.0000 
@<TRIPOS>BOND
     1    1    2 1    
     2    1   37 1    
     3    1   38 1    
     4    1   39 1    
     5    2   10 ar   
     6    2    3 ar   
     7    3    4 ar   
     8    3   40 1    
     9    4    5 ar   
    10    4   41 1    
    11    5    9 ar   
    12    5    6 1    
    13    6    7 2    
    14    6   36 1    
    15    7    8 1    
    16    7   11 1    
    17    8    9 1    
    18    9   10 ar   
    19   10   42 1    
    20   11   12 2    
    21   11   13 1    
    22   13   14 1    
    23   14   19 ar   
    24   14   15 ar   
    25   15   16 ar   
    26   15   43 1    
    27   16   17 ar   
    28   16   44 1    
    29   17   23 1    
    30   17   18 ar   
    31   18   19 ar   
    32   18   20 1    
    33   19   45 1    
    34   20   21 1    
    35   21   22 2    
    36   21   35 1    
    37   22   23 1    
    38   22   33 1    
    39   23   24 1    
    40   23   25 1    
    41   25   30 ar   
    42   25   26 ar   
    43   26   27 ar   
    44   26   46 1    
    45   27   28 ar   
    46   27   47 1    
    47   28   29 ar   
    48   28   31 1    
    49   29   30 ar   
    50   29   48 1    
    51   30   49 1    
    52   31   32 1    
    53   32   50 1    
    54   32   51 1    
    55   32   52 1    
    56   33   34 3    
    57   35   53 1    
    58   35   54 1    
    59   36   55 1    
    60   36   56 1    
    61   36   57 1    
@<TRIPOS>SUBSTRUCTURE
     1 UNK         1 GROUP             0       ****    0 ROOT    
