@<TRIPOS>MOLECULE
ZINC20764563_3468
53   56    1
SMALL
USER_CHARGES


@<TRIPOS>ATOM
      1 C1          6.0406   54.8794   26.8391 C.3       1 UNK         0.0000 
      2 O2          6.6193   55.3123   25.6122 O.3       1 UNK         0.0000 
      3 C3          6.0616   54.8909   24.4190 C.ar      1 UNK         0.0000 
      4 C4          6.7044   55.2966   23.2559 C.ar      1 UNK         0.0000 
      5 C5          6.2501   54.8973   22.0047 C.ar      1 UNK         0.0000 
      6 C6          5.1107   54.0865   21.8761 C.ar      1 UNK         0.0000 
      7 C7          4.4470   53.6988   23.0528 C.ar      1 UNK         0.0000 
      8 C8          4.9136   54.0968   24.3065 C.ar      1 UNK         0.0000 
      9 C9          4.6571   53.6467   20.5233 C.2       1 UNK         0.0000 
     10 N10         5.3194   53.9931   19.4744 N.2       1 UNK         0.0000 
     11 C11         5.0004   53.5712   18.1040 C.3       1 UNK         0.0000 
     12 H12         5.8796   53.0776   17.6818 H         1 UNK         0.0000 
     13 N13         3.9045   52.4968   17.9780 N.4       1 UNK         0.0000 
     14 C14         2.8013   52.7051   19.0146 C.3       1 UNK         0.0000 
     15 H15         2.4186   53.6966   18.7746 H         1 UNK         0.0000 
     16 C16         3.4437   52.6977   20.4173 C.3       1 UNK         0.0000 
     17 C17         1.7224   51.6427   18.8035 C.ar      1 UNK         0.0000 
     18 C18         2.0462   50.2864   18.9638 C.ar      1 UNK         0.0000 
     19 C19         1.0835   49.2958   18.7775 C.ar      1 UNK         0.0000 
     20 C20        -0.2153   49.6503   18.4172 C.ar      1 UNK         0.0000 
     21 C21        -0.5494   50.9940   18.2499 C.ar      1 UNK         0.0000 
     22 C22         0.4074   51.9900   18.4468 C.ar      1 UNK         0.0000 
     23 O23         0.0228   53.2963   18.2816 O.3       1 UNK         0.0000 
     24 Cl24        1.5028   47.6346   18.9932 Cl        1 UNK         0.0000 
     25 C25         4.6157   54.7297   17.1763 C.ar      1 UNK         0.0000 
     26 C26         4.8727   54.6094   15.8076 C.ar      1 UNK         0.0000 
     27 C27         4.5092   55.6269   14.9307 C.ar      1 UNK         0.0000 
     28 C28         3.8895   56.7844   15.4132 C.ar      1 UNK         0.0000 
     29 C29         3.6505   56.9184   16.7847 C.ar      1 UNK         0.0000 
     30 C30         4.0097   55.8968   17.6601 C.ar      1 UNK         0.0000 
     31 C31         3.4670   57.8979   14.4548 C.3       1 UNK         0.0000 
     32 F32         4.0757   57.7981   13.2712 F         1 UNK         0.0000 
     33 F33         3.7515   59.0945   14.9652 F         1 UNK         0.0000 
     34 F34         2.1513   57.8198   14.2558 F         1 UNK         0.0000 
     35 H35         6.6106   55.2908   27.6725 H         1 UNK         0.0000 
     36 H36         5.0118   55.2274   26.9418 H         1 UNK         0.0000 
     37 H37         6.0623   53.7920   26.9299 H         1 UNK         0.0000 
     38 H38         7.5718   55.9326   23.3254 H         1 UNK         0.0000 
     39 H39         6.8014   55.2333   21.1373 H         1 UNK         0.0000 
     40 H40         3.5719   53.0686   23.0384 H         1 UNK         0.0000 
     41 H41         4.3804   53.7605   25.1825 H         1 UNK         0.0000 
     42 H42         3.5160   52.4922   17.0466 H         1 UNK         0.0000 
     43 H43         3.7785   51.6963   20.6891 H         1 UNK         0.0000 
     44 H44         2.6751   52.9758   21.1366 H         1 UNK         0.0000 
     45 H45         3.0543   49.9900   19.2195 H         1 UNK         0.0000 
     46 H46        -0.9628   48.8856   18.2657 H         1 UNK         0.0000 
     47 H47        -1.5561   51.2649   17.9685 H         1 UNK         0.0000 
     48 H48         0.6108   53.9298   18.7071 H         1 UNK         0.0000 
     49 H49         5.3470   53.7215   15.4137 H         1 UNK         0.0000 
     50 H50         4.7068   55.5059   13.8751 H         1 UNK         0.0000 
     51 H51         3.1799   57.8128   17.1711 H         1 UNK         0.0000 
     52 H52         3.8060   56.0133   18.7138 H         1 UNK         0.0000 
     53 H53         4.3515   51.5756   18.0818 H         1 UNK         0.0000 
@<TRIPOS>BOND
     1    1    2 1    
     2    1   35 1    
     3    1   36 1    
     4    1   37 1    
     5    2    3 1    
     6    3    8 ar   
     7    3    4 ar   
     8    4    5 ar   
     9    4   38 1    
    10    5    6 ar   
    11    5   39 1    
    12    6    7 ar   
    13    6    9 1    
    14    7    8 ar   
    15    7   40 1    
    16    8   41 1    
    17    9   16 1    
    18    9   10 2    
    19   10   11 1    
    20   11   12 1    
    21   11   13 1    
    22   11   25 1    
    23   13   14 1    
    24   13   42 1    
    25   13   53 1    
    26   14   15 1    
    27   14   16 1    
    28   14   17 1    
    29   16   43 1    
    30   16   44 1    
    31   17   22 ar   
    32   17   18 ar   
    33   18   19 ar   
    34   18   45 1    
    35   19   20 ar   
    36   19   24 1    
    37   20   21 ar   
    38   20   46 1    
    39   21   22 ar   
    40   21   47 1    
    41   22   23 1    
    42   23   48 1    
    43   25   30 ar   
    44   25   26 ar   
    45   26   27 ar   
    46   26   49 1    
    47   27   28 ar   
    48   27   50 1    
    49   28   29 ar   
    50   28   31 1    
    51   29   30 ar   
    52   29   51 1    
    53   30   52 1    
    54   31   32 1    
    55   31   33 1    
    56   31   34 1    
@<TRIPOS>SUBSTRUCTURE
     1 UNK         1 GROUP             0       ****    0 ROOT    
