ZINC25581091_2364
                    3D
 Schrodinger Suite 2024-2.
 54 56  0  0  1  0            999 V2000
    1.6962   51.5231   28.6496 C   0  0  0  0  0  0
    0.5564   52.3094   27.9728 C   0  0  0  0  0  0
    0.3034   53.6523   28.6798 C   0  0  0  0  0  0
    0.7950   52.4970   26.4743 C   0  0  0  0  0  0
    1.9803   53.0783   26.0182 C   0  0  0  0  0  0
    2.2365   53.1725   24.6549 C   0  0  0  0  0  0
    1.3116   52.6840   23.7224 C   0  0  0  0  0  0
    0.0732   52.2200   24.1851 C   0  0  0  0  0  0
   -0.1730   52.0968   25.5504 C   0  0  0  0  0  0
    1.6496   52.6539   22.2138 C   0  0  2  0  0  0
    1.1145   53.5252   21.8341 H   0  0  0  0  0  0
    1.1514   51.3855   21.4131 C   0  0  1  0  0  0
    0.0707   51.4792   21.3258 H   0  0  0  0  0  0
    1.7299   51.3705   19.9488 C   0  0  1  0  0  0
    3.1915   51.5324   20.0585 N   0  0  0  0  0  0
    3.8291   52.3550   20.9177 C   0  0  0  0  0  0
    5.0410   52.5342   20.8823 O   0  0  0  0  0  0
    3.0680   52.9218   21.8779 N   0  0  0  0  0  0
    1.3296   50.1362   19.0672 C   0  0  0  0  0  0
    1.8283   48.9858   19.5236 F   0  0  0  0  0  0
    0.0067   49.9849   18.9817 F   0  0  0  0  0  0
    1.7770   50.2655   17.8174 F   0  0  0  0  0  0
    1.1822   52.4967   19.2760 O   0  0  0  0  0  0
    1.4085   50.0614   22.1982 C   0  0  0  0  0  0
    2.5643   49.7491   22.4817 O   0  0  0  0  0  0
    0.2217   49.3430   22.7636 C   0  0  0  0  0  0
    0.3044   48.7847   24.0446 C   0  0  0  0  0  0
   -0.7705   48.0819   24.5786 C   0  0  0  0  0  0
   -1.9369   47.8996   23.8405 C   0  0  0  0  0  0
   -2.0247   48.4584   22.5570 C   0  0  0  0  0  0
   -0.9553   49.1748   22.0252 C   0  0  0  0  0  0
   -2.9377   47.1590   24.4398 O   0  0  0  0  0  0
   -4.1868   47.0132   23.7736 C   0  0  0  0  0  0
    1.8841   50.5775   28.1393 H   0  0  0  0  0  0
    1.4443   51.2971   29.6845 H   0  0  0  0  0  0
    2.6317   52.0829   28.6582 H   0  0  0  0  0  0
   -0.3446   51.7036   28.0920 H   0  0  0  0  0  0
   -0.4955   54.2030   28.1876 H   0  0  0  0  0  0
    0.0092   53.5034   29.7196 H   0  0  0  0  0  0
    1.1912   54.2856   28.6729 H   0  0  0  0  0  0
    2.7269   53.4215   26.7191 H   0  0  0  0  0  0
    3.1869   53.5787   24.3443 H   0  0  0  0  0  0
   -0.6837   51.8860   23.4915 H   0  0  0  0  0  0
   -1.1081   51.6708   25.8849 H   0  0  0  0  0  0
    3.7506   51.2238   19.2700 H   0  0  0  0  0  0
    3.5147   53.6851   22.3608 H   0  0  0  0  0  0
    1.5045   53.3124   19.6813 H   0  0  0  0  0  0
    1.1965   48.8971   24.6453 H   0  0  0  0  0  0
   -0.6972   47.6781   25.5791 H   0  0  0  0  0  0
   -2.9117   48.3407   21.9545 H   0  0  0  0  0  0
   -1.0607   49.5802   21.0322 H   0  0  0  0  0  0
   -4.8638   46.4351   24.4022 H   0  0  0  0  0  0
   -4.6567   47.9803   23.5873 H   0  0  0  0  0  0
   -4.0771   46.4800   22.8282 H   0  0  0  0  0  0
  1  2  1  0  0  0
  1 34  1  0  0  0
  1 35  1  0  0  0
  1 36  1  0  0  0
  2  3  1  0  0  0
  2  4  1  0  0  0
  2 37  1  0  0  0
  3 38  1  0  0  0
  3 39  1  0  0  0
  3 40  1  0  0  0
  4  9  2  0  0  0
  4  5  1  0  0  0
  5  6  2  0  0  0
  5 41  1  0  0  0
  6  7  1  0  0  0
  6 42  1  0  0  0
  7  8  2  0  0  0
  7 10  1  0  0  0
  8  9  1  0  0  0
  8 43  1  0  0  0
  9 44  1  0  0  0
 10 11  1  0  0  0
 10 18  1  0  0  0
 10 12  1  0  0  0
 12 13  1  0  0  0
 12 14  1  0  0  0
 12 24  1  0  0  0
 14 15  1  0  0  0
 14 19  1  0  0  0
 14 23  1  0  0  0
 15 16  1  0  0  0
 15 45  1  0  0  0
 16 17  2  0  0  0
 16 18  1  0  0  0
 18 46  1  0  0  0
 19 20  1  0  0  0
 19 21  1  0  0  0
 19 22  1  0  0  0
 23 47  1  0  0  0
 24 25  2  0  0  0
 24 26  1  0  0  0
 26 31  2  0  0  0
 26 27  1  0  0  0
 27 28  2  0  0  0
 27 48  1  0  0  0
 28 29  1  0  0  0
 28 49  1  0  0  0
 29 30  2  0  0  0
 29 32  1  0  0  0
 30 31  1  0  0  0
 30 50  1  0  0  0
 31 51  1  0  0  0
 32 33  1  0  0  0
 33 52  1  0  0  0
 33 53  1  0  0  0
 33 54  1  0  0  0
M  END
> <i_i_glide_confnum>
7

> <i_i_glide_lignum>
2365

> <i_i_glide_posenum>
337

> <i_i_glide_rotatable_bonds>
7

> <i_m_Source_File_Index>
5855

> <b_m_subgroup_collapsed>
0

> <r_i_docking_score>
-4.58619

> <r_i_glide_ecoul>
-5.44868

> <r_i_glide_eff_state_penalty>
0

> <r_i_glide_einternal>
2.64124

> <r_i_glide_emodel>
-48.2937

> <r_i_glide_energy>
-37.644

> <r_i_glide_erotb>
0.313957

> <r_i_glide_esite>
-0.212834

> <r_i_glide_evdw>
-32.1953

> <r_i_glide_gscore>
-4.58619

> <r_i_glide_hbond>
-0.414427

> <r_i_glide_ligand_efficiency>
-0.147942

> <r_i_glide_ligand_efficiency_ln>
-1.03433

> <r_i_glide_ligand_efficiency_sa>
-0.464741

> <r_i_glide_lipo>
-1.22498

> <r_i_glide_metal>
0

> <r_i_glide_rewards>
-0.620835

> <s_i_glide_gridfile>
wee1_glide-grid

> <s_m_Source_File>
wee1_decoys_glide_SP.sdf

> <s_m_Source_Path>
/Users/zhangxujun/Desktop

> <s_m_entry_id>
6130

> <s_m_entry_name>
wee1_decoys_glide_SP.5855

> <s_m_subgroup_title>
wee1_decoys_glide_SP

> <s_m_subgroupid>
wee1_decoys_glide_SP


$$$$
