@<TRIPOS>MOLECULE
ZINC13551865_407
60   63    1
SMALL
USER_CHARGES


@<TRIPOS>ATOM
      1 C1          8.3584   55.3351   20.7136 C.3       1 UNK         0.0000 
      2 S2          6.7367   56.1156   20.8717 S.3       1 UNK         0.0000 
      3 C3          5.8484   54.8986   21.8711 C.3       1 UNK         0.0000 
      4 C4          6.2917   54.7868   23.3533 C.3       1 UNK         0.0000 
      5 C5          5.1323   54.6007   24.3865 C.3       1 UNK         0.0000 
      6 H6          4.7148   55.5959   24.4868 H         1 UNK         0.0000 
      7 C7          5.5743   54.1110   25.8025 C.2       1 UNK         0.0000 
      8 O8          6.7247   53.6972   25.9287 O.2       1 UNK         0.0000 
      9 N9          4.6949   54.0951   26.8427 N.am      1 UNK         0.0000 
     10 C10         4.9659   53.3053   28.0623 C.3       1 UNK         0.0000 
     11 C11         3.6513   52.5538   28.4365 C.3       1 UNK         0.0000 
     12 C12         2.3876   53.4333   28.5546 C.3       1 UNK         0.0000 
     13 C13         2.2920   54.2235   27.2374 C.3       1 UNK         0.0000 
     14 C14         3.5663   55.0252   26.9357 C.3       1 UNK         0.0000 
     15 C15         1.1083   52.6237   28.7813 C.ar      1 UNK         0.0000 
     16 C16         0.2545   52.7901   29.8653 C.ar      1 UNK         0.0000 
     17 N17        -0.8227   51.9404   29.6899 N.pl3     1 UNK         0.0000 
     18 C18        -0.6755   51.2967   28.4819 C.ar      1 UNK         0.0000 
     19 N19         0.5288   51.6872   27.9417 N.pl3     1 UNK         0.0000 
     20 H20         0.9225   51.3482   27.0753 H         1 UNK         0.0000 
     21 C21         0.4423   53.8805   30.9006 C.3       1 UNK         0.0000 
     22 C22         1.3820   54.9480   30.2711 C.3       1 UNK         0.0000 
     23 N23         2.5909   54.3109   29.7221 N.3       1 UNK         0.0000 
     24 N24         4.1297   53.6967   23.8185 N.am      1 UNK         0.0000 
     25 C25         2.8088   53.8888   23.6863 C.2       1 UNK         0.0000 
     26 O26         2.2306   54.8964   24.0815 O.2       1 UNK         0.0000 
     27 C27         2.0413   52.7432   23.0756 C.ar      1 UNK         0.0000 
     28 C28         2.6132   51.9319   22.0816 C.ar      1 UNK         0.0000 
     29 C29         1.9037   50.8522   21.5625 C.ar      1 UNK         0.0000 
     30 C30         0.6184   50.5840   22.0257 C.ar      1 UNK         0.0000 
     31 C31         0.0284   51.3974   22.9901 C.ar      1 UNK         0.0000 
     32 C32         0.7357   52.4787   23.5094 C.ar      1 UNK         0.0000 
     33 Br33       -0.3399   49.0913   21.3350 Br        1 UNK         0.0000 
     34 H34         9.0884   56.0472   20.3268 H         1 UNK         0.0000 
     35 H35         8.7046   54.9792   21.6817 H         1 UNK         0.0000 
     36 H36         8.3043   54.4968   20.0208 H         1 UNK         0.0000 
     37 H37         5.9042   53.9264   21.3820 H         1 UNK         0.0000 
     38 H38         4.8029   55.1992   21.8052 H         1 UNK         0.0000 
     39 H39         6.8939   55.6528   23.6338 H         1 UNK         0.0000 
     40 H40         6.9817   53.9436   23.4159 H         1 UNK         0.0000 
     41 H41         5.2589   53.9849   28.8638 H         1 UNK         0.0000 
     42 H42         5.7484   52.5608   27.9018 H         1 UNK         0.0000 
     43 H43         3.8157   51.9905   29.3558 H         1 UNK         0.0000 
     44 H44         3.4420   51.8069   27.6817 H         1 UNK         0.0000 
     45 H45         2.0746   53.5544   26.4051 H         1 UNK         0.0000 
     46 H46         1.4405   54.8967   27.2876 H         1 UNK         0.0000 
     47 H47         3.7630   55.6548   27.8043 H         1 UNK         0.0000 
     48 H48         3.4756   55.6966   26.0870 H         1 UNK         0.0000 
     49 H49        -1.3350   50.5327   28.0819 H         1 UNK         0.0000 
     50 H50        -0.4956   54.3440   31.1968 H         1 UNK         0.0000 
     51 H51         0.8560   53.4986   31.8346 H         1 UNK         0.0000 
     52 H52         0.8485   55.4788   29.4805 H         1 UNK         0.0000 
     53 H53         1.6397   55.6953   31.0232 H         1 UNK         0.0000 
     54 H54         3.0776   53.7644   30.4140 H         1 UNK         0.0000 
     55 H55         4.5042   52.8204   23.4946 H         1 UNK         0.0000 
     56 H56         3.6060   52.1252   21.6994 H         1 UNK         0.0000 
     57 H57         2.3502   50.2255   20.8034 H         1 UNK         0.0000 
     58 H58        -0.9724   51.1858   23.3383 H         1 UNK         0.0000 
     59 H59         0.2689   53.0995   24.2620 H         1 UNK         0.0000 
     60 H60        -1.5665   51.7806   30.3598 H         1 UNK         0.0000 
@<TRIPOS>BOND
     1    1    2 1    
     2    1   34 1    
     3    1   35 1    
     4    1   36 1    
     5    2    3 1    
     6    3    4 1    
     7    3   37 1    
     8    3   38 1    
     9    4    5 1    
    10    4   39 1    
    11    4   40 1    
    12    5    6 1    
    13    5    7 1    
    14    5   24 1    
    15    7    8 2    
    16    7    9 am   BACKBONE|DICT|INTERRES
    17    9   14 1    
    18    9   10 1    
    19   10   11 1    
    20   10   41 1    
    21   10   42 1    
    22   11   12 1    
    23   11   43 1    
    24   11   44 1    
    25   12   23 1    
    26   12   13 1    
    27   12   15 1    
    28   13   14 1    
    29   13   45 1    
    30   13   46 1    
    31   14   47 1    
    32   14   48 1    
    33   15   19 ar   
    34   15   16 ar   
    35   16   17 ar   
    36   16   21 1    
    37   17   18 ar   
    38   17   60 1    
    39   18   19 ar   
    40   18   49 1    
    41   19   20 1    
    42   21   22 1    
    43   21   50 1    
    44   21   51 1    
    45   22   23 1    
    46   22   52 1    
    47   22   53 1    
    48   23   54 1    
    49   24   25 am   BACKBONE|DICT|INTERRES
    50   24   55 1    
    51   25   26 2    
    52   25   27 1    
    53   27   32 ar   
    54   27   28 ar   
    55   28   29 ar   
    56   28   56 1    
    57   29   30 ar   
    58   29   57 1    
    59   30   31 ar   
    60   30   33 1    
    61   31   32 ar   
    62   31   58 1    
    63   32   59 1    
@<TRIPOS>SUBSTRUCTURE
     1 UNK         1 GROUP             0       ****    0 ROOT    
