@<TRIPOS>MOLECULE
ZINC33400458_5746
77   79    1
SMALL
USER_CHARGES


@<TRIPOS>ATOM
      1 C1          7.9539   59.5571   15.7366 C.3       1 UNK         0.0000 
      2 C2          9.0407   59.1304   16.7135 C.ar      1 UNK         0.0000 
      3 C3         10.2571   59.8254   16.7032 C.ar      1 UNK         0.0000 
      4 C4         11.2854   59.4680   17.5732 C.ar      1 UNK         0.0000 
      5 C5         11.1086   58.4105   18.4595 C.ar      1 UNK         0.0000 
      6 C6          9.9034   57.7101   18.4816 C.ar      1 UNK         0.0000 
      7 C7          8.8502   58.0685   17.6226 C.ar      1 UNK         0.0000 
      8 N8          7.6214   57.3737   17.6161 N.am      1 UNK         0.0000 
      9 C9          6.9890   56.7900   18.6637 C.2       1 UNK         0.0000 
     10 O10         7.4242   56.8575   19.8154 O.2       1 UNK         0.0000 
     11 N11         5.8043   56.1684   18.3789 N.am      1 UNK         0.0000 
     12 C12         5.2776   55.9565   17.0128 C.3       1 UNK         0.0000 
     13 C13         4.1117   56.9050   16.6381 C.3       1 UNK         0.0000 
     14 C14         4.5135   58.3937   16.6091 C.3       1 UNK         0.0000 
     15 C15         3.4938   56.4896   15.2924 C.3       1 UNK         0.0000 
     16 C16         5.0330   55.5686   19.4858 C.3       1 UNK         0.0000 
     17 C17         5.2365   54.0605   19.7026 C.2       1 UNK         0.0000 
     18 O18         5.9170   53.4263   18.8963 O.2       1 UNK         0.0000 
     19 N19         4.6314   53.4786   20.7769 N.am      1 UNK         0.0000 
     20 C20         4.7311   52.0294   21.0230 C.3       1 UNK         0.0000 
     21 C21         3.6645   51.1675   20.3160 C.3       1 UNK         0.0000 
     22 C22         2.2235   51.4019   20.7546 C.ar      1 UNK         0.0000 
     23 C23         1.8443   51.2194   22.0834 C.ar      1 UNK         0.0000 
     24 C24         0.5225   51.4425   22.4679 C.ar      1 UNK         0.0000 
     25 C25        -0.4459   51.8319   21.5260 C.ar      1 UNK         0.0000 
     26 C26        -0.0753   51.9858   20.1793 C.ar      1 UNK         0.0000 
     27 C27         1.2647   51.7698   19.8103 C.ar      1 UNK         0.0000 
     28 O28        -1.0689   52.3488   19.2818 O.3       1 UNK         0.0000 
     29 C29        -0.7233   52.5761   17.9204 C.3       1 UNK         0.0000 
     30 O30        -1.7680   52.0942   21.8508 O.3       1 UNK         0.0000 
     31 C31        -2.1814   52.0179   23.2114 C.3       1 UNK         0.0000 
     32 C32         3.8887   54.2209   21.8191 C.3       1 UNK         0.0000 
     33 C33         4.5768   54.2413   23.1728 C.2       1 UNK         0.0000 
     34 C34         3.9966   54.0970   24.4430 C.2       1 UNK         0.0000 
     35 C35         4.9400   54.2298   25.4713 C.2       1 UNK         0.0000 
     36 C36         6.2325   54.4338   25.0274 C.2       1 UNK         0.0000 
     37 S37         6.3043   54.4909   23.3053 S.3       1 UNK         0.0000 
     38 C38         2.5136   53.9104   24.6838 C.3       1 UNK         0.0000 
     39 H39         7.6088   58.6982   15.1590 H         1 UNK         0.0000 
     40 H40         7.0999   59.9649   16.2773 H         1 UNK         0.0000 
     41 H41         8.3062   60.3072   15.0246 H         1 UNK         0.0000 
     42 H42        10.4096   60.6430   16.0151 H         1 UNK         0.0000 
     43 H43        12.2245   60.0066   17.5484 H         1 UNK         0.0000 
     44 H44        11.9071   58.1160   19.1246 H         1 UNK         0.0000 
     45 H45         9.8078   56.8844   19.1715 H         1 UNK         0.0000 
     46 H46         7.1214   57.3943   16.7416 H         1 UNK         0.0000 
     47 H47         6.0620   56.0241   16.2569 H         1 UNK         0.0000 
     48 H48         4.9136   54.9308   16.9538 H         1 UNK         0.0000 
     49 H49         3.3281   56.7846   17.3877 H         1 UNK         0.0000 
     50 H50         5.2355   58.5995   15.8192 H         1 UNK         0.0000 
     51 H51         3.6452   59.0326   16.4282 H         1 UNK         0.0000 
     52 H52         4.9549   58.7198   17.5519 H         1 UNK         0.0000 
     53 H53         4.2089   56.5909   14.4759 H         1 UNK         0.0000 
     54 H54         3.1607   55.4499   15.3130 H         1 UNK         0.0000 
     55 H55         2.6259   57.1029   15.0522 H         1 UNK         0.0000 
     56 H56         5.2359   56.0962   20.4168 H         1 UNK         0.0000 
     57 H57         3.9715   55.6973   19.2778 H         1 UNK         0.0000 
     58 H58         5.6966   51.6968   20.6405 H         1 UNK         0.0000 
     59 H59         4.7720   51.7871   22.0818 H         1 UNK         0.0000 
     60 H60         3.7579   51.2987   19.2407 H         1 UNK         0.0000 
     61 H61         3.8915   50.1164   20.4856 H         1 UNK         0.0000 
     62 H62         2.5707   50.9152   22.8245 H         1 UNK         0.0000 
     63 H63         0.2702   51.3045   23.5098 H         1 UNK         0.0000 
     64 H64         1.5798   51.8874   18.7826 H         1 UNK         0.0000 
     65 H65        -1.6116   52.8814   17.3686 H         1 UNK         0.0000 
     66 H66         0.0151   53.3734   17.8218 H         1 UNK         0.0000 
     67 H67        -0.3410   51.6704   17.4491 H         1 UNK         0.0000 
     68 H68        -3.2392   52.2691   23.2794 H         1 UNK         0.0000 
     69 H69        -2.0537   51.0093   23.6118 H         1 UNK         0.0000 
     70 H70        -1.6327   52.7260   23.8375 H         1 UNK         0.0000 
     71 H71         3.6879   55.2579   21.5438 H         1 UNK         0.0000 
     72 H72         2.8974   53.7757   21.8926 H         1 UNK         0.0000 
     73 H73         4.6829   54.1659   26.5192 H         1 UNK         0.0000 
     74 H74         7.1248   54.5437   25.6208 H         1 UNK         0.0000 
     75 H75         2.2271   54.0972   25.7190 H         1 UNK         0.0000 
     76 H76         1.9267   54.5951   24.0709 H         1 UNK         0.0000 
     77 H77         2.1872   52.9070   24.4135 H         1 UNK         0.0000 
@<TRIPOS>BOND
     1    1    2 1    
     2    1   39 1    
     3    1   40 1    
     4    1   41 1    
     5    2    7 ar   
     6    2    3 ar   
     7    3    4 ar   
     8    3   42 1    
     9    4    5 ar   
    10    4   43 1    
    11    5    6 ar   
    12    5   44 1    
    13    6    7 ar   
    14    6   45 1    
    15    7    8 1    
    16    8    9 am   BACKBONE|DICT|INTERRES
    17    8   46 1    
    18    9   10 2    
    19    9   11 am   BACKBONE|DICT|INTERRES
    20   11   12 1    
    21   11   16 1    
    22   12   13 1    
    23   12   47 1    
    24   12   48 1    
    25   13   14 1    
    26   13   15 1    
    27   13   49 1    
    28   14   50 1    
    29   14   51 1    
    30   14   52 1    
    31   15   53 1    
    32   15   54 1    
    33   15   55 1    
    34   16   17 1    
    35   16   56 1    
    36   16   57 1    
    37   17   18 2    
    38   17   19 am   BACKBONE|DICT|INTERRES
    39   19   20 1    
    40   19   32 1    
    41   20   21 1    
    42   20   58 1    
    43   20   59 1    
    44   21   22 1    
    45   21   60 1    
    46   21   61 1    
    47   22   27 ar   
    48   22   23 ar   
    49   23   24 ar   
    50   23   62 1    
    51   24   25 ar   
    52   24   63 1    
    53   25   26 ar   
    54   25   30 1    
    55   26   27 ar   
    56   26   28 1    
    57   27   64 1    
    58   28   29 1    
    59   29   65 1    
    60   29   66 1    
    61   29   67 1    
    62   30   31 1    
    63   31   68 1    
    64   31   69 1    
    65   31   70 1    
    66   32   33 1    
    67   32   71 1    
    68   32   72 1    
    69   33   37 1    
    70   33   34 2    
    71   34   35 1    
    72   34   38 1    
    73   35   36 2    
    74   35   73 1    
    75   36   37 1    
    76   36   74 1    
    77   38   75 1    
    78   38   76 1    
    79   38   77 1    
@<TRIPOS>SUBSTRUCTURE
     1 UNK         1 GROUP             0       ****    0 ROOT    
