@<TRIPOS>MOLECULE
ZINC40313382_1898
32   33    1
SMALL
USER_CHARGES


@<TRIPOS>ATOM
      1 C1          6.8471   53.8453   28.0817 C.3       1 UNK         0.0000 
      2 C2          5.5210   53.8815   27.3519 C.2       1 UNK         0.0000 
      3 C3          5.3571   54.4768   26.0887 C.2       1 UNK         0.0000 
      4 S4          3.7199   54.3355   25.5366 S.3       1 UNK         0.0000 
      5 C5          3.2464   53.5339   26.9833 C.2       1 UNK         0.0000 
      6 C6          4.3102   53.3657   27.8760 C.2       1 UNK         0.0000 
      7 C7          4.2003   52.6614   29.1546 C.1       1 UNK         0.0000 
      8 N8          4.1031   52.0967   30.1612 N.1       1 UNK         0.0000 
      9 N9          1.9472   53.0650   27.0317 N.am      1 UNK         0.0000 
     10 C10         1.1033   53.2268   28.0702 C.2       1 UNK         0.0000 
     11 O11         1.3556   53.9151   29.0632 O.2       1 UNK         0.0000 
     12 C12        -0.2175   52.4967   27.9360 C.ar      1 UNK         0.0000 
     13 C13        -0.7978   52.3225   26.6641 C.ar      1 UNK         0.0000 
     14 C14        -2.0162   51.6683   26.5078 C.ar      1 UNK         0.0000 
     15 C15        -2.6741   51.1560   27.6189 C.ar      1 UNK         0.0000 
     16 C16        -2.1074   51.2967   28.8818 C.ar      1 UNK         0.0000 
     17 C17        -0.8956   51.9676   29.0580 C.ar      1 UNK         0.0000 
     18 N18        -0.4197   52.0967   30.3673 N.pl3     1 UNK         0.0000 
     19 Cl19       -4.1876   50.3488   27.4325 Cl        1 UNK         0.0000 
     20 C20         6.3737   55.1557   25.1956 C.3       1 UNK         0.0000 
     21 H21         7.5683   54.5648   27.6977 H         1 UNK         0.0000 
     22 H22         6.7277   54.0967   29.1353 H         1 UNK         0.0000 
     23 H23         7.2990   52.8539   28.0539 H         1 UNK         0.0000 
     24 H24         1.5415   52.7758   26.1563 H         1 UNK         0.0000 
     25 H25        -0.3272   52.7113   25.7727 H         1 UNK         0.0000 
     26 H26        -2.4485   51.5540   25.5248 H         1 UNK         0.0000 
     27 H27        -2.6148   50.8675   29.7345 H         1 UNK         0.0000 
     28 H28        -0.9353   51.7056   31.1531 H         1 UNK         0.0000 
     29 H29         0.4019   52.6662   30.5210 H         1 UNK         0.0000 
     30 H30         7.4007   54.8967   25.4479 H         1 UNK         0.0000 
     31 H31         6.2410   54.8731   24.1507 H         1 UNK         0.0000 
     32 H32         6.2880   56.2409   25.2446 H         1 UNK         0.0000 
@<TRIPOS>BOND
     1    1    2 1    
     2    1   21 1    
     3    1   22 1    
     4    1   23 1    
     5    2    6 1    
     6    2    3 2    
     7    3    4 1    
     8    3   20 1    
     9    4    5 1    
    10    5    6 2    
    11    5    9 am   BACKBONE|DICT|INTERRES
    12    6    7 1    
    13    7    8 3    
    14    9   10 am   BACKBONE|DICT|INTERRES
    15    9   24 1    
    16   10   11 2    
    17   10   12 1    
    18   12   17 ar   
    19   12   13 ar   
    20   13   14 ar   
    21   13   25 1    
    22   14   15 ar   
    23   14   26 1    
    24   15   16 ar   
    25   15   19 1    
    26   16   17 ar   
    27   16   27 1    
    28   17   18 1    
    29   18   28 1    
    30   18   29 1    
    31   20   30 1    
    32   20   31 1    
    33   20   32 1    
@<TRIPOS>SUBSTRUCTURE
     1 UNK         1 GROUP             0       ****    0 ROOT    
