@<TRIPOS>MOLECULE
ZINC15229954_2963
53   55    1
SMALL
USER_CHARGES


@<TRIPOS>ATOM
      1 C1          4.8058   53.1130   19.7732 C.3       1 UNK         0.0000 
      2 C2          3.5889   52.2818   20.1272 C.ar      1 UNK         0.0000 
      3 C3          3.6838   51.2977   21.1136 C.ar      1 UNK         0.0000 
      4 C4          2.5753   50.5175   21.4255 C.ar      1 UNK         0.0000 
      5 C5          1.3690   50.7296   20.7532 C.ar      1 UNK         0.0000 
      6 C6          1.2788   51.7022   19.7584 C.ar      1 UNK         0.0000 
      7 C7          2.3886   52.4801   19.4473 C.ar      1 UNK         0.0000 
      8 S8         -0.0628   49.7398   21.1605 S.o2      1 UNK         0.0000 
      9 O9          0.2206   48.3923   20.6586 O.2       1 UNK         0.0000 
     10 O10        -1.2514   50.4761   20.7127 O.2       1 UNK         0.0000 
     11 N11        -0.1048   49.6429   22.9208 N.pl3     1 UNK         0.0000 
     12 C12        -0.8193   50.6365   23.7525 C.3       1 UNK         0.0000 
     13 H13        -1.5422   51.1389   23.1069 H         1 UNK         0.0000 
     14 C14        -1.6409   49.8884   24.8420 C.3       1 UNK         0.0000 
     15 C15        -2.6399   50.7638   25.6154 C.2       1 UNK         0.0000 
     16 O16        -3.1749   51.7250   25.0520 O.2       1 UNK         0.0000 
     17 N17        -2.8957   50.3905   26.8866 N.am      1 UNK         0.0000 
     18 N18        -3.8702   50.9679   27.6242 N.2       1 UNK         0.0000 
     19 C19        -3.9697   50.4735   28.7942 C.2       1 UNK         0.0000 
     20 C20        -4.9970   50.8781   29.7637 C.ar      1 UNK         0.0000 
     21 C21        -6.0820   51.6953   29.4086 C.ar      1 UNK         0.0000 
     22 C22        -7.0274   52.0742   30.3599 C.ar      1 UNK         0.0000 
     23 C23        -6.8964   51.6352   31.6754 C.ar      1 UNK         0.0000 
     24 C24        -5.8366   50.8117   32.0389 C.ar      1 UNK         0.0000 
     25 C25        -4.8916   50.4342   31.0871 C.ar      1 UNK         0.0000 
     26 Br26       -8.1577   52.1847   32.9922 Br        1 UNK         0.0000 
     27 C27         0.1487   51.7272   24.2286 C.ar      1 UNK         0.0000 
     28 C28         0.5847   52.6909   23.3129 C.ar      1 UNK         0.0000 
     29 C29         1.4985   53.6699   23.6913 C.ar      1 UNK         0.0000 
     30 C30         1.9663   53.6969   25.0003 C.ar      1 UNK         0.0000 
     31 C31         1.5087   52.7743   25.9365 C.ar      1 UNK         0.0000 
     32 C32         0.6147   51.7810   25.5490 C.ar      1 UNK         0.0000 
     33 H33         5.6978   52.4839   19.7409 H         1 UNK         0.0000 
     34 H34         4.7098   53.5625   18.7799 H         1 UNK         0.0000 
     35 H35         4.9648   53.9048   20.5104 H         1 UNK         0.0000 
     36 H36         4.6160   51.1401   21.6367 H         1 UNK         0.0000 
     37 H37         2.6516   49.7557   22.1876 H         1 UNK         0.0000 
     38 H38         0.3525   51.8652   19.2284 H         1 UNK         0.0000 
     39 H39         2.3113   53.2382   18.6811 H         1 UNK         0.0000 
     40 H40         0.2663   48.8035   23.3753 H         1 UNK         0.0000 
     41 H41        -0.9790   49.3595   25.5295 H         1 UNK         0.0000 
     42 H42        -2.2398   49.1155   24.3600 H         1 UNK         0.0000 
     43 H43        -2.4088   49.6180   27.3319 H         1 UNK         0.0000 
     44 H44        -3.2959   49.7006   29.1637 H         1 UNK         0.0000 
     45 H45        -6.1979   52.0451   28.3928 H         1 UNK         0.0000 
     46 H46        -7.8558   52.7085   30.0799 H         1 UNK         0.0000 
     47 H47        -5.7255   50.4831   33.0618 H         1 UNK         0.0000 
     48 H48        -4.0597   49.8110   31.3960 H         1 UNK         0.0000 
     49 H49         0.2217   52.6833   22.2972 H         1 UNK         0.0000 
     50 H50         1.8434   54.3993   22.9713 H         1 UNK         0.0000 
     51 H51         2.6806   54.4509   25.2992 H         1 UNK         0.0000 
     52 H52         1.8680   52.8084   26.9542 H         1 UNK         0.0000 
     53 H53         0.3007   51.0580   26.2873 H         1 UNK         0.0000 
@<TRIPOS>BOND
     1    1    2 1    
     2    1   33 1    
     3    1   34 1    
     4    1   35 1    
     5    2    7 ar   
     6    2    3 ar   
     7    3    4 ar   
     8    3   36 1    
     9    4    5 ar   
    10    4   37 1    
    11    5    6 ar   
    12    5    8 1    
    13    6    7 ar   
    14    6   38 1    
    15    7   39 1    
    16    8    9 2    
    17    8   10 2    
    18    8   11 1    
    19   11   12 1    
    20   11   40 1    
    21   12   13 1    
    22   12   14 1    
    23   12   27 1    
    24   14   15 1    
    25   14   41 1    
    26   14   42 1    
    27   15   16 2    
    28   15   17 am   BACKBONE|DICT|INTERRES
    29   17   18 1    
    30   17   43 1    
    31   18   19 2    
    32   19   20 1    
    33   19   44 1    
    34   20   25 ar   
    35   20   21 ar   
    36   21   22 ar   
    37   21   45 1    
    38   22   23 ar   
    39   22   46 1    
    40   23   24 ar   
    41   23   26 1    
    42   24   25 ar   
    43   24   47 1    
    44   25   48 1    
    45   27   32 ar   
    46   27   28 ar   
    47   28   29 ar   
    48   28   49 1    
    49   29   30 ar   
    50   29   50 1    
    51   30   31 ar   
    52   30   51 1    
    53   31   32 ar   
    54   31   52 1    
    55   32   53 1    
@<TRIPOS>SUBSTRUCTURE
     1 UNK         1 GROUP             0       ****    0 ROOT    
