@<TRIPOS>MOLECULE
ZINC39684600_789
74   77    1
SMALL
USER_CHARGES


@<TRIPOS>ATOM
      1 C1         -0.3037   48.0628   16.6795 C.3       1 UNK         0.0000 
      2 C2         -0.3533   48.7195   18.0454 C.ar      1 UNK         0.0000 
      3 C3         -1.3055   49.7054   18.3085 C.ar      1 UNK         0.0000 
      4 C4         -1.3193   50.3449   19.5466 C.ar      1 UNK         0.0000 
      5 C5         -0.3931   49.9900   20.5266 C.ar      1 UNK         0.0000 
      6 C6          0.5535   48.9888   20.2632 C.ar      1 UNK         0.0000 
      7 C7          0.5741   48.3544   19.0258 C.ar      1 UNK         0.0000 
      8 O8         -0.3815   50.7135   21.7021 O.3       1 UNK         0.0000 
      9 C9         -0.2013   50.1382   22.9499 C.ar      1 UNK         0.0000 
     10 C10         0.3513   50.8925   24.0055 C.ar      1 UNK         0.0000 
     11 C11         0.3508   50.3176   25.2855 C.ar      1 UNK         0.0000 
     12 C12        -0.1030   49.0142   25.4720 C.ar      1 UNK         0.0000 
     13 C13        -0.5702   48.3116   24.3645 C.ar      1 UNK         0.0000 
     14 N14        -0.6307   48.8505   23.1202 N.ar      1 UNK         0.0000 
     15 C15         0.8733   52.3007   23.8306 C.2       1 UNK         0.0000 
     16 O16         0.5006   53.1669   24.6221 O.2       1 UNK         0.0000 
     17 N17         1.7536   52.5903   22.8401 N.am      1 UNK         0.0000 
     18 C18         2.1994   53.9689   22.6225 C.3       1 UNK         0.0000 
     19 C19         3.4428   53.8424   21.7290 C.3       1 UNK         0.0000 
     20 H20         3.4154   54.6654   21.0247 H         1 UNK         0.0000 
     21 C21         3.3044   52.4748   20.9931 C.3       1 UNK         0.0000 
     22 C22         2.4804   51.6299   21.9989 C.3       1 UNK         0.0000 
     23 C23         2.3951   52.5335   19.7211 C.3       1 UNK         0.0000 
     24 C24         2.9650   53.4324   18.6032 C.3       1 UNK         0.0000 
     25 N25         4.3566   52.8968   18.2108 N.4       1 UNK         0.0000 
     26 C26         5.3100   52.6628   19.4003 C.3       1 UNK         0.0000 
     27 C27         4.5987   51.7934   20.4810 C.3       1 UNK         0.0000 
     28 C28         4.7886   54.0961   22.4609 C.2       1 UNK         0.0000 
     29 O29         5.7240   54.5637   21.8226 O.2       1 UNK         0.0000 
     30 N30         4.8658   53.8403   23.7786 N.am      1 UNK         0.0000 
     31 C31         5.9308   54.1845   24.7536 C.3       1 UNK         0.0000 
     32 H32         6.5549   53.2972   24.8495 H         1 UNK         0.0000 
     33 C33         6.8852   55.3146   24.2850 C.3       1 UNK         0.0000 
     34 C34         5.3057   54.4874   26.1678 C.3       1 UNK         0.0000 
     35 C35         6.3504   54.9274   27.2241 C.3       1 UNK         0.0000 
     36 C36         4.5849   53.2690   26.7501 C.3       1 UNK         0.0000 
     37 C37         4.2302   55.5629   26.0141 C.3       1 UNK         0.0000 
     38 H38        -0.4619   48.8061   15.8945 H         1 UNK         0.0000 
     39 H39         0.6666   47.6123   16.4820 H         1 UNK         0.0000 
     40 H40        -1.0732   47.2962   16.5922 H         1 UNK         0.0000 
     41 H41        -2.0229   49.9901   17.5509 H         1 UNK         0.0000 
     42 H42        -2.0360   51.1257   19.7433 H         1 UNK         0.0000 
     43 H43         1.2903   48.7355   21.0135 H         1 UNK         0.0000 
     44 H44         1.3297   47.6081   18.8254 H         1 UNK         0.0000 
     45 H45         0.7103   50.8724   26.1430 H         1 UNK         0.0000 
     46 H46        -0.0941   48.5577   26.4581 H         1 UNK         0.0000 
     47 H47        -0.9343   47.3019   24.4772 H         1 UNK         0.0000 
     48 H48         2.4010   54.5434   23.5297 H         1 UNK         0.0000 
     49 H49         1.4198   54.4989   22.0817 H         1 UNK         0.0000 
     50 H50         1.9143   50.8506   21.5065 H         1 UNK         0.0000 
     51 H51         3.1055   51.0849   22.6913 H         1 UNK         0.0000 
     52 H52         1.4040   52.8970   19.9866 H         1 UNK         0.0000 
     53 H53         2.2050   51.5300   19.3306 H         1 UNK         0.0000 
     54 H54         3.1022   54.4778   18.8828 H         1 UNK         0.0000 
     55 H55         2.3615   53.3944   17.6959 H         1 UNK         0.0000 
     56 H56         4.7935   53.5071   17.5339 H         1 UNK         0.0000 
     57 H57         5.5955   53.6635   19.7028 H         1 UNK         0.0000 
     58 H58         6.2017   52.1764   18.9951 H         1 UNK         0.0000 
     59 H59         4.3708   50.8036   20.0815 H         1 UNK         0.0000 
     60 H60         5.2845   51.6145   21.3086 H         1 UNK         0.0000 
     61 H61         4.0694   53.3756   24.1869 H         1 UNK         0.0000 
     62 H62         7.5916   55.6040   25.0514 H         1 UNK         0.0000 
     63 H63         7.5045   54.9928   23.4469 H         1 UNK         0.0000 
     64 H64         6.3489   56.2154   24.0019 H         1 UNK         0.0000 
     65 H65         6.7162   55.9380   27.0444 H         1 UNK         0.0000 
     66 H66         5.9218   54.9400   28.2287 H         1 UNK         0.0000 
     67 H67         7.2095   54.2555   27.2522 H         1 UNK         0.0000 
     68 H68         3.8094   52.8956   26.0841 H         1 UNK         0.0000 
     69 H69         5.3154   52.4890   26.9231 H         1 UNK         0.0000 
     70 H70         4.1076   53.4831   27.7079 H         1 UNK         0.0000 
     71 H71         3.4652   55.2941   25.2908 H         1 UNK         0.0000 
     72 H72         3.6869   55.6967   26.9476 H         1 UNK         0.0000 
     73 H73         4.7043   56.4866   25.6818 H         1 UNK         0.0000 
     74 H74         4.2610   51.9922   17.7582 H         1 UNK         0.0000 
@<TRIPOS>BOND
     1    1    2 1    
     2    1   38 1    
     3    1   39 1    
     4    1   40 1    
     5    2    7 ar   
     6    2    3 ar   
     7    3    4 ar   
     8    3   41 1    
     9    4    5 ar   
    10    4   42 1    
    11    5    6 ar   
    12    5    8 1    
    13    6    7 ar   
    14    6   43 1    
    15    7   44 1    
    16    8    9 1    
    17    9   14 ar   
    18    9   10 ar   
    19   10   11 ar   
    20   10   15 1    
    21   11   12 ar   
    22   11   45 1    
    23   12   13 ar   
    24   12   46 1    
    25   13   14 ar   
    26   13   47 1    
    27   15   16 2    
    28   15   17 am   BACKBONE|DICT|INTERRES
    29   17   22 1    
    30   17   18 1    
    31   18   19 1    
    32   18   48 1    
    33   18   49 1    
    34   19   20 1    
    35   19   21 1    
    36   19   28 1    
    37   21   27 1    
    38   21   22 1    
    39   21   23 1    
    40   22   50 1    
    41   22   51 1    
    42   23   24 1    
    43   23   52 1    
    44   23   53 1    
    45   24   25 1    
    46   24   54 1    
    47   24   55 1    
    48   25   26 1    
    49   25   56 1    
    50   25   74 1    
    51   26   27 1    
    52   26   57 1    
    53   26   58 1    
    54   27   59 1    
    55   27   60 1    
    56   28   29 2    
    57   28   30 am   BACKBONE|DICT|INTERRES
    58   30   31 1    
    59   30   61 1    
    60   31   32 1    
    61   31   33 1    
    62   31   34 1    
    63   33   62 1    
    64   33   63 1    
    65   33   64 1    
    66   34   35 1    
    67   34   36 1    
    68   34   37 1    
    69   35   65 1    
    70   35   66 1    
    71   35   67 1    
    72   36   68 1    
    73   36   69 1    
    74   36   70 1    
    75   37   71 1    
    76   37   72 1    
    77   37   73 1    
@<TRIPOS>SUBSTRUCTURE
     1 UNK         1 GROUP             0       ****    0 ROOT    
