@<TRIPOS>MOLECULE
ZINC27500571_2764
54   57    1
SMALL
USER_CHARGES


@<TRIPOS>ATOM
      1 C1         -1.8513   50.3797   23.2705 C.3       1 UNK         0.0000 
      2 C2         -1.3155   50.9058   24.5892 C.ar      1 UNK         0.0000 
      3 C3         -0.2177   50.2886   25.1912 C.ar      1 UNK         0.0000 
      4 C4          0.2767   50.7789   26.3966 C.ar      1 UNK         0.0000 
      5 C5         -0.3134   51.8952   26.9917 C.ar      1 UNK         0.0000 
      6 C6         -1.4229   52.4967   26.4017 C.ar      1 UNK         0.0000 
      7 C7         -1.9175   52.0101   25.1951 C.ar      1 UNK         0.0000 
      8 S8          0.3505   52.5002   28.5426 S.o2      1 UNK         0.0000 
      9 O9          0.5568   51.3025   29.3462 O.2       1 UNK         0.0000 
     10 O10        -0.4836   53.6034   29.0178 O.2       1 UNK         0.0000 
     11 N11         1.9410   53.1506   28.1584 N.pl3     1 UNK         0.0000 
     12 C12         2.1593   54.6100   28.0775 C.3       1 UNK         0.0000 
     13 C13         3.3601   55.0282   28.9379 C.3       1 UNK         0.0000 
     14 C14         4.6873   54.2362   28.7244 C.3       1 UNK         0.0000 
     15 C15         4.3383   52.7309   28.8710 C.3       1 UNK         0.0000 
     16 C16         3.1015   52.2369   28.0862 C.3       1 UNK         0.0000 
     17 C17         5.3310   54.4969   27.3290 C.2       1 UNK         0.0000 
     18 O18         6.4974   54.8956   27.2778 O.2       1 UNK         0.0000 
     19 N19         4.5829   54.2708   26.2293 N.am      1 UNK         0.0000 
     20 N20         5.0075   54.4619   24.9632 N.2       1 UNK         0.0000 
     21 C21         4.1323   54.0967   24.1183 C.2       1 UNK         0.0000 
     22 C22         4.3744   54.0965   22.6785 C.ar      1 UNK         0.0000 
     23 C23         3.5149   53.5894   21.7205 C.ar      1 UNK         0.0000 
     24 N24         4.0360   53.7443   20.4625 N.pl3     1 UNK         0.0000 
     25 H25         3.5520   53.4433   19.6284 H         1 UNK         0.0000 
     26 C26         5.2481   54.3864   20.5395 C.ar      1 UNK         0.0000 
     27 C27         5.5080   54.5999   21.9298 C.ar      1 UNK         0.0000 
     28 C28         6.7136   55.2345   22.2824 C.ar      1 UNK         0.0000 
     29 C29         7.5983   55.6358   21.2825 C.ar      1 UNK         0.0000 
     30 C30         7.3098   55.4189   19.9380 C.ar      1 UNK         0.0000 
     31 C31         6.1324   54.7915   19.5327 C.ar      1 UNK         0.0000 
     32 H32        -1.0657   49.8942   22.6908 H         1 UNK         0.0000 
     33 H33        -2.6550   49.6645   23.4447 H         1 UNK         0.0000 
     34 H34        -2.2363   51.1927   22.6544 H         1 UNK         0.0000 
     35 H35         0.2445   49.4216   24.7405 H         1 UNK         0.0000 
     36 H36         1.1041   50.2785   26.8775 H         1 UNK         0.0000 
     37 H37        -1.9033   53.3365   26.8794 H         1 UNK         0.0000 
     38 H38        -2.7734   52.4848   24.7390 H         1 UNK         0.0000 
     39 H39         1.2619   55.1334   28.4076 H         1 UNK         0.0000 
     40 H40         2.2847   54.8874   27.0333 H         1 UNK         0.0000 
     41 H41         3.0883   54.9189   29.9878 H         1 UNK         0.0000 
     42 H42         3.5044   56.0967   28.9087 H         1 UNK         0.0000 
     43 H43         5.4488   54.5493   29.4417 H         1 UNK         0.0000 
     44 H44         5.2173   52.1123   28.6836 H         1 UNK         0.0000 
     45 H45         4.2077   52.5283   29.9351 H         1 UNK         0.0000 
     46 H46         2.7974   51.2557   28.4430 H         1 UNK         0.0000 
     47 H47         3.3218   52.1063   27.0345 H         1 UNK         0.0000 
     48 H48         3.6467   53.9076   26.3214 H         1 UNK         0.0000 
     49 H49         3.1395   53.7258   24.3727 H         1 UNK         0.0000 
     50 H50         2.5470   53.1209   21.8297 H         1 UNK         0.0000 
     51 H51         6.9623   55.4061   23.3193 H         1 UNK         0.0000 
     52 H52         8.5361   56.0966   21.5598 H         1 UNK         0.0000 
     53 H53         8.0255   55.7330   19.1921 H         1 UNK         0.0000 
     54 H54         5.9247   54.6201   18.4864 H         1 UNK         0.0000 
@<TRIPOS>BOND
     1    1    2 1    
     2    1   32 1    
     3    1   33 1    
     4    1   34 1    
     5    2    7 ar   
     6    2    3 ar   
     7    3    4 ar   
     8    3   35 1    
     9    4    5 ar   
    10    4   36 1    
    11    5    6 ar   
    12    5    8 1    
    13    6    7 ar   
    14    6   37 1    
    15    7   38 1    
    16    8    9 2    
    17    8   10 2    
    18    8   11 1    
    19   11   16 1    
    20   11   12 1    
    21   12   13 1    
    22   12   39 1    
    23   12   40 1    
    24   13   14 1    
    25   13   41 1    
    26   13   42 1    
    27   14   15 1    
    28   14   17 1    
    29   14   43 1    
    30   15   16 1    
    31   15   44 1    
    32   15   45 1    
    33   16   46 1    
    34   16   47 1    
    35   17   18 2    
    36   17   19 am   BACKBONE|DICT|INTERRES
    37   19   20 1    
    38   19   48 1    
    39   20   21 2    
    40   21   22 1    
    41   21   49 1    
    42   22   27 ar   
    43   22   23 ar   
    44   23   24 ar   
    45   23   50 1    
    46   24   25 1    
    47   24   26 ar   
    48   26   31 ar   
    49   26   27 ar   
    50   27   28 ar   
    51   28   29 ar   
    52   28   51 1    
    53   29   30 ar   
    54   29   52 1    
    55   30   31 ar   
    56   30   53 1    
    57   31   54 1    
@<TRIPOS>SUBSTRUCTURE
     1 UNK         1 GROUP             0       ****    0 ROOT    
