ZINC12379053_1880
                    3D
 Schrodinger Suite 2024-2.
 44 47  0  0  1  0            999 V2000
   -3.2756   51.2871   26.1797 C   0  0  0  0  0  0
   -2.5506   50.5797   25.0250 C   0  0  0  0  0  0
   -1.3188   51.3778   24.5570 C   0  0  0  0  0  0
   -0.5133   51.8243   25.7699 C   0  0  0  0  0  0
   -0.9683   51.8315   27.1023 C   0  0  0  0  0  0
   -0.0037   52.3835   27.9998 C   0  0  0  0  0  0
    1.1480   52.7916   27.2986 C   0  0  0  0  0  0
    1.0674   52.4967   25.6005 S   0  0  0  0  0  0
    2.3349   53.3406   27.7451 N   0  0  0  0  0  0
    3.1245   52.7395   28.6573 C   0  0  0  0  0  0
    2.8286   51.6967   29.2461 O   0  0  0  0  0  0
    4.4947   53.3701   28.9600 C   0  0  2  0  0  0
    4.7044   53.0179   29.9686 H   0  0  0  0  0  0
    4.5984   54.8967   28.9187 C   0  0  0  0  0  0
    5.7888   55.1467   27.9447 C   0  0  2  0  0  0
    6.3044   56.0967   28.0817 H   0  0  0  0  0  0
    5.3552   54.8967   26.4928 C   0  0  0  0  0  0
    5.2946   53.3731   26.4817 C   0  0  0  0  0  0
    5.6091   52.9990   27.9521 C   0  0  1  0  0  0
    6.0075   52.0277   28.1008 H   0  0  0  0  0  0
    6.7026   53.9914   28.2444 C   0  0  0  0  0  0
   -0.1905   52.6150   29.4246 C   0  0  0  0  0  0
    0.2829   53.5915   30.0033 O   0  0  0  0  0  0
   -0.8956   51.6967   30.0817 N   0  0  0  0  0  0
   -2.3940   51.3696   27.4440 C   0  0  0  0  0  0
   -4.2017   50.7613   26.4162 H   0  0  0  0  0  0
   -3.5696   52.2905   25.8671 H   0  0  0  0  0  0
   -2.2451   49.5817   25.3464 H   0  0  0  0  0  0
   -3.2330   50.4313   24.1872 H   0  0  0  0  0  0
   -0.7159   50.7722   23.8792 H   0  0  0  0  0  0
   -1.6505   52.2521   23.9957 H   0  0  0  0  0  0
    2.7414   54.0825   27.1969 H   0  0  0  0  0  0
    3.6945   55.4094   28.5875 H   0  0  0  0  0  0
    4.8523   55.2848   29.9044 H   0  0  0  0  0  0
    4.3962   55.3560   26.2514 H   0  0  0  0  0  0
    6.0958   55.2700   25.7835 H   0  0  0  0  0  0
    6.0791   52.9967   25.8293 H   0  0  0  0  0  0
    4.3526   52.9760   26.1077 H   0  0  0  0  0  0
    7.0642   53.9732   29.2749 H   0  0  0  0  0  0
    7.5612   53.9231   27.5740 H   0  0  0  0  0  0
   -1.2237   50.8601   29.6165 H   0  0  0  0  0  0
   -1.0304   51.7788   31.0855 H   0  0  0  0  0  0
   -2.8700   52.0318   28.1633 H   0  0  0  0  0  0
   -2.3652   50.3953   27.9247 H   0  0  0  0  0  0
  1 25  1  0  0  0
  1  2  1  0  0  0
  1 26  1  0  0  0
  1 27  1  0  0  0
  2  3  1  0  0  0
  2 28  1  0  0  0
  2 29  1  0  0  0
  3  4  1  0  0  0
  3 30  1  0  0  0
  3 31  1  0  0  0
  4  8  1  0  0  0
  4  5  2  0  0  0
  5  6  1  0  0  0
  5 25  1  0  0  0
  6  7  2  0  0  0
  6 22  1  0  0  0
  7  8  1  0  0  0
  7  9  1  0  0  0
  9 10  1  0  0  0
  9 32  1  0  0  0
 10 11  2  0  0  0
 10 12  1  0  0  0
 12 13  1  0  0  0
 12 19  1  0  0  0
 12 14  1  0  0  0
 14 15  1  0  0  0
 14 33  1  0  0  0
 14 34  1  0  0  0
 15 16  1  0  0  0
 15 21  1  0  0  0
 15 17  1  0  0  0
 17 18  1  0  0  0
 17 35  1  0  0  0
 17 36  1  0  0  0
 18 19  1  0  0  0
 18 37  1  0  0  0
 18 38  1  0  0  0
 19 20  1  0  0  0
 19 21  1  0  0  0
 21 39  1  0  0  0
 21 40  1  0  0  0
 22 23  2  0  0  0
 22 24  1  0  0  0
 24 41  1  0  0  0
 24 42  1  0  0  0
 25 43  1  0  0  0
 25 44  1  0  0  0
M  END
> <i_i_glide_confnum>
26

> <i_i_glide_lignum>
1881

> <i_i_glide_posenum>
342

> <i_i_glide_rotatable_bonds>
4

> <i_m_Source_File_Index>
1463

> <b_m_subgroup_collapsed>
0

> <r_i_docking_score>
-5.11103

> <r_i_glide_ecoul>
-5.44234

> <r_i_glide_eff_state_penalty>
0

> <r_i_glide_einternal>
15.0275

> <r_i_glide_emodel>
-30.1578

> <r_i_glide_energy>
-24.3917

> <r_i_glide_erotb>
0.551619

> <r_i_glide_esite>
-0.0658234

> <r_i_glide_evdw>
-18.9494

> <r_i_glide_gscore>
-5.11103

> <r_i_glide_hbond>
-0.292268

> <r_i_glide_ligand_efficiency>
-0.232319

> <r_i_glide_ligand_efficiency_ln>
-1.24932

> <r_i_glide_ligand_efficiency_sa>
-0.650968

> <r_i_glide_lipo>
-1.98616

> <r_i_glide_metal>
0

> <r_i_glide_rewards>
-1.55458

> <s_i_glide_gridfile>
wee1_glide-grid

> <s_m_Source_File>
wee1_decoys_glide_SP.sdf

> <s_m_Source_Path>
/Users/zhangxujun/Desktop

> <s_m_entry_id>
1738

> <s_m_entry_name>
wee1_decoys_glide_SP.1463

> <s_m_subgroup_title>
wee1_decoys_glide_SP

> <s_m_subgroupid>
wee1_decoys_glide_SP


$$$$
