@<TRIPOS>MOLECULE
ZINC10255673_3758
34   36    1
SMALL
USER_CHARGES


@<TRIPOS>ATOM
      1 C1          5.0323   54.2980   25.8505 C.ar      1 UNK         0.0000 
      2 C2          6.3067   54.5416   25.3360 C.ar      1 UNK         0.0000 
      3 C3          6.5029   54.6230   23.9559 C.ar      1 UNK         0.0000 
      4 C4          5.4123   54.4693   23.0918 C.ar      1 UNK         0.0000 
      5 C5          4.1615   54.1253   23.6056 C.ar      1 UNK         0.0000 
      6 C6          3.9552   54.0964   24.9858 C.ar      1 UNK         0.0000 
      7 C7          3.1784   53.9916   22.4818 C.3       1 UNK         0.0000 
      8 C8          4.0731   53.9227   21.2330 C.3       1 UNK         0.0000 
      9 H9          3.6254   54.4826   20.4107 H         1 UNK         0.0000 
     10 N10         5.3671   54.4977   21.6807 N.am      1 UNK         0.0000 
     11 C11         6.1399   55.2960   20.8803 C.2       1 UNK         0.0000 
     12 O12         7.0217   56.0412   21.3148 O.2       1 UNK         0.0000 
     13 C13         5.9087   55.2797   19.3891 C.ar      1 UNK         0.0000 
     14 C14         6.0458   54.1012   18.6410 C.ar      1 UNK         0.0000 
     15 C15         5.8096   54.1027   17.2666 C.ar      1 UNK         0.0000 
     16 C16         5.4494   55.2858   16.6228 C.ar      1 UNK         0.0000 
     17 C17         5.3398   56.4688   17.3523 C.ar      1 UNK         0.0000 
     18 C18         5.5850   56.4686   18.7249 C.ar      1 UNK         0.0000 
     19 Br19        4.8425   58.0843   16.4799 Br        1 UNK         0.0000 
     20 C20         4.2278   52.4646   20.7483 C.2       1 UNK         0.0000 
     21 O21         5.0245   51.6973   21.2792 O.2       1 UNK         0.0000 
     22 N22         3.5094   52.0958   19.6887 N.am      1 UNK         0.0000 
     23 H23         4.8822   54.2491   26.9192 H         1 UNK         0.0000 
     24 H24         7.1387   54.6682   26.0100 H         1 UNK         0.0000 
     25 H25         7.4916   54.8221   23.5721 H         1 UNK         0.0000 
     26 H26         2.9750   53.8985   25.3938 H         1 UNK         0.0000 
     27 H27         2.4732   53.1636   22.5793 H         1 UNK         0.0000 
     28 H28         2.5711   54.8955   22.4397 H         1 UNK         0.0000 
     29 H29         6.3297   53.1706   19.1113 H         1 UNK         0.0000 
     30 H30         5.9029   53.1834   16.7059 H         1 UNK         0.0000 
     31 H31         5.2603   55.2871   15.5592 H         1 UNK         0.0000 
     32 H32         5.5058   57.3970   19.2720 H         1 UNK         0.0000 
     33 H33         2.8564   52.7283   19.2543 H         1 UNK         0.0000 
     34 H34         3.7110   51.2016   19.2544 H         1 UNK         0.0000 
@<TRIPOS>BOND
     1    1    6 ar   
     2    1    2 ar   
     3    1   23 1    
     4    2    3 ar   
     5    2   24 1    
     6    3    4 ar   
     7    3   25 1    
     8    4   10 1    
     9    4    5 ar   
    10    5    6 ar   
    11    5    7 1    
    12    6   26 1    
    13    7    8 1    
    14    7   27 1    
    15    7   28 1    
    16    8    9 1    
    17    8   10 1    
    18    8   20 1    
    19   10   11 am   BACKBONE|DICT|INTERRES
    20   11   12 2    
    21   11   13 1    
    22   13   18 ar   
    23   13   14 ar   
    24   14   15 ar   
    25   14   29 1    
    26   15   16 ar   
    27   15   30 1    
    28   16   17 ar   
    29   16   31 1    
    30   17   18 ar   
    31   17   19 1    
    32   18   32 1    
    33   20   21 2    
    34   20   22 am   BACKBONE|DICT|INTERRES
    35   22   33 1    
    36   22   34 1    
@<TRIPOS>SUBSTRUCTURE
     1 UNK         1 GROUP             0       ****    0 ROOT    
