@<TRIPOS>MOLECULE
ZINC09512139_5324
65   68    1
SMALL
USER_CHARGES


@<TRIPOS>ATOM
      1 C1          1.4048   51.4633   28.2631 C.3       1 UNK         0.0000 
      2 C2          1.4437   52.8408   28.9052 C.ar      1 UNK         0.0000 
      3 C3          0.5105   53.1478   29.9038 C.ar      1 UNK         0.0000 
      4 C4          0.5188   54.4045   30.5053 C.ar      1 UNK         0.0000 
      5 C5          1.4505   55.3616   30.1100 C.ar      1 UNK         0.0000 
      6 C6          2.3816   55.0637   29.1241 C.ar      1 UNK         0.0000 
      7 C7          2.3944   53.8065   28.5206 C.ar      1 UNK         0.0000 
      8 N8          3.3494   53.5656   27.5564 N.pl3     1 UNK         0.0000 
      9 C9          3.0604   53.7388   26.1318 C.3       1 UNK         0.0000 
     10 C10         4.0926   54.6433   25.4507 C.3       1 UNK         0.0000 
     11 C11         5.8353   53.8829   27.1064 C.3       1 UNK         0.0000 
     12 C12         4.7197   53.1617   27.8983 C.3       1 UNK         0.0000 
     13 C13         6.5899   54.6355   24.7608 C.3       1 UNK         0.0000 
     14 H14         7.4633   54.0293   25.0059 H         1 UNK         0.0000 
     15 C15         6.8738   56.0965   25.0750 C.3       1 UNK         0.0000 
     16 C16         6.3421   54.4033   23.2436 C.2       1 UNK         0.0000 
     17 O17         5.5320   53.5477   22.8813 O.2       1 UNK         0.0000 
     18 N18         7.0772   55.1443   22.3799 N.am      1 UNK         0.0000 
     19 C19         6.8946   55.2967   20.9932 C.ar      1 UNK         0.0000 
     20 C20         5.6617   55.0883   20.3574 C.ar      1 UNK         0.0000 
     21 C21         5.5441   55.2824   18.9844 C.ar      1 UNK         0.0000 
     22 C22         6.6545   55.6878   18.2450 C.ar      1 UNK         0.0000 
     23 C23         7.8854   55.8969   18.8706 C.ar      1 UNK         0.0000 
     24 C24         8.0042   55.6990   20.2449 C.ar      1 UNK         0.0000 
     25 S25         6.4675   55.9268   16.4814 S.o2      1 UNK         0.0000 
     26 O26         7.8016   56.1402   15.9080 O.2       1 UNK         0.0000 
     27 O27         5.6114   54.8325   15.9998 O.2       1 UNK         0.0000 
     28 N28         5.5529   57.4308   16.3157 N.pl3     1 UNK         0.0000 
     29 C29         6.2048   58.7149   16.6792 C.3       1 UNK         0.0000 
     30 C30         6.3067   59.4122   15.3362 C.3       1 UNK         0.0000 
     31 C31         4.9958   59.0391   14.6743 C.3       1 UNK         0.0000 
     32 C32         4.7024   57.5936   15.0985 C.3       1 UNK         0.0000 
     33 Cl33        1.5020   56.8966   30.8816 Cl        1 UNK         0.0000 
     34 H34         2.3007   50.8972   28.5172 H         1 UNK         0.0000 
     35 H35         0.5259   50.8972   28.5660 H         1 UNK         0.0000 
     36 H36         1.3729   51.5497   27.1773 H         1 UNK         0.0000 
     37 H37        -0.2163   52.4111   30.2208 H         1 UNK         0.0000 
     38 H38        -0.1852   54.6285   31.2926 H         1 UNK         0.0000 
     39 H39         3.1047   55.8166   28.8414 H         1 UNK         0.0000 
     40 H40         3.0589   52.7469   25.6805 H         1 UNK         0.0000 
     41 H41         2.0526   54.1331   25.9925 H         1 UNK         0.0000 
     42 H42         4.1434   55.6465   25.8781 H         1 UNK         0.0000 
     43 H43         3.8553   54.7082   24.3893 H         1 UNK         0.0000 
     44 H44         5.9872   54.8968   27.4802 H         1 UNK         0.0000 
     45 H45         6.7599   53.3040   27.1634 H         1 UNK         0.0000 
     46 H46         4.8961   53.2279   28.9746 H         1 UNK         0.0000 
     47 H47         4.7382   52.1014   27.6518 H         1 UNK         0.0000 
     48 H48         7.7411   56.4552   24.5183 H         1 UNK         0.0000 
     49 H49         6.0023   56.7090   24.8359 H         1 UNK         0.0000 
     50 H50         7.1035   56.2137   26.1276 H         1 UNK         0.0000 
     51 H51         7.9027   55.5863   22.7569 H         1 UNK         0.0000 
     52 H52         4.7809   54.7908   20.9078 H         1 UNK         0.0000 
     53 H53         4.5895   55.1214   18.5019 H         1 UNK         0.0000 
     54 H54         8.7501   56.2054   18.2996 H         1 UNK         0.0000 
     55 H55         8.9621   55.8585   20.7176 H         1 UNK         0.0000 
     56 H56         5.5315   59.2964   17.3141 H         1 UNK         0.0000 
     57 H57         7.1128   58.5974   17.2732 H         1 UNK         0.0000 
     58 H58         6.4231   60.4915   15.4470 H         1 UNK         0.0000 
     59 H59         7.1593   59.0363   14.7681 H         1 UNK         0.0000 
     60 H60         5.0327   59.1556   13.5897 H         1 UNK         0.0000 
     61 H61         4.2034   59.6967   15.0404 H         1 UNK         0.0000 
     62 H62         5.0390   56.9671   14.2691 H         1 UNK         0.0000 
     63 H63         3.6324   57.5616   15.3187 H         1 UNK         0.0000 
     64 N64         5.4701   53.9624   25.6046 N.4       1 UNK         0.0000 
     65 H65         5.3680   53.0197   25.2439 H         1 UNK         0.0000 
@<TRIPOS>BOND
     1    1    2 1    
     2    1   34 1    
     3    1   35 1    
     4    1   36 1    
     5    2    7 ar   
     6    2    3 ar   
     7    3    4 ar   
     8    3   37 1    
     9    4    5 ar   
    10    4   38 1    
    11    5    6 ar   
    12    5   33 1    
    13    6    7 ar   
    14    6   39 1    
    15    7    8 1    
    16    8   12 1    
    17    8    9 1    
    18    9   10 1    
    19    9   40 1    
    20    9   41 1    
    21   10   42 1    
    22   10   43 1    
    23   10   64 1    
    24   11   12 1    
    25   11   44 1    
    26   11   45 1    
    27   11   64 1    
    28   12   46 1    
    29   12   47 1    
    30   13   14 1    
    31   13   15 1    
    32   13   16 1    
    33   13   64 1    
    34   15   48 1    
    35   15   49 1    
    36   15   50 1    
    37   16   17 2    
    38   16   18 am   BACKBONE|DICT|INTERRES
    39   18   19 1    
    40   18   51 1    
    41   19   24 ar   
    42   19   20 ar   
    43   20   21 ar   
    44   20   52 1    
    45   21   22 ar   
    46   21   53 1    
    47   22   23 ar   
    48   22   25 1    
    49   23   24 ar   
    50   23   54 1    
    51   24   55 1    
    52   25   26 2    
    53   25   27 2    
    54   25   28 1    
    55   28   32 1    
    56   28   29 1    
    57   29   30 1    
    58   29   56 1    
    59   29   57 1    
    60   30   31 1    
    61   30   58 1    
    62   30   59 1    
    63   31   32 1    
    64   31   60 1    
    65   31   61 1    
    66   32   62 1    
    67   32   63 1    
    68   64   65 1    
@<TRIPOS>SUBSTRUCTURE
     1 UNK         1 GROUP             0       ****    0 ROOT    
