@<TRIPOS>MOLECULE
ZINC64820722_5928
51   53    1
SMALL
USER_CHARGES


@<TRIPOS>ATOM
      1 C1          2.3129   51.4483   19.4138 C.3       1 UNK         0.0000 
      2 C2          1.6141   50.4340   20.2900 C.2       1 UNK         0.0000 
      3 C3          0.9636   50.6354   21.5169 C.2       1 UNK         0.0000 
      4 C4          0.5164   49.3720   21.8567 C.2       1 UNK         0.0000 
      5 O5          0.8569   48.4968   20.8812 O.3       1 UNK         0.0000 
      6 N6          1.5606   49.1810   19.8969 N.2       1 UNK         0.0000 
      7 C7         -0.2453   48.8077   23.0333 C.3       1 UNK         0.0000 
      8 C8          0.7669   51.9251   22.2829 C.3       1 UNK         0.0000 
      9 C9          1.6510   52.0065   23.5430 C.3       1 UNK         0.0000 
     10 N10         1.4013   53.1904   24.3662 N.pl3     1 UNK         0.0000 
     11 C11         1.4083   54.4963   23.7099 C.3       1 UNK         0.0000 
     12 C12         1.9762   53.1427   25.6606 C.ar      1 UNK         0.0000 
     13 C13         1.2162   52.5456   26.6711 C.ar      1 UNK         0.0000 
     14 C14         1.7060   52.4482   27.9702 C.ar      1 UNK         0.0000 
     15 C15         2.9657   52.9626   28.2928 C.ar      1 UNK         0.0000 
     16 C16         3.7404   53.5633   27.2899 C.ar      1 UNK         0.0000 
     17 C17         3.2702   53.6273   25.9689 C.ar      1 UNK         0.0000 
     18 N18         4.0504   54.0977   24.9008 N.am      1 UNK         0.0000 
     19 C19         5.3797   54.1922   24.7201 C.2       1 UNK         0.0000 
     20 O20         6.2326   54.0969   25.6049 O.2       1 UNK         0.0000 
     21 C21         5.7626   54.4971   23.2890 C.ar      1 UNK         0.0000 
     22 C22         4.9814   54.0681   22.1994 C.ar      1 UNK         0.0000 
     23 C23         5.2920   54.4738   20.9031 C.ar      1 UNK         0.0000 
     24 C24         6.3929   55.2971   20.6799 C.ar      1 UNK         0.0000 
     25 C25         7.1991   55.6924   21.7397 C.ar      1 UNK         0.0000 
     26 C26         6.8802   55.2965   23.0359 C.ar      1 UNK         0.0000 
     27 Br27        6.8166   55.8653   18.9152 Br        1 UNK         0.0000 
     28 C28         3.4773   52.8606   29.6872 C.2       1 UNK         0.0000 
     29 O29         3.9042   53.9124   30.2115 O.co2     1 UNK         0.0000 
     30 O30         3.4269   51.7395   30.2448 O.co2     1 UNK         0.0000 
     31 H31         2.7696   52.2475   19.9983 H         1 UNK         0.0000 
     32 H32         3.1061   50.9970   18.8151 H         1 UNK         0.0000 
     33 H33         1.6173   51.9142   18.7159 H         1 UNK         0.0000 
     34 H34        -0.5558   49.5902   23.7248 H         1 UNK         0.0000 
     35 H35        -1.1470   48.2843   22.7141 H         1 UNK         0.0000 
     36 H36         0.3555   48.0983   23.6065 H         1 UNK         0.0000 
     37 H37        -0.2808   52.0179   22.5738 H         1 UNK         0.0000 
     38 H38         0.9662   52.7711   21.6236 H         1 UNK         0.0000 
     39 H39         2.7032   51.9765   23.2630 H         1 UNK         0.0000 
     40 H40         1.4861   51.1177   24.1553 H         1 UNK         0.0000 
     41 H41         1.1047   55.2457   24.4327 H         1 UNK         0.0000 
     42 H42         2.3715   54.7786   23.2915 H         1 UNK         0.0000 
     43 H43         0.7047   54.5350   22.8934 H         1 UNK         0.0000 
     44 H44         0.2361   52.1492   26.4483 H         1 UNK         0.0000 
     45 H45         1.0988   51.9717   28.7282 H         1 UNK         0.0000 
     46 H46         4.7198   53.9428   27.5443 H         1 UNK         0.0000 
     47 H47         3.5016   54.2475   24.0683 H         1 UNK         0.0000 
     48 H48         4.1193   53.4337   22.3410 H         1 UNK         0.0000 
     49 H49         4.6783   54.1504   20.0737 H         1 UNK         0.0000 
     50 H50         8.0719   56.3038   21.5642 H         1 UNK         0.0000 
     51 H51         7.5045   55.6361   23.8504 H         1 UNK         0.0000 
@<TRIPOS>BOND
     1    1    2 1    
     2    1   31 1    
     3    1   32 1    
     4    1   33 1    
     5    2    6 2    
     6    2    3 1    
     7    3    4 2    
     8    3    8 1    
     9    4    5 1    
    10    4    7 1    
    11    5    6 1    
    12    7   34 1    
    13    7   35 1    
    14    7   36 1    
    15    8    9 1    
    16    8   37 1    
    17    8   38 1    
    18    9   10 1    
    19    9   39 1    
    20    9   40 1    
    21   10   11 1    
    22   10   12 1    
    23   11   41 1    
    24   11   42 1    
    25   11   43 1    
    26   12   17 ar   
    27   12   13 ar   
    28   13   14 ar   
    29   13   44 1    
    30   14   15 ar   
    31   14   45 1    
    32   15   16 ar   
    33   15   28 1    
    34   16   17 ar   
    35   16   46 1    
    36   17   18 1    
    37   18   19 am   BACKBONE|DICT|INTERRES
    38   18   47 1    
    39   19   20 2    
    40   19   21 1    
    41   21   26 ar   
    42   21   22 ar   
    43   22   23 ar   
    44   22   48 1    
    45   23   24 ar   
    46   23   49 1    
    47   24   25 ar   
    48   24   27 1    
    49   25   26 ar   
    50   25   50 1    
    51   26   51 1    
    52   28   29 2    
    53   28   30 1    
@<TRIPOS>SUBSTRUCTURE
     1 UNK         1 GROUP             0       ****    0 ROOT    
