@<TRIPOS>MOLECULE
ZINC62828311_1664
33   34    1
SMALL
USER_CHARGES


@<TRIPOS>ATOM
      1 C1         -3.5370   50.7774   28.6197 C.3       1 UNK         0.0000 
      2 C2         -2.2143   51.2966   28.1166 C.2       1 UNK         0.0000 
      3 C3         -1.6522   51.4471   26.8618 C.2       1 UNK         0.0000 
      4 C4         -0.3711   51.9589   27.0577 C.2       1 UNK         0.0000 
      5 C5         -0.1954   52.1172   28.4287 C.2       1 UNK         0.0000 
      6 O6         -1.3231   51.6967   29.0601 O.3       1 UNK         0.0000 
      7 C7          0.9249   52.6344   29.3202 C.3       1 UNK         0.0000 
      8 H8          1.3482   51.7753   29.8438 H         1 UNK         0.0000 
      9 C9          0.3654   53.6272   30.3674 C.3       1 UNK         0.0000 
     10 N10         1.9928   53.2016   28.4877 N.am      1 UNK         0.0000 
     11 C11         3.1997   53.6362   28.8919 C.2       1 UNK         0.0000 
     12 O12         3.5046   53.7006   30.0816 O.2       1 UNK         0.0000 
     13 N13         4.1052   53.9894   27.9502 N.am      1 UNK         0.0000 
     14 C14         4.0368   54.0766   26.5518 C.2       1 UNK         0.0000 
     15 C15         5.0931   54.4961   25.7175 C.2       1 UNK         0.0000 
     16 C16         4.7221   54.4966   24.3593 C.2       1 UNK         0.0000 
     17 C17         3.4177   54.0970   24.1318 C.2       1 UNK         0.0000 
     18 S18         2.6119   53.6967   25.6025 S.3       1 UNK         0.0000 
     19 C19         6.4355   54.8966   26.1633 C.2       1 UNK         0.0000 
     20 O20         6.8243   54.4968   27.2818 O.co2     1 UNK         0.0000 
     21 O21         7.1044   55.6212   25.3925 O.co2     1 UNK         0.0000 
     22 H22        -4.1769   50.4411   27.8042 H         1 UNK         0.0000 
     23 H23        -3.3921   49.9238   29.2834 H         1 UNK         0.0000 
     24 H24        -4.0872   51.5336   29.1777 H         1 UNK         0.0000 
     25 H25        -2.1130   51.1960   25.9181 H         1 UNK         0.0000 
     26 H26         0.3423   52.1837   26.2818 H         1 UNK         0.0000 
     27 H27        -0.3917   53.1546   30.9953 H         1 UNK         0.0000 
     28 H28         1.1364   53.9947   31.0415 H         1 UNK         0.0000 
     29 H29        -0.0929   54.4934   29.8894 H         1 UNK         0.0000 
     30 H30         1.9182   52.9915   27.5034 H         1 UNK         0.0000 
     31 H31         5.0178   54.2423   28.3099 H         1 UNK         0.0000 
     32 H32         5.3984   54.7817   23.5654 H         1 UNK         0.0000 
     33 H33         2.9046   54.0178   23.1840 H         1 UNK         0.0000 
@<TRIPOS>BOND
     1    1    2 1    
     2    1   22 1    
     3    1   23 1    
     4    1   24 1    
     5    2    6 1    
     6    2    3 2    
     7    3    4 1    
     8    3   25 1    
     9    4    5 2    
    10    4   26 1    
    11    5    6 1    
    12    5    7 1    
    13    7    8 1    
    14    7    9 1    
    15    7   10 1    
    16    9   27 1    
    17    9   28 1    
    18    9   29 1    
    19   10   11 am   BACKBONE|DICT|INTERRES
    20   10   30 1    
    21   11   12 2    
    22   11   13 am   BACKBONE|DICT|INTERRES
    23   13   14 am   BACKBONE|DICT|INTERRES
    24   13   31 1    
    25   14   18 1    
    26   14   15 2    
    27   15   16 1    
    28   15   19 1    
    29   16   17 2    
    30   16   32 1    
    31   17   18 1    
    32   17   33 1    
    33   19   20 2    
    34   19   21 1    
@<TRIPOS>SUBSTRUCTURE
     1 UNK         1 GROUP             0       ****    0 ROOT    
