@<TRIPOS>MOLECULE
ZINC39695933_403
72   75    1
SMALL
USER_CHARGES


@<TRIPOS>ATOM
      1 C1          1.0656   52.8915   27.0058 C.3       1 UNK         0.0000 
      2 C2          1.1241   52.7736   25.4711 C.3       1 UNK         0.0000 
      3 C3          2.3909   53.2982   24.7932 C.ar      1 UNK         0.0000 
      4 C4          2.4447   53.2878   23.4001 C.ar      1 UNK         0.0000 
      5 C5          3.5899   53.7165   22.7364 C.ar      1 UNK         0.0000 
      6 C6          4.7107   54.1700   23.4484 C.ar      1 UNK         0.0000 
      7 C7          4.6426   54.1880   24.8493 C.ar      1 UNK         0.0000 
      8 C8          3.4960   53.7611   25.5159 C.ar      1 UNK         0.0000 
      9 C9          5.9622   54.6884   22.6994 C.3       1 UNK         0.0000 
     10 H10         6.5486   53.7921   22.4881 H         1 UNK         0.0000 
     11 C11         6.8646   55.6171   23.5556 C.3       1 UNK         0.0000 
     12 N12         5.6239   55.2563   21.3827 N.am      1 UNK         0.0000 
     13 C13         6.4533   55.6406   20.3999 C.2       1 UNK         0.0000 
     14 O14         7.6768   55.6582   20.5238 O.2       1 UNK         0.0000 
     15 C15         5.7745   56.1328   19.0924 C.3       1 UNK         0.0000 
     16 H16         4.7066   56.2258   19.2733 H         1 UNK         0.0000 
     17 C17         6.3521   57.4790   18.6192 C.3       1 UNK         0.0000 
     18 N18         7.4702   57.0834   17.7577 N.am      1 UNK         0.0000 
     19 C19         7.3892   55.6708   17.3525 C.3       1 UNK         0.0000 
     20 C20         6.0295   55.1661   17.8907 C.3       1 UNK         0.0000 
     21 C21         4.9931   55.3524   16.7379 C.3       1 UNK         0.0000 
     22 C22         3.5619   54.9194   17.1346 C.3       1 UNK         0.0000 
     23 N23         3.5963   53.4450   17.6048 N.4       1 UNK         0.0000 
     24 C24         4.6583   53.1667   18.6877 C.3       1 UNK         0.0000 
     25 C25         6.0271   53.6306   18.1496 C.3       1 UNK         0.0000 
     26 C26         8.5523   57.8805   17.5917 C.2       1 UNK         0.0000 
     27 O27         8.6421   59.0092   18.0833 O.2       1 UNK         0.0000 
     28 C28         9.7452   57.3485   16.7576 C.3       1 UNK         0.0000 
     29 H29         9.3883   56.6848   15.9706 H         1 UNK         0.0000 
     30 C30        10.7630   56.6131   17.6402 C.3       1 UNK         0.0000 
     31 C31        11.7347   57.6961   18.0806 C.3       1 UNK         0.0000 
     32 C32        11.8355   58.5809   16.8425 C.3       1 UNK         0.0000 
     33 N33        10.5494   58.4284   16.1547 N.am      1 UNK         0.0000 
     34 C34        10.1159   59.1620   15.0995 C.2       1 UNK         0.0000 
     35 O35         9.0271   58.9317   14.5644 O.2       1 UNK         0.0000 
     36 C36        10.9974   60.3105   14.5589 C.3       1 UNK         0.0000 
     37 F37        11.1036   61.2695   15.4819 F         1 UNK         0.0000 
     38 F38        10.4578   60.8405   13.4566 F         1 UNK         0.0000 
     39 F39        12.2138   59.8553   14.2561 F         1 UNK         0.0000 
     40 H40         0.1165   52.5149   27.3867 H         1 UNK         0.0000 
     41 H41         1.8564   52.3084   27.4803 H         1 UNK         0.0000 
     42 H42         1.1617   53.9275   27.3327 H         1 UNK         0.0000 
     43 H43         0.2684   53.2962   25.0420 H         1 UNK         0.0000 
     44 H44         1.0058   51.7242   25.1955 H         1 UNK         0.0000 
     45 H45         1.5999   52.9369   22.8250 H         1 UNK         0.0000 
     46 H46         3.5890   53.6819   21.6599 H         1 UNK         0.0000 
     47 H47         5.4741   54.5258   25.4486 H         1 UNK         0.0000 
     48 H48         3.4913   53.7787   26.5951 H         1 UNK         0.0000 
     49 H49         7.3713   55.0501   24.3373 H         1 UNK         0.0000 
     50 H50         7.6480   56.0966   22.9712 H         1 UNK         0.0000 
     51 H51         6.3052   56.4127   24.0458 H         1 UNK         0.0000 
     52 H52         4.6353   55.2985   21.1941 H         1 UNK         0.0000 
     53 H53         6.6205   58.1093   19.4693 H         1 UNK         0.0000 
     54 H54         5.5805   57.9792   18.0318 H         1 UNK         0.0000 
     55 H55         7.5519   55.4533   16.2964 H         1 UNK         0.0000 
     56 H56         8.1695   55.1378   17.8991 H         1 UNK         0.0000 
     57 H57         4.9603   56.3974   16.4248 H         1 UNK         0.0000 
     58 H58         5.3093   54.8137   15.8424 H         1 UNK         0.0000 
     59 H59         3.1313   55.4977   17.9526 H         1 UNK         0.0000 
     60 H60         2.8727   54.9553   16.2898 H         1 UNK         0.0000 
     61 H61         2.6833   53.1684   17.9455 H         1 UNK         0.0000 
     62 H62         4.3350   53.7077   19.5727 H         1 UNK         0.0000 
     63 H63         4.6139   52.0968   18.8956 H         1 UNK         0.0000 
     64 H64         6.2977   53.0683   17.2533 H         1 UNK         0.0000 
     65 H65         6.7913   53.3666   18.8805 H         1 UNK         0.0000 
     66 H66        11.2898   55.8636   17.0478 H         1 UNK         0.0000 
     67 H67        10.3047   56.0922   18.4814 H         1 UNK         0.0000 
     68 H68        12.6929   57.3066   18.4274 H         1 UNK         0.0000 
     69 H69        11.2924   58.2602   18.9033 H         1 UNK         0.0000 
     70 H70        12.6309   58.2173   16.1909 H         1 UNK         0.0000 
     71 H71        12.0581   59.6123   17.1148 H         1 UNK         0.0000 
     72 H72         3.7956   52.8406   16.8166 H         1 UNK         0.0000 
@<TRIPOS>BOND
     1    1    2 1    
     2    1   40 1    
     3    1   41 1    
     4    1   42 1    
     5    2    3 1    
     6    2   43 1    
     7    2   44 1    
     8    3    8 ar   
     9    3    4 ar   
    10    4    5 ar   
    11    4   45 1    
    12    5    6 ar   
    13    5   46 1    
    14    6    7 ar   
    15    6    9 1    
    16    7    8 ar   
    17    7   47 1    
    18    8   48 1    
    19    9   10 1    
    20    9   11 1    
    21    9   12 1    
    22   11   49 1    
    23   11   50 1    
    24   11   51 1    
    25   12   13 am   BACKBONE|DICT|INTERRES
    26   12   52 1    
    27   13   14 2    
    28   13   15 1    
    29   15   16 1    
    30   15   20 1    
    31   15   17 1    
    32   17   18 1    
    33   17   53 1    
    34   17   54 1    
    35   18   19 1    
    36   18   26 am   BACKBONE|DICT|INTERRES
    37   19   20 1    
    38   19   55 1    
    39   19   56 1    
    40   20   25 1    
    41   20   21 1    
    42   21   22 1    
    43   21   57 1    
    44   21   58 1    
    45   22   23 1    
    46   22   59 1    
    47   22   60 1    
    48   23   24 1    
    49   23   61 1    
    50   23   72 1    
    51   24   25 1    
    52   24   62 1    
    53   24   63 1    
    54   25   64 1    
    55   25   65 1    
    56   26   27 2    
    57   26   28 1    
    58   28   29 1    
    59   28   33 1    
    60   28   30 1    
    61   30   31 1    
    62   30   66 1    
    63   30   67 1    
    64   31   32 1    
    65   31   68 1    
    66   31   69 1    
    67   32   33 1    
    68   32   70 1    
    69   32   71 1    
    70   33   34 am   BACKBONE|DICT|INTERRES
    71   34   35 2    
    72   34   36 1    
    73   36   37 1    
    74   36   38 1    
    75   36   39 1    
@<TRIPOS>SUBSTRUCTURE
     1 UNK         1 GROUP             0       ****    0 ROOT    
