@<TRIPOS>MOLECULE
ZINC03217491_3811
33   34    1
SMALL
USER_CHARGES


@<TRIPOS>ATOM
      1 C1          6.3699   54.5251   27.5773 C.3       1 UNK         0.0000 
      2 C2          5.6834   54.4101   26.2277 C.ar      1 UNK         0.0000 
      3 C3          4.2932   54.3185   26.1572 C.ar      1 UNK         0.0000 
      4 C4          3.6646   54.1728   24.9217 C.ar      1 UNK         0.0000 
      5 C5          4.4227   54.0969   23.7422 C.ar      1 UNK         0.0000 
      6 C6          5.8157   54.2281   23.8256 C.ar      1 UNK         0.0000 
      7 C7          6.4397   54.3896   25.0574 C.ar      1 UNK         0.0000 
      8 C8          3.7851   53.9393   22.3727 C.2       1 UNK         0.0000 
      9 O9          4.3056   54.4966   21.4068 O.2       1 UNK         0.0000 
     10 N10         2.7052   53.1500   22.1747 N.am      1 UNK         0.0000 
     11 N11         2.1303   52.3594   23.1058 N.2       1 UNK         0.0000 
     12 C12         1.3083   51.5197   22.6178 C.2       1 UNK         0.0000 
     13 C13         0.5322   50.5770   23.4351 C.ar      1 UNK         0.0000 
     14 C14         0.4103   50.7123   24.8277 C.ar      1 UNK         0.0000 
     15 C15        -0.3447   49.8055   25.5730 C.ar      1 UNK         0.0000 
     16 C16        -0.9902   48.7462   24.9386 C.ar      1 UNK         0.0000 
     17 C17        -0.8652   48.5846   23.5555 C.ar      1 UNK         0.0000 
     18 C18        -0.1159   49.5004   22.8143 C.ar      1 UNK         0.0000 
     19 Br19       -1.6971   47.1226   22.6559 Br        1 UNK         0.0000 
     20 O20        -1.7467   47.8800   25.6817 O.3       1 UNK         0.0000 
     21 H21         6.2871   53.5844   28.1230 H         1 UNK         0.0000 
     22 H22         7.4250   54.7856   27.4857 H         1 UNK         0.0000 
     23 H23         5.8977   55.2971   28.1834 H         1 UNK         0.0000 
     24 H24         3.6986   54.3522   27.0583 H         1 UNK         0.0000 
     25 H25         2.5859   54.1226   24.8980 H         1 UNK         0.0000 
     26 H26         6.4281   54.2011   22.9345 H         1 UNK         0.0000 
     27 H27         7.5120   54.4787   25.0922 H         1 UNK         0.0000 
     28 H28         2.3461   53.0467   21.2365 H         1 UNK         0.0000 
     29 H29         1.1323   51.4296   21.5460 H         1 UNK         0.0000 
     30 H30         0.8990   51.5266   25.3442 H         1 UNK         0.0000 
     31 H31        -0.4317   49.9258   26.6441 H         1 UNK         0.0000 
     32 H32        -0.0362   49.3563   21.7457 H         1 UNK         0.0000 
     33 H33        -1.6954   48.0599   26.6387 H         1 UNK         0.0000 
@<TRIPOS>BOND
     1    1    2 1    
     2    1   21 1    
     3    1   22 1    
     4    1   23 1    
     5    2    7 ar   
     6    2    3 ar   
     7    3    4 ar   
     8    3   24 1    
     9    4    5 ar   
    10    4   25 1    
    11    5    6 ar   
    12    5    8 1    
    13    6    7 ar   
    14    6   26 1    
    15    7   27 1    
    16    8    9 2    
    17    8   10 am   BACKBONE|DICT|INTERRES
    18   10   11 1    
    19   10   28 1    
    20   11   12 2    
    21   12   13 1    
    22   12   29 1    
    23   13   18 ar   
    24   13   14 ar   
    25   14   15 ar   
    26   14   30 1    
    27   15   16 ar   
    28   15   31 1    
    29   16   17 ar   
    30   16   20 1    
    31   17   18 ar   
    32   17   19 1    
    33   18   32 1    
    34   20   33 1    
@<TRIPOS>SUBSTRUCTURE
     1 UNK         1 GROUP             0       ****    0 ROOT    
