ZINC61820166_1712
                    3D
 Schrodinger Suite 2024-2.
 44 46  0  0  1  0            999 V2000
   -3.8412   50.7417   24.7541 C   0  0  0  0  0  0
   -3.9669   51.7186   25.7368 C   0  0  0  0  0  0
   -2.9028   52.0986   26.4846 N   0  0  0  0  0  0
   -1.6922   51.5096   26.2585 C   0  0  0  0  0  0
   -1.5762   50.4947   25.2729 C   0  0  0  0  0  0
   -2.6559   50.1252   24.5242 N   0  0  0  0  0  0
   -0.3762   49.6796   24.9926 C   0  0  0  0  0  0
    0.3008   49.6921   23.9069 N   0  0  0  0  0  0
   -0.1258   50.6240   22.9366 O   0  0  0  0  0  0
   -0.0956   48.8967   26.0817 N   0  0  0  0  0  0
   -0.6638   52.0210   27.0541 N   0  0  0  0  0  0
   -0.7661   51.9451   28.5216 C   0  0  0  0  0  0
   -0.0777   53.1649   29.1706 C   0  0  0  0  0  0
    1.4273   53.2810   28.8393 C   0  0  0  0  0  0
    2.2637   52.2054   29.5863 C   0  0  0  0  0  0
    3.7781   52.3629   29.3067 C   0  0  0  0  0  0
    4.2819   53.7897   29.6222 C   0  0  0  0  0  0
    3.3909   54.8971   29.0281 C   0  0  0  0  0  0
    1.9144   54.6507   29.3776 C   0  0  0  0  0  0
    1.5150   53.2092   27.2877 C   0  0  0  0  0  0
    0.7568   52.0153   26.6727 C   0  0  0  0  0  0
   -4.6823   50.4298   24.1537 H   0  0  0  0  0  0
   -4.9100   52.2059   25.9354 H   0  0  0  0  0  0
    0.5129   50.4881   22.2304 H   0  0  0  0  0  0
    0.6454   48.2101   26.0369 H   0  0  0  0  0  0
   -0.6944   48.8785   26.9145 H   0  0  0  0  0  0
   -1.8081   51.9225   28.8407 H   0  0  0  0  0  0
   -0.3236   51.0052   28.8582 H   0  0  0  0  0  0
   -0.5861   54.0699   28.8366 H   0  0  0  0  0  0
   -0.2271   53.1468   30.2524 H   0  0  0  0  0  0
    2.0760   52.2552   30.6603 H   0  0  0  0  0  0
    1.9499   51.2067   29.2816 H   0  0  0  0  0  0
    4.3417   51.6459   29.9036 H   0  0  0  0  0  0
    3.9968   52.1178   28.2677 H   0  0  0  0  0  0
    4.3044   53.9133   30.7050 H   0  0  0  0  0  0
    5.3100   53.9129   29.2811 H   0  0  0  0  0  0
    3.6885   55.8624   29.4246 H   0  0  0  0  0  0
    3.5356   54.9644   27.9493 H   0  0  0  0  0  0
    1.3259   55.4562   28.9342 H   0  0  0  0  0  0
    1.7467   54.7347   30.4520 H   0  0  0  0  0  0
    2.5488   53.1968   26.9456 H   0  0  0  0  0  0
    1.1065   54.1145   26.8467 H   0  0  0  0  0  0
    1.2105   51.0715   26.9762 H   0  0  0  0  0  0
    0.8417   52.0941   25.5880 H   0  0  0  0  0  0
  1  6  2  0  0  0
  1  2  1  0  0  0
  1 22  1  0  0  0
  2  3  2  0  0  0
  2 23  1  0  0  0
  3  4  1  0  0  0
  4  5  2  0  0  0
  4 11  1  0  0  0
  5  6  1  0  0  0
  5  7  1  0  0  0
  7  8  2  0  0  0
  7 10  1  0  0  0
  8  9  1  0  0  0
  9 24  1  0  0  0
 10 25  1  0  0  0
 10 26  1  0  0  0
 11 21  1  0  0  0
 11 12  1  0  0  0
 12 13  1  0  0  0
 12 27  1  0  0  0
 12 28  1  0  0  0
 13 14  1  0  0  0
 13 29  1  0  0  0
 13 30  1  0  0  0
 14 19  1  0  0  0
 14 15  1  0  0  0
 14 20  1  0  0  0
 15 16  1  0  0  0
 15 31  1  0  0  0
 15 32  1  0  0  0
 16 17  1  0  0  0
 16 33  1  0  0  0
 16 34  1  0  0  0
 17 18  1  0  0  0
 17 35  1  0  0  0
 17 36  1  0  0  0
 18 19  1  0  0  0
 18 37  1  0  0  0
 18 38  1  0  0  0
 19 39  1  0  0  0
 19 40  1  0  0  0
 20 21  1  0  0  0
 20 41  1  0  0  0
 20 42  1  0  0  0
 21 43  1  0  0  0
 21 44  1  0  0  0
M  END
> <i_i_glide_confnum>
4

> <i_i_glide_lignum>
1713

> <i_i_glide_posenum>
14

> <i_i_glide_rotatable_bonds>
3

> <i_m_Source_File_Index>
4640

> <b_m_subgroup_collapsed>
0

> <r_i_docking_score>
-4.79867

> <r_i_glide_ecoul>
-5.1045

> <r_i_glide_eff_state_penalty>
0

> <r_i_glide_einternal>
3.6892

> <r_i_glide_emodel>
-41.4537

> <r_i_glide_energy>
-32.8707

> <r_i_glide_erotb>
0.652312

> <r_i_glide_esite>
-0.160617

> <r_i_glide_evdw>
-27.7662

> <r_i_glide_gscore>
-4.79867

> <r_i_glide_hbond>
-0.325398

> <r_i_glide_ligand_efficiency>
-0.228508

> <r_i_glide_ligand_efficiency_ln>
-1.18646

> <r_i_glide_ligand_efficiency_sa>
-0.630436

> <r_i_glide_lipo>
-1.37491

> <r_i_glide_metal>
0

> <r_i_glide_rewards>
-1.43607

> <s_i_glide_gridfile>
wee1_glide-grid

> <s_m_Source_File>
wee1_decoys_glide_SP.sdf

> <s_m_Source_Path>
/Users/zhangxujun/Desktop

> <s_m_entry_id>
4915

> <s_m_entry_name>
wee1_decoys_glide_SP.4640

> <s_m_subgroup_title>
wee1_decoys_glide_SP

> <s_m_subgroupid>
wee1_decoys_glide_SP


$$$$
