@<TRIPOS>MOLECULE
ZINC50305444_4745
33   35    1
SMALL
USER_CHARGES


@<TRIPOS>ATOM
      1 C1          2.6368   53.5007   29.1151 C.3       1 UNK         0.0000 
      2 C2          3.6968   53.8452   28.0840 C.ar      1 UNK         0.0000 
      3 C3          4.9828   54.1970   28.5003 C.ar      1 UNK         0.0000 
      4 C4          5.9939   54.4969   27.5849 C.ar      1 UNK         0.0000 
      5 C5          5.6898   54.4603   26.2168 C.ar      1 UNK         0.0000 
      6 C6          4.3818   54.0963   25.7994 C.ar      1 UNK         0.0000 
      7 C7          3.3788   53.7811   26.7257 C.ar      1 UNK         0.0000 
      8 S8          4.3187   54.0987   24.0479 S.3       1 UNK         0.0000 
      9 C9          5.9938   54.6598   24.0444 C.2       1 UNK         0.0000 
     10 N10         6.5607   54.7669   25.2149 N.2       1 UNK         0.0000 
     11 N11         6.7059   55.0021   22.9001 N.am      1 UNK         0.0000 
     12 C12         6.2546   55.0535   21.6213 C.2       1 UNK         0.0000 
     13 O13         5.1038   54.7797   21.2812 O.2       1 UNK         0.0000 
     14 C14         7.2365   55.4647   20.6245 C.ar      1 UNK         0.0000 
     15 C15         6.9799   55.6358   19.2333 C.ar      1 UNK         0.0000 
     16 C16         8.2046   55.9611   18.6643 C.ar      1 UNK         0.0000 
     17 N17         9.0813   55.9597   19.7090 N.pl3     1 UNK         0.0000 
     18 H18        10.0821   56.1104   19.6285 H         1 UNK         0.0000 
     19 N19         8.5105   55.6966   20.8830 N.2       1 UNK         0.0000 
     20 C20         8.6387   56.2489   17.2470 C.3       1 UNK         0.0000 
     21 N21         5.7977   55.5023   18.5590 N.pl3     1 UNK         0.0000 
     22 H22         3.0854   53.0566   30.0046 H         1 UNK         0.0000 
     23 H23         2.0788   54.3913   29.4070 H         1 UNK         0.0000 
     24 H24         1.9361   52.7629   28.7213 H         1 UNK         0.0000 
     25 H25         5.1984   54.2517   29.5562 H         1 UNK         0.0000 
     26 H26         6.9774   54.7769   27.9318 H         1 UNK         0.0000 
     27 H27         2.3900   53.4965   26.3948 H         1 UNK         0.0000 
     28 H28         8.5773   55.3537   16.6228 H         1 UNK         0.0000 
     29 H29         7.9995   57.0054   16.7850 H         1 UNK         0.0000 
     30 H30         9.6672   56.6180   17.1854 H         1 UNK         0.0000 
     31 H31         4.9584   55.2117   19.0448 H         1 UNK         0.0000 
     32 H32         5.7312   55.6137   17.5572 H         1 UNK         0.0000 
     33 H33         7.6713   55.2647   23.0559 H         1 UNK         0.0000 
@<TRIPOS>BOND
     1    1    2 1    
     2    1   22 1    
     3    1   23 1    
     4    1   24 1    
     5    2    7 ar   
     6    2    3 ar   
     7    3    4 ar   
     8    3   25 1    
     9    4    5 ar   
    10    4   26 1    
    11    5   10 1    
    12    5    6 ar   
    13    6    7 ar   
    14    6    8 1    
    15    7   27 1    
    16    8    9 1    
    17    9   10 2    
    18    9   11 am   BACKBONE|DICT|INTERRES
    19   11   12 am   BACKBONE|DICT|INTERRES
    20   11   33 1    
    21   12   13 2    
    22   12   14 1    
    23   14   15 ar   
    24   14   19 ar   
    25   15   21 1    
    26   15   16 ar   
    27   16   20 1    
    28   16   17 ar   
    29   17   18 1    
    30   17   19 ar   
    31   20   28 1    
    32   20   29 1    
    33   20   30 1    
    34   21   31 1    
    35   21   32 1    
@<TRIPOS>SUBSTRUCTURE
     1 UNK         1 GROUP             0       ****    0 ROOT    
