@<TRIPOS>MOLECULE
ZINC09374567_5906
63   65    1
SMALL
USER_CHARGES


@<TRIPOS>ATOM
      1 C1         -0.0818   52.7356   30.0433 C.3       1 UNK         0.0000 
      2 C2          0.2982   52.5832   28.5761 C.ar      1 UNK         0.0000 
      3 C3         -0.2573   51.5340   27.8383 C.ar      1 UNK         0.0000 
      4 C4          0.0614   51.3636   26.4928 C.ar      1 UNK         0.0000 
      5 C5          0.9224   52.2580   25.8548 C.ar      1 UNK         0.0000 
      6 C6          1.5040   53.2965   26.5962 C.ar      1 UNK         0.0000 
      7 C7          1.1917   53.4707   27.9504 C.ar      1 UNK         0.0000 
      8 C8          1.8298   54.6231   28.7148 C.3       1 UNK         0.0000 
      9 N9          1.2190   52.0195   24.5041 N.am      1 UNK         0.0000 
     10 C10         1.5465   52.9065   23.5435 C.2       1 UNK         0.0000 
     11 O11         1.5074   54.1299   23.6809 O.2       1 UNK         0.0000 
     12 C12         2.0264   52.3005   22.2160 C.3       1 UNK         0.0000 
     13 S13         0.7229   51.8888   20.9958 S.3       1 UNK         0.0000 
     14 C14        -0.3452   50.6547   21.7488 C.2       1 UNK         0.0000 
     15 C15        -1.6553   50.5651   21.4456 C.2       1 UNK         0.0000 
     16 C16        -2.5376   49.6148   22.2529 C.3       1 UNK         0.0000 
     17 H17        -3.2306   49.1568   21.5440 H         1 UNK         0.0000 
     18 C18        -1.6562   48.4435   22.8589 C.3       1 UNK         0.0000 
     19 H19        -1.4134   47.7817   22.0268 H         1 UNK         0.0000 
     20 C20        -0.2349   48.8973   23.3370 C.2       1 UNK         0.0000 
     21 O21         0.3044   48.3037   24.2666 O.2       1 UNK         0.0000 
     22 N22         0.3348   49.8857   22.6865 N.2       1 UNK         0.0000 
     23 C23        -2.3951   47.5541   23.8903 C.2       1 UNK         0.0000 
     24 O24        -2.7112   46.3910   23.6190 O.2       1 UNK         0.0000 
     25 O25        -2.6043   48.1661   25.0767 O.3       1 UNK         0.0000 
     26 C26        -3.2146   47.4756   26.1544 C.3       1 UNK         0.0000 
     27 C27        -3.3910   50.4000   23.2632 C.ar      1 UNK         0.0000 
     28 C28        -2.7852   51.2944   24.1531 C.ar      1 UNK         0.0000 
     29 C29        -3.5532   52.0099   25.0635 C.ar      1 UNK         0.0000 
     30 C30        -4.9408   51.8411   25.0938 C.ar      1 UNK         0.0000 
     31 C31        -5.5476   50.9406   24.2129 C.ar      1 UNK         0.0000 
     32 C32        -4.7772   50.2231   23.3018 C.ar      1 UNK         0.0000 
     33 C33        -5.7969   52.6340   26.0814 C.3       1 UNK         0.0000 
     34 C34        -5.7056   52.0456   27.4995 C.3       1 UNK         0.0000 
     35 C35        -5.4799   54.1428   26.0574 C.3       1 UNK         0.0000 
     36 C36        -2.2573   51.4095   20.4641 C.1       1 UNK         0.0000 
     37 N37        -2.7658   52.0966   19.6818 N.1       1 UNK         0.0000 
     38 H38        -0.4956   53.7272   30.2267 H         1 UNK         0.0000 
     39 H39        -0.8254   52.0010   30.3586 H         1 UNK         0.0000 
     40 H40         0.7971   52.6225   30.6778 H         1 UNK         0.0000 
     41 H41        -0.9356   50.8336   28.3052 H         1 UNK         0.0000 
     42 H42        -0.3715   50.5310   25.9555 H         1 UNK         0.0000 
     43 H43         2.2000   53.9726   26.1219 H         1 UNK         0.0000 
     44 H44         2.3745   54.2472   29.5803 H         1 UNK         0.0000 
     45 H45         2.5270   55.1938   28.1005 H         1 UNK         0.0000 
     46 H46         1.0637   55.3067   29.0803 H         1 UNK         0.0000 
     47 H47         1.0778   51.0663   24.1803 H         1 UNK         0.0000 
     48 H48         2.6870   53.0254   21.7397 H         1 UNK         0.0000 
     49 H49         2.6414   51.4183   22.3985 H         1 UNK         0.0000 
     50 H50        -3.3634   48.1617   26.9871 H         1 UNK         0.0000 
     51 H51        -4.1875   47.0724   25.8689 H         1 UNK         0.0000 
     52 H52        -2.5819   46.6562   26.4989 H         1 UNK         0.0000 
     53 H53        -1.7156   51.4394   24.1421 H         1 UNK         0.0000 
     54 H54        -3.0624   52.6894   25.7448 H         1 UNK         0.0000 
     55 H55        -6.6182   50.7957   24.2302 H         1 UNK         0.0000 
     56 H56        -5.2612   49.5328   22.6266 H         1 UNK         0.0000 
     57 H57        -6.8359   52.5452   25.7589 H         1 UNK         0.0000 
     58 H58        -4.6880   52.0955   27.8873 H         1 UNK         0.0000 
     59 H59        -6.3550   52.5808   28.1925 H         1 UNK         0.0000 
     60 H60        -6.0081   50.9977   27.5117 H         1 UNK         0.0000 
     61 H61        -5.4825   54.5168   25.0343 H         1 UNK         0.0000 
     62 H62        -6.2182   54.7120   26.6226 H         1 UNK         0.0000 
     63 H63        -4.5013   54.3619   26.4841 H         1 UNK         0.0000 
@<TRIPOS>BOND
     1    1    2 1    
     2    1   38 1    
     3    1   39 1    
     4    1   40 1    
     5    2    7 ar   
     6    2    3 ar   
     7    3    4 ar   
     8    3   41 1    
     9    4    5 ar   
    10    4   42 1    
    11    5    6 ar   
    12    5    9 1    
    13    6    7 ar   
    14    6   43 1    
    15    7    8 1    
    16    8   44 1    
    17    8   45 1    
    18    8   46 1    
    19    9   10 am   BACKBONE|DICT|INTERRES
    20    9   47 1    
    21   10   11 2    
    22   10   12 1    
    23   12   13 1    
    24   12   48 1    
    25   12   49 1    
    26   13   14 1    
    27   14   22 1    
    28   14   15 2    
    29   15   16 1    
    30   15   36 1    
    31   16   17 1    
    32   16   18 1    
    33   16   27 1    
    34   18   19 1    
    35   18   20 1    
    36   18   23 1    
    37   20   21 2    
    38   20   22 1    
    39   23   24 2    
    40   23   25 1    
    41   25   26 1    
    42   26   50 1    
    43   26   51 1    
    44   26   52 1    
    45   27   32 ar   
    46   27   28 ar   
    47   28   29 ar   
    48   28   53 1    
    49   29   30 ar   
    50   29   54 1    
    51   30   31 ar   
    52   30   33 1    
    53   31   32 ar   
    54   31   55 1    
    55   32   56 1    
    56   33   34 1    
    57   33   35 1    
    58   33   57 1    
    59   34   58 1    
    60   34   59 1    
    61   34   60 1    
    62   35   61 1    
    63   35   62 1    
    64   35   63 1    
    65   36   37 3    
@<TRIPOS>SUBSTRUCTURE
     1 UNK         1 GROUP             0       ****    0 ROOT    
