@<TRIPOS>MOLECULE
ZINC13247793_1989
60   63    1
SMALL
USER_CHARGES


@<TRIPOS>ATOM
      1 C1          7.2454   56.2070   19.7525 C.3       1 UNK         0.0000 
      2 C2          6.4784   55.3419   20.7442 C.ar      1 UNK         0.0000 
      3 C3          6.8930   55.3658   22.0821 C.ar      1 UNK         0.0000 
      4 C4          6.2898   54.5477   23.0405 C.ar      1 UNK         0.0000 
      5 C5          5.3094   53.6625   22.6068 C.ar      1 UNK         0.0000 
      6 C6          4.8090   53.6672   21.3098 C.ar      1 UNK         0.0000 
      7 C7          5.3948   54.5216   20.3511 C.ar      1 UNK         0.0000 
      8 C8          4.8593   54.5766   18.9221 C.3       1 UNK         0.0000 
      9 S9          3.3704   52.5918   21.0709 S.o2      1 UNK         0.0000 
     10 O10         3.6794   51.2960   21.6818 O.2       1 UNK         0.0000 
     11 O11         2.9035   52.6595   19.6848 O.2       1 UNK         0.0000 
     12 N12         2.0918   53.3418   22.0510 N.pl3     1 UNK         0.0000 
     13 C13         1.8582   53.1641   23.3927 C.2       1 UNK         0.0000 
     14 C14         0.8654   52.3877   23.9947 C.2       1 UNK         0.0000 
     15 C15         0.9229   52.4332   25.4076 C.2       1 UNK         0.0000 
     16 C16         1.9114   53.3144   25.8641 C.2       1 UNK         0.0000 
     17 S17         2.7360   54.0967   24.5599 S.3       1 UNK         0.0000 
     18 C18         2.2912   53.5367   27.3211 C.3       1 UNK         0.0000 
     19 C19         1.1732   52.9832   28.2304 C.3       1 UNK         0.0000 
     20 C20         0.7056   51.5864   27.7841 C.3       1 UNK         0.0000 
     21 C21         0.0678   51.6081   26.3767 C.3       1 UNK         0.0000 
     22 C22        -0.0259   51.5418   23.2666 C.2       1 UNK         0.0000 
     23 O23        -1.1587   51.9096   22.9525 O.2       1 UNK         0.0000 
     24 N24         0.4963   50.3331   23.0170 N.am      1 UNK         0.0000 
     25 C25        -0.2246   49.2286   22.3953 C.3       1 UNK         0.0000 
     26 C26        -1.2690   48.5878   23.3350 C.3       1 UNK         0.0000 
     27 H27        -1.9961   49.3393   23.6502 H         1 UNK         0.0000 
     28 C28        -0.7106   47.7386   24.4784 C.3       1 UNK         0.0000 
     29 C29        -1.7570   46.6692   24.7087 C.3       1 UNK         0.0000 
     30 C30        -2.6032   46.6869   23.4363 C.3       1 UNK         0.0000 
     31 O31        -1.9536   47.6053   22.5622 O.3       1 UNK         0.0000 
     32 C32         6.6082   54.6497   24.5016 C.2       1 UNK         0.0000 
     33 O33         6.2951   53.6967   25.2430 O.co2     1 UNK         0.0000 
     34 H34         8.2202   56.4976   20.1444 H         1 UNK         0.0000 
     35 H35         7.4578   55.6496   18.8402 H         1 UNK         0.0000 
     36 H36         6.6747   57.0971   19.4878 H         1 UNK         0.0000 
     37 H37         7.6845   56.0390   22.3790 H         1 UNK         0.0000 
     38 H38         4.8644   52.9940   23.3148 H         1 UNK         0.0000 
     39 H39         5.3414   55.3136   18.2840 H         1 UNK         0.0000 
     40 H40         4.9605   53.6017   18.4436 H         1 UNK         0.0000 
     41 H41         3.8010   54.8372   18.9331 H         1 UNK         0.0000 
     42 H42         1.5354   53.9803   21.4947 H         1 UNK         0.0000 
     43 H43         3.2243   53.0131   27.5355 H         1 UNK         0.0000 
     44 H44         2.4665   54.5918   27.5335 H         1 UNK         0.0000 
     45 H45         1.5253   52.9471   29.2621 H         1 UNK         0.0000 
     46 H46         0.3231   53.6676   28.2273 H         1 UNK         0.0000 
     47 H47         1.5546   50.9010   27.7908 H         1 UNK         0.0000 
     48 H48        -0.0096   51.1799   28.5016 H         1 UNK         0.0000 
     49 H49        -0.9336   52.0364   26.4328 H         1 UNK         0.0000 
     50 H50        -0.0620   50.5852   26.0237 H         1 UNK         0.0000 
     51 H51         1.4790   50.1888   23.2061 H         1 UNK         0.0000 
     52 H52         0.5361   48.4969   22.1310 H         1 UNK         0.0000 
     53 H53        -0.6858   49.5452   21.4571 H         1 UNK         0.0000 
     54 H54        -0.4824   48.3345   25.3634 H         1 UNK         0.0000 
     55 H55         0.2431   47.2973   24.1887 H         1 UNK         0.0000 
     56 H56        -2.3658   46.9074   25.5825 H         1 UNK         0.0000 
     57 H57        -1.2968   45.6996   24.8821 H         1 UNK         0.0000 
     58 H58        -3.6214   47.0281   23.6312 H         1 UNK         0.0000 
     59 H59        -2.6739   45.7076   22.9624 H         1 UNK         0.0000 
     60 O60         7.1045   55.7092   24.9312 O.co2     1 UNK         0.0000 
@<TRIPOS>BOND
     1    1    2 1    
     2    1   34 1    
     3    1   35 1    
     4    1   36 1    
     5    2    7 ar   
     6    2    3 ar   
     7    3    4 ar   
     8    3   37 1    
     9    4    5 ar   
    10    4   32 1    
    11    5    6 ar   
    12    5   38 1    
    13    6    7 ar   
    14    6    9 1    
    15    7    8 1    
    16    8   39 1    
    17    8   40 1    
    18    8   41 1    
    19    9   10 2    
    20    9   11 2    
    21    9   12 1    
    22   12   13 1    
    23   12   42 1    
    24   13   17 1    
    25   13   14 2    
    26   14   15 1    
    27   14   22 1    
    28   15   21 1    
    29   15   16 2    
    30   16   17 1    
    31   16   18 1    
    32   18   19 1    
    33   18   43 1    
    34   18   44 1    
    35   19   20 1    
    36   19   45 1    
    37   19   46 1    
    38   20   21 1    
    39   20   47 1    
    40   20   48 1    
    41   21   49 1    
    42   21   50 1    
    43   22   23 2    
    44   22   24 am   BACKBONE|DICT|INTERRES
    45   24   25 1    
    46   24   51 1    
    47   25   26 1    
    48   25   52 1    
    49   25   53 1    
    50   26   27 1    
    51   26   31 1    
    52   26   28 1    
    53   28   29 1    
    54   28   54 1    
    55   28   55 1    
    56   29   30 1    
    57   29   56 1    
    58   29   57 1    
    59   30   31 1    
    60   30   58 1    
    61   30   59 1    
    62   32   33 2    
    63   32   60 1    
@<TRIPOS>SUBSTRUCTURE
     1 UNK         1 GROUP             0       ****    0 ROOT    
