@<TRIPOS>MOLECULE
ZINC35752828_2120
67   70    1
SMALL
USER_CHARGES


@<TRIPOS>ATOM
      1 C1          8.9083   56.1878   18.2328 C.3       1 UNK         0.0000 
      2 C2          7.8570   55.7532   19.2384 C.ar      1 UNK         0.0000 
      3 C3          8.1757   55.6971   20.5947 C.ar      1 UNK         0.0000 
      4 C4          7.2200   55.3015   21.5239 C.ar      1 UNK         0.0000 
      5 C5          5.9439   54.8962   21.1066 C.ar      1 UNK         0.0000 
      6 C6          5.6303   54.9609   19.7361 C.ar      1 UNK         0.0000 
      7 C7          6.5808   55.3915   18.8112 C.ar      1 UNK         0.0000 
      8 C8          4.9649   54.3573   22.1321 C.2       1 UNK         0.0000 
      9 O9          5.2805   54.3049   23.3243 O.2       1 UNK         0.0000 
     10 N10         3.7770   53.9340   21.6545 N.am      1 UNK         0.0000 
     11 C11         2.6889   53.4136   22.3706 C.ar      1 UNK         0.0000 
     12 C12         2.3752   53.7989   23.6793 C.ar      1 UNK         0.0000 
     13 C13         1.2943   53.2152   24.3289 C.ar      1 UNK         0.0000 
     14 C14         0.5174   52.2435   23.6849 C.ar      1 UNK         0.0000 
     15 C15         0.8055   51.9058   22.3584 C.ar      1 UNK         0.0000 
     16 C16         1.8808   52.4935   21.7002 C.ar      1 UNK         0.0000 
     17 C17        -0.6006   51.4698   24.4010 C.3       1 UNK         0.0000 
     18 H18        -1.4701   51.4963   23.7410 H         1 UNK         0.0000 
     19 C19        -0.9577   51.8873   25.8301 C.3       1 UNK         0.0000 
     20 H20        -0.7794   52.9394   26.0157 H         1 UNK         0.0000 
     21 N21        -0.0579   51.0410   26.6016 N.am      1 UNK         0.0000 
     22 C22         0.3042   49.9175   25.8488 C.2       1 UNK         0.0000 
     23 O23         0.9350   48.9060   26.1384 O.2       1 UNK         0.0000 
     24 O24        -0.2154   50.1214   24.6166 O.3       1 UNK         0.0000 
     25 C25         0.3345   51.2829   27.9932 C.3       1 UNK         0.0000 
     26 C26         1.0856   52.5832   28.2492 C.ar      1 UNK         0.0000 
     27 C27         2.3065   52.8265   27.6167 C.ar      1 UNK         0.0000 
     28 C28         3.0296   53.9880   27.8821 C.ar      1 UNK         0.0000 
     29 C29         2.5404   54.9131   28.8031 C.ar      1 UNK         0.0000 
     30 C30         1.3265   54.6792   29.4509 C.ar      1 UNK         0.0000 
     31 C31         0.5981   53.5183   29.1689 C.ar      1 UNK         0.0000 
     32 C32         0.8100   55.6866   30.4590 C.3       1 UNK         0.0000 
     33 C33        -2.4691   51.6967   26.1134 C.2       1 UNK         0.0000 
     34 O34        -3.2569   52.4971   25.6081 O.2       1 UNK         0.0000 
     35 N35        -2.8709   50.6796   26.9008 N.am      1 UNK         0.0000 
     36 C36        -4.2563   50.3610   27.2558 C.3       1 UNK         0.0000 
     37 C37        -4.3156   49.0067   27.9750 C.3       1 UNK         0.0000 
     38 C38        -4.9444   51.4648   28.0832 C.3       1 UNK         0.0000 
     39 H39         8.9699   57.2757   18.1897 H         1 UNK         0.0000 
     40 H40         9.8888   55.7983   18.5119 H         1 UNK         0.0000 
     41 H41         8.6946   55.8053   17.2372 H         1 UNK         0.0000 
     42 H42         9.1611   55.9791   20.9356 H         1 UNK         0.0000 
     43 H43         7.5016   55.2697   22.5679 H         1 UNK         0.0000 
     44 H44         4.6598   54.6742   19.3565 H         1 UNK         0.0000 
     45 H45         6.3234   55.4315   17.7620 H         1 UNK         0.0000 
     46 H46         3.6602   53.9434   20.6528 H         1 UNK         0.0000 
     47 H47         2.9613   54.5411   24.2005 H         1 UNK         0.0000 
     48 H48         1.0935   53.5147   25.3418 H         1 UNK         0.0000 
     49 H49         0.2195   51.1560   21.8484 H         1 UNK         0.0000 
     50 H50         2.1021   52.2029   20.6831 H         1 UNK         0.0000 
     51 H51         1.0001   50.4986   28.3334 H         1 UNK         0.0000 
     52 H52        -0.5550   51.2257   28.6234 H         1 UNK         0.0000 
     53 H53         2.7030   52.1066   26.9209 H         1 UNK         0.0000 
     54 H54         3.9703   54.1653   27.3816 H         1 UNK         0.0000 
     55 H55         3.1067   55.8073   29.0161 H         1 UNK         0.0000 
     56 H56        -0.3366   53.3275   29.6781 H         1 UNK         0.0000 
     57 H57        -0.1383   55.3659   30.8818 H         1 UNK         0.0000 
     58 H58         1.5044   55.8243   31.2815 H         1 UNK         0.0000 
     59 H59         0.6940   56.6618   29.9878 H         1 UNK         0.0000 
     60 H60        -2.1793   50.0299   27.2614 H         1 UNK         0.0000 
     61 H61        -4.8139   50.2466   26.3224 H         1 UNK         0.0000 
     62 H62        -5.3387   48.7553   28.2593 H         1 UNK         0.0000 
     63 H63        -3.9509   48.1970   27.3430 H         1 UNK         0.0000 
     64 H64        -3.7295   49.0201   28.8953 H         1 UNK         0.0000 
     65 H65        -5.9404   51.1468   28.4007 H         1 UNK         0.0000 
     66 H66        -4.3797   51.6968   28.9875 H         1 UNK         0.0000 
     67 H67        -5.0855   52.3784   27.5031 H         1 UNK         0.0000 
@<TRIPOS>BOND
     1    1    2 1    
     2    1   39 1    
     3    1   40 1    
     4    1   41 1    
     5    2    7 ar   
     6    2    3 ar   
     7    3    4 ar   
     8    3   42 1    
     9    4    5 ar   
    10    4   43 1    
    11    5    6 ar   
    12    5    8 1    
    13    6    7 ar   
    14    6   44 1    
    15    7   45 1    
    16    8    9 2    
    17    8   10 am   BACKBONE|DICT|INTERRES
    18   10   11 1    
    19   10   46 1    
    20   11   16 ar   
    21   11   12 ar   
    22   12   13 ar   
    23   12   47 1    
    24   13   14 ar   
    25   13   48 1    
    26   14   15 ar   
    27   14   17 1    
    28   15   16 ar   
    29   15   49 1    
    30   16   50 1    
    31   17   18 1    
    32   17   24 1    
    33   17   19 1    
    34   19   20 1    
    35   19   21 1    
    36   19   33 1    
    37   21   22 am   BACKBONE|DICT|INTERRES
    38   21   25 1    
    39   22   23 2    
    40   22   24 1    
    41   25   26 1    
    42   25   51 1    
    43   25   52 1    
    44   26   31 ar   
    45   26   27 ar   
    46   27   28 ar   
    47   27   53 1    
    48   28   29 ar   
    49   28   54 1    
    50   29   30 ar   
    51   29   55 1    
    52   30   31 ar   
    53   30   32 1    
    54   31   56 1    
    55   32   57 1    
    56   32   58 1    
    57   32   59 1    
    58   33   34 2    
    59   33   35 am   BACKBONE|DICT|INTERRES
    60   35   36 1    
    61   35   60 1    
    62   36   37 1    
    63   36   38 1    
    64   36   61 1    
    65   37   62 1    
    66   37   63 1    
    67   37   64 1    
    68   38   65 1    
    69   38   66 1    
    70   38   67 1    
@<TRIPOS>SUBSTRUCTURE
     1 UNK         1 GROUP             0       ****    0 ROOT    
