@<TRIPOS>MOLECULE
ZINC12105025_823
60   63    1
SMALL
USER_CHARGES


@<TRIPOS>ATOM
      1 C1          1.5191   50.1744   17.4071 C.3       1 UNK         0.0000 
      2 C2          1.6659   50.7810   18.7872 C.ar      1 UNK         0.0000 
      3 C3          1.1542   50.2469   19.9706 C.ar      1 UNK         0.0000 
      4 N4          1.4955   51.0764   21.0314 N.pl3     1 UNK         0.0000 
      5 C5          2.2794   52.0936   20.5110 C.ar      1 UNK         0.0000 
      6 C6          2.3910   51.9366   19.1321 C.ar      1 UNK         0.0000 
      7 C7          3.1020   52.8254   18.2196 C.1       1 UNK         0.0000 
      8 N8          3.6623   53.5365   17.4978 N.1       1 UNK         0.0000 
      9 N9          2.8118   53.1146   21.2816 N.am      1 UNK         0.0000 
     10 C10         4.0694   53.0824   21.7619 C.2       1 UNK         0.0000 
     11 O11         4.8080   52.0991   21.6816 O.2       1 UNK         0.0000 
     12 C12         4.5463   54.3895   22.4117 C.3       1 UNK         0.0000 
     13 S13         6.3044   54.4080   22.9075 S.3       1 UNK         0.0000 
     14 C14         6.1217   54.5901   24.6438 C.ar      1 UNK         0.0000 
     15 N15         5.4282   53.7518   25.4773 N.pl3     1 UNK         0.0000 
     16 H16         4.9040   52.9279   25.2189 H         1 UNK         0.0000 
     17 C17         5.6133   54.2472   26.7391 C.ar      1 UNK         0.0000 
     18 N18         6.3955   55.2951   26.6904 N.2       1 UNK         0.0000 
     19 N19         6.7037   55.5229   25.3517 N.2       1 UNK         0.0000 
     20 C20         4.9935   53.6789   27.9978 C.3       1 UNK         0.0000 
     21 C21         3.4589   53.4855   27.8962 C.3       1 UNK         0.0000 
     22 C22         2.6949   53.9283   29.1624 C.3       1 UNK         0.0000 
     23 C23         2.5733   55.4544   29.3119 C.3       1 UNK         0.0000 
     24 C24         1.3238   55.7269   30.1644 C.3       1 UNK         0.0000 
     25 C25         0.5750   54.3887   30.2558 C.3       1 UNK         0.0000 
     26 C26         1.2324   53.4715   29.2172 C.3       1 UNK         0.0000 
     27 C27         1.0631   50.9399   22.3765 C.ar      1 UNK         0.0000 
     28 C28         1.2177   49.7322   23.0690 C.ar      1 UNK         0.0000 
     29 C29         0.7046   49.5922   24.3609 C.ar      1 UNK         0.0000 
     30 C30         0.0507   50.6597   24.9762 C.ar      1 UNK         0.0000 
     31 C31        -0.0920   51.8679   24.2972 C.ar      1 UNK         0.0000 
     32 C32         0.4177   52.0099   23.0081 C.ar      1 UNK         0.0000 
     33 F33        -0.7399   52.8966   24.8847 F         1 UNK         0.0000 
     34 C34         0.2956   49.0041   20.1524 C.3       1 UNK         0.0000 
     35 H35         2.3041   50.5045   16.7239 H         1 UNK         0.0000 
     36 H36         1.6026   49.0876   17.4446 H         1 UNK         0.0000 
     37 H37         0.5512   50.4037   16.9603 H         1 UNK         0.0000 
     38 H38         2.3188   53.9990   21.2548 H         1 UNK         0.0000 
     39 H39         4.4245   55.1865   21.6775 H         1 UNK         0.0000 
     40 H40         3.9007   54.6315   23.2551 H         1 UNK         0.0000 
     41 H41         5.4607   52.7233   28.2412 H         1 UNK         0.0000 
     42 H42         5.2368   54.3276   28.8397 H         1 UNK         0.0000 
     43 H43         3.0538   54.0223   27.0381 H         1 UNK         0.0000 
     44 H44         3.2495   52.4334   27.6928 H         1 UNK         0.0000 
     45 H45         3.1737   53.5329   30.0613 H         1 UNK         0.0000 
     46 H46         3.4877   55.9155   29.6812 H         1 UNK         0.0000 
     47 H47         2.3809   55.8965   28.3324 H         1 UNK         0.0000 
     48 H48         1.5867   56.0965   31.1563 H         1 UNK         0.0000 
     49 H49         0.7059   56.4962   29.7024 H         1 UNK         0.0000 
     50 H50         0.6940   53.9637   31.2539 H         1 UNK         0.0000 
     51 H51        -0.4954   54.4966   30.0822 H         1 UNK         0.0000 
     52 H52         0.7572   53.6484   28.2499 H         1 UNK         0.0000 
     53 H53         1.1243   52.4066   29.4235 H         1 UNK         0.0000 
     54 H54         1.7320   48.8969   22.6182 H         1 UNK         0.0000 
     55 H55         0.8239   48.6572   24.8922 H         1 UNK         0.0000 
     56 H56        -0.3477   50.5461   25.9738 H         1 UNK         0.0000 
     57 H57         0.2884   52.9480   22.4935 H         1 UNK         0.0000 
     58 H58        -0.1590   48.6850   19.2140 H         1 UNK         0.0000 
     59 H59         0.8814   48.1589   20.5160 H         1 UNK         0.0000 
     60 H60        -0.5277   49.1590   20.8496 H         1 UNK         0.0000 
@<TRIPOS>BOND
     1    1    2 1    
     2    1   35 1    
     3    1   36 1    
     4    1   37 1    
     5    2    6 ar   
     6    2    3 ar   
     7    3    4 ar   
     8    3   34 1    
     9    4    5 ar   
    10    4   27 1    
    11    5    6 ar   
    12    5    9 1    
    13    6    7 1    
    14    7    8 3    
    15    9   10 am   BACKBONE|DICT|INTERRES
    16    9   38 1    
    17   10   11 2    
    18   10   12 1    
    19   12   13 1    
    20   12   39 1    
    21   12   40 1    
    22   13   14 1    
    23   14   19 ar   
    24   14   15 ar   
    25   15   16 1    
    26   15   17 ar   
    27   17   18 ar   
    28   17   20 1    
    29   18   19 ar   
    30   20   21 1    
    31   20   41 1    
    32   20   42 1    
    33   21   22 1    
    34   21   43 1    
    35   21   44 1    
    36   22   26 1    
    37   22   23 1    
    38   22   45 1    
    39   23   24 1    
    40   23   46 1    
    41   23   47 1    
    42   24   25 1    
    43   24   48 1    
    44   24   49 1    
    45   25   26 1    
    46   25   50 1    
    47   25   51 1    
    48   26   52 1    
    49   26   53 1    
    50   27   32 ar   
    51   27   28 ar   
    52   28   29 ar   
    53   28   54 1    
    54   29   30 ar   
    55   29   55 1    
    56   30   31 ar   
    57   30   56 1    
    58   31   32 ar   
    59   31   33 1    
    60   32   57 1    
    61   34   58 1    
    62   34   59 1    
    63   34   60 1    
@<TRIPOS>SUBSTRUCTURE
     1 UNK         1 GROUP             0       ****    0 ROOT    
