@<TRIPOS>MOLECULE
ZINC31807884_798
59   62    1
SMALL
USER_CHARGES


@<TRIPOS>ATOM
      1 C1          4.8293   54.7423   25.2619 C.3       1 UNK         0.0000 
      2 C2          3.6362   54.0966   25.9513 C.ar      1 UNK         0.0000 
      3 C3          2.5681   53.6219   25.1865 C.ar      1 UNK         0.0000 
      4 N4          1.5254   53.0377   25.8047 N.pl3     1 UNK         0.0000 
      5 C5          1.4172   52.8935   27.1438 C.ar      1 UNK         0.0000 
      6 C6          2.4582   53.3780   27.9584 C.ar      1 UNK         0.0000 
      7 C7          3.5899   53.9633   27.3505 C.ar      1 UNK         0.0000 
      8 O8          4.6441   54.4157   28.1070 O.3       1 UNK         0.0000 
      9 C9          5.6150   53.4204   28.4114 C.3       1 UNK         0.0000 
     10 C10         2.3629   53.2690   29.4774 C.3       1 UNK         0.0000 
     11 C11         0.1583   52.2051   27.7004 C.3       1 UNK         0.0000 
     12 N12        -0.6115   51.4566   26.6917 N.3       1 UNK         0.0000 
     13 C13         0.0680   50.1883   26.3824 C.3       1 UNK         0.0000 
     14 C14        -0.6361   49.4571   25.2307 C.3       1 UNK         0.0000 
     15 N15        -2.0993   49.1439   25.6332 N.4       1 UNK         0.0000 
     16 C16        -2.8133   50.4418   26.0858 C.3       1 UNK         0.0000 
     17 C17        -1.9767   51.1759   27.1622 C.3       1 UNK         0.0000 
     18 C18        -2.9652   48.3720   24.5713 C.3       1 UNK         0.0000 
     19 H19        -3.9863   48.5419   24.9140 H         1 UNK         0.0000 
     20 C20        -2.7694   48.8691   23.1287 C.ar      1 UNK         0.0000 
     21 C21        -1.6404   48.7917   22.3211 C.ar      1 UNK         0.0000 
     22 N22        -1.8987   49.2885   21.0710 N.pl3     1 UNK         0.0000 
     23 H23        -1.2000   49.3248   20.3420 H         1 UNK         0.0000 
     24 C24        -3.2235   49.6463   20.9835 C.ar      1 UNK         0.0000 
     25 C25        -3.8051   49.3789   22.2641 C.ar      1 UNK         0.0000 
     26 C26        -5.1778   49.6159   22.4309 C.ar      1 UNK         0.0000 
     27 C27        -5.9229   50.0971   21.3545 C.ar      1 UNK         0.0000 
     28 C28        -5.3256   50.3699   20.1260 C.ar      1 UNK         0.0000 
     29 C29        -3.9642   50.1546   19.9117 C.ar      1 UNK         0.0000 
     30 Br30       -6.3869   51.0765   18.7137 Br        1 UNK         0.0000 
     31 C31        -2.6974   46.8452   24.6693 C.2       1 UNK         0.0000 
     32 O32        -1.6958   46.4160   25.2818 O.co2     1 UNK         0.0000 
     33 O33        -3.5087   46.0960   24.0812 O.co2     1 UNK         0.0000 
     34 H34         5.7293   54.1414   25.4124 H         1 UNK         0.0000 
     35 H35         4.6739   54.8642   24.1873 H         1 UNK         0.0000 
     36 H36         5.0223   55.7286   25.6844 H         1 UNK         0.0000 
     37 H37         2.5149   53.6701   24.1069 H         1 UNK         0.0000 
     38 H38         6.4792   53.8906   28.8823 H         1 UNK         0.0000 
     39 H39         5.2178   52.6733   29.1015 H         1 UNK         0.0000 
     40 H40         5.9747   52.9072   27.5167 H         1 UNK         0.0000 
     41 H41         3.1193   53.8683   29.9863 H         1 UNK         0.0000 
     42 H42         1.3920   53.6305   29.8215 H         1 UNK         0.0000 
     43 H43         2.4607   52.2299   29.7941 H         1 UNK         0.0000 
     44 H44        -0.4630   52.9903   28.1387 H         1 UNK         0.0000 
     45 H45         0.4352   51.5318   28.5158 H         1 UNK         0.0000 
     46 H46         0.0668   49.5692   27.2804 H         1 UNK         0.0000 
     47 H47         1.1044   50.3557   26.0994 H         1 UNK         0.0000 
     48 H48        -0.1486   48.4981   25.0524 H         1 UNK         0.0000 
     49 H49        -0.6462   50.0696   24.3299 H         1 UNK         0.0000 
     50 H50        -2.9885   51.0425   25.1908 H         1 UNK         0.0000 
     51 H51        -3.7621   50.1181   26.5213 H         1 UNK         0.0000 
     52 H52        -2.4924   52.0965   27.4381 H         1 UNK         0.0000 
     53 H53        -1.9038   50.5447   28.0518 H         1 UNK         0.0000 
     54 H54        -0.6539   48.4060   22.5409 H         1 UNK         0.0000 
     55 H55        -5.6547   49.4138   23.3767 H         1 UNK         0.0000 
     56 H56        -6.9807   50.2801   21.4797 H         1 UNK         0.0000 
     57 H57        -3.5176   50.3560   18.9504 H         1 UNK         0.0000 
     58 H58        -2.0389   48.5477   26.4590 H         1 UNK         0.0000 
     59 H59         0.7608   52.6790   25.2474 H         1 UNK         0.0000 
@<TRIPOS>BOND
     1    1    2 1    
     2    1   34 1    
     3    1   35 1    
     4    1   36 1    
     5    2    7 ar   
     6    2    3 ar   
     7    3    4 ar   
     8    3   37 1    
     9    4    5 ar   
    10    4   59 1    
    11    5    6 ar   
    12    5   11 1    
    13    6    7 ar   
    14    6   10 1    
    15    7    8 1    
    16    8    9 1    
    17    9   38 1    
    18    9   39 1    
    19    9   40 1    
    20   10   41 1    
    21   10   42 1    
    22   10   43 1    
    23   11   12 1    
    24   11   44 1    
    25   11   45 1    
    26   12   17 1    
    27   12   13 1    
    28   13   14 1    
    29   13   46 1    
    30   13   47 1    
    31   14   15 1    
    32   14   48 1    
    33   14   49 1    
    34   15   16 1    
    35   15   18 1    
    36   15   58 1    
    37   16   17 1    
    38   16   50 1    
    39   16   51 1    
    40   17   52 1    
    41   17   53 1    
    42   18   19 1    
    43   18   20 1    
    44   18   31 1    
    45   20   25 ar   
    46   20   21 ar   
    47   21   22 ar   
    48   21   54 1    
    49   22   23 1    
    50   22   24 ar   
    51   24   29 ar   
    52   24   25 ar   
    53   25   26 ar   
    54   26   27 ar   
    55   26   55 1    
    56   27   28 ar   
    57   27   56 1    
    58   28   29 ar   
    59   28   30 1    
    60   29   57 1    
    61   31   32 2    
    62   31   33 1    
@<TRIPOS>SUBSTRUCTURE
     1 UNK         1 GROUP             0       ****    0 ROOT    
