@<TRIPOS>MOLECULE
ZINC09684902_824
51   54    1
SMALL
USER_CHARGES


@<TRIPOS>ATOM
      1 C1          1.1044   56.0833   30.9600 C.2       1 UNK         0.0000 
      2 C2          1.5564   56.6288   29.8342 C.2       1 UNK         0.0000 
      3 C3          1.6165   55.9736   28.4799 C.3       1 UNK         0.0000 
      4 N4          2.0000   54.5599   28.3651 N.am      1 UNK         0.0000 
      5 C5          3.2305   54.3285   27.7746 C.2       1 UNK         0.0000 
      6 N6          3.4155   54.3641   26.4797 N.2       1 UNK         0.0000 
      7 C7          4.6825   54.2278   26.1265 C.2       1 UNK         0.0000 
      8 C8          5.5478   54.0553   27.2181 C.2       1 UNK         0.0000 
      9 S9          4.6606   54.0980   28.7189 S.3       1 UNK         0.0000 
     10 C10         5.0464   54.2726   24.6689 C.ar      1 UNK         0.0000 
     11 C11         4.0621   54.0980   23.6832 C.ar      1 UNK         0.0000 
     12 C12         4.3894   54.1501   22.3326 C.ar      1 UNK         0.0000 
     13 C13         5.7042   54.4046   21.9577 C.ar      1 UNK         0.0000 
     14 C14         6.6975   54.5729   22.9194 C.ar      1 UNK         0.0000 
     15 C15         6.3694   54.5015   24.2723 C.ar      1 UNK         0.0000 
     16 C16         1.0980   53.5616   28.5743 C.2       1 UNK         0.0000 
     17 O17        -0.0151   53.7857   29.0560 O.2       1 UNK         0.0000 
     18 C18         1.4232   52.1098   28.1820 C.3       1 UNK         0.0000 
     19 S19        -0.0159   51.2775   27.4437 S.3       1 UNK         0.0000 
     20 C20         0.3059   51.5608   25.7353 C.ar      1 UNK         0.0000 
     21 N21         0.5836   52.7303   25.2142 N.2       1 UNK         0.0000 
     22 N22         0.7570   52.5494   23.8482 N.2       1 UNK         0.0000 
     23 C23         0.6560   51.2642   23.6090 C.ar      1 UNK         0.0000 
     24 N24         0.3822   50.5772   24.7749 N.pl3     1 UNK         0.0000 
     25 N25         0.1959   49.2123   24.9501 N.3       1 UNK         0.0000 
     26 C26         0.8344   50.6626   22.2553 C.ar      1 UNK         0.0000 
     27 C27         1.7700   49.6375   22.0817 C.ar      1 UNK         0.0000 
     28 C28         1.9769   49.0758   20.8216 C.ar      1 UNK         0.0000 
     29 C29         1.2629   49.5440   19.7204 C.ar      1 UNK         0.0000 
     30 C30         0.3269   50.5641   19.8845 C.ar      1 UNK         0.0000 
     31 C31         0.1089   51.1218   21.1453 C.ar      1 UNK         0.0000 
     32 F32        -0.8207   52.0967   21.2797 F         1 UNK         0.0000 
     33 H33         1.1102   56.6611   31.8722 H         1 UNK         0.0000 
     34 H34         0.7274   55.0745   31.0193 H         1 UNK         0.0000 
     35 H35         1.8992   57.6525   29.8709 H         1 UNK         0.0000 
     36 H36         2.2987   56.5670   27.8780 H         1 UNK         0.0000 
     37 H37         0.6392   56.0966   28.0222 H         1 UNK         0.0000 
     38 H38         6.6175   53.9082   27.2189 H         1 UNK         0.0000 
     39 H39         3.0338   53.9171   23.9559 H         1 UNK         0.0000 
     40 H40         3.6229   54.0142   21.5826 H         1 UNK         0.0000 
     41 H41         5.9560   54.4622   20.9087 H         1 UNK         0.0000 
     42 H42         7.7149   54.7599   22.6098 H         1 UNK         0.0000 
     43 H43         7.1487   54.6392   25.0058 H         1 UNK         0.0000 
     44 H44         2.2682   52.0118   27.5031 H         1 UNK         0.0000 
     45 H45         1.6798   51.5769   29.0960 H         1 UNK         0.0000 
     46 H46         0.9524   48.7896   25.4705 H         1 UNK         0.0000 
     47 H47        -0.7052   49.0028   25.3586 H         1 UNK         0.0000 
     48 H48         2.3508   49.2895   22.9239 H         1 UNK         0.0000 
     49 H49         2.7049   48.2880   20.6947 H         1 UNK         0.0000 
     50 H50         1.4399   49.1211   18.7414 H         1 UNK         0.0000 
     51 H51        -0.2279   50.9271   19.0327 H         1 UNK         0.0000 
@<TRIPOS>BOND
     1    1    2 2    
     2    1   33 1    
     3    1   34 1    
     4    2    3 1    
     5    2   35 1    
     6    3    4 1    
     7    3   36 1    
     8    3   37 1    
     9    4    5 am   BACKBONE|DICT|INTERRES
    10    4   16 am   BACKBONE|DICT|INTERRES
    11    5    9 1    
    12    5    6 2    
    13    6    7 1    
    14    7    8 2    
    15    7   10 1    
    16    8    9 1    
    17    8   38 1    
    18   10   15 ar   
    19   10   11 ar   
    20   11   12 ar   
    21   11   39 1    
    22   12   13 ar   
    23   12   40 1    
    24   13   14 ar   
    25   13   41 1    
    26   14   15 ar   
    27   14   42 1    
    28   15   43 1    
    29   16   17 2    
    30   16   18 1    
    31   18   19 1    
    32   18   44 1    
    33   18   45 1    
    34   19   20 1    
    35   20   24 ar   
    36   20   21 ar   
    37   21   22 ar   
    38   22   23 ar   
    39   23   24 ar   
    40   23   26 1    
    41   24   25 1    
    42   25   46 1    
    43   25   47 1    
    44   26   31 ar   
    45   26   27 ar   
    46   27   28 ar   
    47   27   48 1    
    48   28   29 ar   
    49   28   49 1    
    50   29   30 ar   
    51   29   50 1    
    52   30   31 ar   
    53   30   51 1    
    54   31   32 1    
@<TRIPOS>SUBSTRUCTURE
     1 UNK         1 GROUP             0       ****    0 ROOT    
