ZINC39667068_3685
                    3D
 Schrodinger Suite 2024-2.
 68 71  0  0  1  0            999 V2000
   -3.3528   53.0983   24.9816 C   0  0  0  0  0  0
   -2.4188   52.3613   24.0388 C   0  0  0  0  0  0
   -1.0354   52.4986   24.1578 C   0  0  0  0  0  0
   -0.1860   51.7828   23.3155 C   0  0  0  0  0  0
   -0.7064   50.9317   22.3342 C   0  0  0  0  0  0
   -2.1012   50.8014   22.2024 C   0  0  0  0  0  0
   -2.9419   51.5078   23.0665 C   0  0  0  0  0  0
   -2.7295   49.9068   21.1422 C   0  0  0  0  0  0
    0.2624   50.1478   21.4510 C   0  0  0  0  0  0
    0.7783   50.9255   20.2199 C   0  0  0  0  0  0
    1.5978   52.0987   20.5314 N   0  0  0  0  0  0
    2.8440   52.0301   21.0255 C   0  0  0  0  0  0
    3.3677   50.9583   21.3392 O   0  0  0  0  0  0
    3.5730   53.3805   21.2718 C   0  0  1  0  0  0
    2.8366   54.1668   21.4333 H   0  0  0  0  0  0
    4.4356   53.2226   22.5306 C   0  0  0  0  0  0
    5.4078   54.3085   22.4131 N   0  0  0  0  0  0
    5.5560   54.7424   21.0186 C   0  0  0  0  0  0
    4.6169   53.8265   20.1998 C   0  0  0  0  0  0
    3.9702   54.5157   18.9670 C   0  0  0  0  0  0
    4.9769   54.9529   17.8904 C   0  0  0  0  0  0
    5.7175   53.6969   17.3999 N   0  3  0  0  0  0
    6.4424   52.9738   18.5456 C   0  0  0  0  0  0
    5.4123   52.6153   19.6461 C   0  0  0  0  0  0
    6.0989   54.8958   23.4240 C   0  0  0  0  0  0
    7.0069   55.6964   23.2018 O   0  0  0  0  0  0
    5.7097   54.6091   24.8575 C   0  0  0  0  0  0
    6.7044   54.4185   25.8190 C   0  0  0  0  0  0
    6.3717   54.0984   27.1347 C   0  0  0  0  0  0
    5.0330   53.9744   27.5047 C   0  0  0  0  0  0
    4.0200   54.2295   26.5741 C   0  0  0  0  0  0
    4.3685   54.5802   25.2698 C   0  0  0  0  0  0
    2.5511   54.0967   26.9473 C   0  0  0  0  0  0
    4.6098   53.4491   29.2817 Br  0  0  0  0  0  0
   -4.2323   52.4921   25.2026 H   0  0  0  0  0  0
   -2.8688   53.2979   25.9386 H   0  0  0  0  0  0
   -3.6870   54.0387   24.5413 H   0  0  0  0  0  0
   -0.6134   53.1467   24.9108 H   0  0  0  0  0  0
    0.8835   51.8869   23.4303 H   0  0  0  0  0  0
   -4.0127   51.3876   22.9859 H   0  0  0  0  0  0
   -2.5624   48.8566   21.3834 H   0  0  0  0  0  0
   -3.8027   50.0758   21.0441 H   0  0  0  0  0  0
   -2.2855   50.1014   20.1659 H   0  0  0  0  0  0
    1.1040   49.8081   22.0570 H   0  0  0  0  0  0
   -0.1906   49.2104   21.1294 H   0  0  0  0  0  0
    1.2648   50.2593   19.5039 H   0  0  0  0  0  0
   -0.0872   51.3252   19.6897 H   0  0  0  0  0  0
    1.2126   53.0102   20.3213 H   0  0  0  0  0  0
    3.8047   53.1677   23.4115 H   0  0  0  0  0  0
    5.0299   52.3090   22.4804 H   0  0  0  0  0  0
    6.5743   54.7936   20.6332 H   0  0  0  0  0  0
    5.1337   55.7453   20.9731 H   0  0  0  0  0  0
    3.1961   53.8808   18.5308 H   0  0  0  0  0  0
    3.4685   55.4218   19.2814 H   0  0  0  0  0  0
    4.4870   55.3851   17.0157 H   0  0  0  0  0  0
    5.7305   55.6510   18.2599 H   0  0  0  0  0  0
    5.0552   53.0482   16.9924 H   0  0  0  0  0  0
    6.8964   52.0968   18.0819 H   0  0  0  0  0  0
    7.2302   53.6498   18.8811 H   0  0  0  0  0  0
    5.9044   52.0845   20.4544 H   0  0  0  0  0  0
    4.6990   51.8903   19.2817 H   0  0  0  0  0  0
    7.7389   54.4967   25.5275 H   0  0  0  0  0  0
    7.1495   53.9243   27.8642 H   0  0  0  0  0  0
    3.5795   54.8232   24.5722 H   0  0  0  0  0  0
    2.2509   54.8986   27.6222 H   0  0  0  0  0  0
    1.9019   54.0966   26.0710 H   0  0  0  0  0  0
    2.3781   53.1508   27.4617 H   0  0  0  0  0  0
    6.3764   53.9372   16.6711 H   0  0  0  0  0  0
  1  2  1  0  0  0
  1 35  1  0  0  0
  1 36  1  0  0  0
  1 37  1  0  0  0
  2  7  2  0  0  0
  2  3  1  0  0  0
  3  4  2  0  0  0
  3 38  1  0  0  0
  4  5  1  0  0  0
  4 39  1  0  0  0
  5  6  2  0  0  0
  5  9  1  0  0  0
  6  7  1  0  0  0
  6  8  1  0  0  0
  7 40  1  0  0  0
  8 41  1  0  0  0
  8 42  1  0  0  0
  8 43  1  0  0  0
  9 10  1  0  0  0
  9 44  1  0  0  0
  9 45  1  0  0  0
 10 11  1  0  0  0
 10 46  1  0  0  0
 10 47  1  0  0  0
 11 12  1  0  0  0
 11 48  1  0  0  0
 12 13  2  0  0  0
 12 14  1  0  0  0
 14 15  1  0  0  0
 14 19  1  0  0  0
 14 16  1  0  0  0
 16 17  1  0  0  0
 16 49  1  0  0  0
 16 50  1  0  0  0
 17 18  1  0  0  0
 17 25  1  0  0  0
 18 19  1  0  0  0
 18 51  1  0  0  0
 18 52  1  0  0  0
 19 24  1  0  0  0
 19 20  1  0  0  0
 20 21  1  0  0  0
 20 53  1  0  0  0
 20 54  1  0  0  0
 21 22  1  0  0  0
 21 55  1  0  0  0
 21 56  1  0  0  0
 22 23  1  0  0  0
 22 57  1  0  0  0
 22 68  1  0  0  0
 23 24  1  0  0  0
 23 58  1  0  0  0
 23 59  1  0  0  0
 24 60  1  0  0  0
 24 61  1  0  0  0
 25 26  2  0  0  0
 25 27  1  0  0  0
 27 32  2  0  0  0
 27 28  1  0  0  0
 28 29  2  0  0  0
 28 62  1  0  0  0
 29 30  1  0  0  0
 29 63  1  0  0  0
 30 31  2  0  0  0
 30 34  1  0  0  0
 31 32  1  0  0  0
 31 33  1  0  0  0
 32 64  1  0  0  0
 33 65  1  0  0  0
 33 66  1  0  0  0
 33 67  1  0  0  0
M  CHG  1  22   1
M  END
> <i_i_glide_confnum>
57

> <i_i_glide_lignum>
3686

> <i_i_glide_posenum>
38

> <i_i_glide_rotatable_bonds>
7

> <i_m_Source_File_Index>
4033

> <b_m_subgroup_collapsed>
0

> <r_i_docking_score>
-5.33159

> <r_i_glide_ecoul>
-2.66029

> <r_i_glide_eff_state_penalty>
0

> <r_i_glide_einternal>
4.88611

> <r_i_glide_emodel>
-53.9556

> <r_i_glide_energy>
-39.2365

> <r_i_glide_erotb>
0.544409

> <r_i_glide_esite>
-0.0601542

> <r_i_glide_evdw>
-36.5762

> <r_i_glide_gscore>
-5.33159

> <r_i_glide_hbond>
-0.160684

> <r_i_glide_ligand_efficiency>
-0.161563

> <r_i_glide_ligand_efficiency_ln>
-1.18572

> <r_i_glide_ligand_efficiency_sa>
-0.51822

> <r_i_glide_lipo>
-2.76832

> <r_i_glide_metal>
0

> <r_i_glide_rewards>
-0.658991

> <s_i_glide_gridfile>
wee1_glide-grid

> <s_m_Source_File>
wee1_decoys_glide_SP.sdf

> <s_m_Source_Path>
/Users/zhangxujun/Desktop

> <s_m_entry_id>
4308

> <s_m_entry_name>
wee1_decoys_glide_SP.4033

> <s_m_subgroup_title>
wee1_decoys_glide_SP

> <s_m_subgroupid>
wee1_decoys_glide_SP


$$$$
