@<TRIPOS>MOLECULE
ZINC09597127_613
54   57    1
SMALL
USER_CHARGES


@<TRIPOS>ATOM
      1 C1         -6.0142   55.1700   27.0343 C.3       1 UNK         0.0000 
      2 O2         -4.9998   54.8342   26.0966 O.3       1 UNK         0.0000 
      3 C3         -5.2630   53.6237   25.3979 C.3       1 UNK         0.0000 
      4 C4         -4.1224   53.3063   24.4128 C.3       1 UNK         0.0000 
      5 N5         -2.9103   52.8966   25.1064 N.2       1 UNK         0.0000 
      6 C6         -2.6024   51.6593   25.2358 C.2       1 UNK         0.0000 
      7 C7         -1.2956   51.1174   25.8315 C.3       1 UNK         0.0000 
      8 C8         -1.1339   49.6900   25.2763 C.3       1 UNK         0.0000 
      9 H9         -0.7646   49.6868   24.2452 H         1 UNK         0.0000 
     10 C10        -2.5027   49.0270   25.4200 C.3       1 UNK         0.0000 
     11 H11        -2.7500   48.8768   26.4725 H         1 UNK         0.0000 
     12 S12        -3.6578   50.2550   24.7572 S.3       1 UNK         0.0000 
     13 C13        -2.6961   47.7207   24.6235 C.2       1 UNK         0.0000 
     14 O14        -2.1762   47.5959   23.5127 O.2       1 UNK         0.0000 
     15 C15        -3.6365   46.7156   25.1887 C.ar      1 UNK         0.0000 
     16 C16        -3.5759   46.3649   26.5425 C.ar      1 UNK         0.0000 
     17 C17        -4.4222   45.3806   27.0408 C.ar      1 UNK         0.0000 
     18 C18        -5.3362   44.7451   26.1986 C.ar      1 UNK         0.0000 
     19 C19        -5.4024   45.0995   24.8533 C.ar      1 UNK         0.0000 
     20 C20        -4.5400   46.0650   24.3412 C.ar      1 UNK         0.0000 
     21 O21        -6.1884   43.7692   26.6548 O.3       1 UNK         0.0000 
     22 C22        -5.5672   42.6383   27.2561 C.3       1 UNK         0.0000 
     23 F23        -4.8956   41.9593   26.3284 F         1 UNK         0.0000 
     24 F24        -6.5088   41.8480   27.7669 F         1 UNK         0.0000 
     25 C25        -0.0857   51.9923   25.4885 C.2       1 UNK         0.0000 
     26 N26         0.7445   52.4037   26.4113 N.2       1 UNK         0.0000 
     27 C27         1.7839   53.1153   25.8965 C.ar      1 UNK         0.0000 
     28 C28         2.8240   53.6806   26.6508 C.ar      1 UNK         0.0000 
     29 C29         3.8627   54.3209   25.9727 C.ar      1 UNK         0.0000 
     30 C30         3.8610   54.4217   24.5814 C.ar      1 UNK         0.0000 
     31 C31         2.8148   53.9104   23.8124 C.ar      1 UNK         0.0000 
     32 C32         1.7802   53.2476   24.4849 C.ar      1 UNK         0.0000 
     33 S33         0.3498   52.4587   23.8472 S.3       1 UNK         0.0000 
     34 H34        -5.7617   56.1092   27.5267 H         1 UNK         0.0000 
     35 H35        -6.9833   55.2977   26.5490 H         1 UNK         0.0000 
     36 H36        -6.1134   54.4044   27.8037 H         1 UNK         0.0000 
     37 H37        -6.1850   53.7516   24.8273 H         1 UNK         0.0000 
     38 H38        -5.4235   52.7878   26.0822 H         1 UNK         0.0000 
     39 H39        -3.8960   54.1921   23.8173 H         1 UNK         0.0000 
     40 H40        -4.4683   52.5724   23.6826 H         1 UNK         0.0000 
     41 H41        -1.4111   51.0962   26.9182 H         1 UNK         0.0000 
     42 H42        -2.8718   46.8284   27.2223 H         1 UNK         0.0000 
     43 H43        -4.3500   45.1108   28.0818 H         1 UNK         0.0000 
     44 H44        -6.1157   44.6114   24.2055 H         1 UNK         0.0000 
     45 H45        -4.5964   46.3172   23.2908 H         1 UNK         0.0000 
     46 H46        -4.8957   42.8823   28.0791 H         1 UNK         0.0000 
     47 H47        -0.4602   48.7415   27.0262 H         1 UNK         0.0000 
     48 H48         0.0881   47.9815   25.6935 H         1 UNK         0.0000 
     49 H49         2.8390   53.5921   27.7265 H         1 UNK         0.0000 
     50 H50         4.6886   54.7372   26.5324 H         1 UNK         0.0000 
     51 H51         4.6918   54.9017   24.0868 H         1 UNK         0.0000 
     52 H52         2.8146   54.0021   22.7341 H         1 UNK         0.0000 
     53 N53        -0.0956   48.8972   26.0817 N.4       1 UNK         0.0000 
     54 H54         0.7747   49.4029   26.1504 H         1 UNK         0.0000 
@<TRIPOS>BOND
     1    1    2 1    
     2    1   34 1    
     3    1   35 1    
     4    1   36 1    
     5    2    3 1    
     6    3    4 1    
     7    3   37 1    
     8    3   38 1    
     9    4   39 1    
    10    4   40 1    
    11    4    5 1    
    12    5    6 2    
    13    6   12 1    
    14    6    7 1    
    15    7    8 1    
    16    7   25 1    
    17    7   41 1    
    18    8    9 1    
    19    8   10 1    
    20    8   53 1    
    21   10   11 1    
    22   10   12 1    
    23   10   13 1    
    24   13   14 2    
    25   13   15 1    
    26   15   20 ar   
    27   15   16 ar   
    28   16   17 ar   
    29   16   42 1    
    30   17   18 ar   
    31   17   43 1    
    32   18   19 ar   
    33   18   21 1    
    34   19   20 ar   
    35   19   44 1    
    36   20   45 1    
    37   21   22 1    
    38   22   23 1    
    39   22   24 1    
    40   22   46 1    
    41   25   33 1    
    42   25   26 2    
    43   26   27 1    
    44   27   32 ar   
    45   27   28 ar   
    46   28   29 ar   
    47   28   49 1    
    48   29   30 ar   
    49   29   50 1    
    50   30   31 ar   
    51   30   51 1    
    52   31   32 ar   
    53   31   52 1    
    54   32   33 1    
    55   47   53 1    
    56   48   53 1    
    57   53   54 1    
@<TRIPOS>SUBSTRUCTURE
     1 UNK         1 GROUP             0       ****    0 ROOT    
