ZINC09739238_2292
                    3D
 Schrodinger Suite 2024-2.
 61 64  0  0  1  0            999 V2000
   -1.6008   48.0774   25.5337 C   0  0  0  0  0  0
   -0.8538   49.3196   25.1009 C   0  0  0  0  0  0
    0.3479   49.1673   24.4170 C   0  0  0  0  0  0
    1.1043   50.2811   24.0771 C   0  0  0  0  0  0
    0.6387   51.5583   24.3992 C   0  0  0  0  0  0
   -0.5862   51.7151   25.0561 C   0  0  0  0  0  0
   -1.3303   50.5929   25.4146 C   0  0  0  0  0  0
    1.6356   52.9947   23.9968 S   0  0  0  0  0  0
    0.7044   54.0967   23.7422 O   0  0  0  0  0  0
    2.5832   52.5585   22.9634 O   0  0  0  0  0  0
    2.5595   53.4381   25.4904 N   0  0  0  0  0  0
    1.8479   53.5032   26.7753 C   0  0  0  0  0  0
    2.6735   52.8516   27.8944 C   0  0  0  0  0  0
    4.0395   53.5270   28.0468 C   0  0  0  0  0  0
    4.6904   53.8084   26.6986 C   0  0  0  0  0  0
    3.9347   53.8236   25.5008 C   0  0  0  0  0  0
    4.5623   54.2348   24.3165 C   0  0  0  0  0  0
    5.9396   54.4972   24.2651 C   0  0  0  0  0  0
    6.6826   54.4204   25.4368 C   0  0  0  0  0  0
    6.0606   54.0969   26.6398 C   0  0  0  0  0  0
    6.6406   54.8651   23.1006 N   0  0  0  0  0  0
    6.2078   54.8971   21.8172 C   0  0  0  0  0  0
    5.1125   54.4965   21.4141 O   0  0  0  0  0  0
    7.2024   55.5185   20.9076 C   0  0  0  0  0  0
    8.3770   55.6968   21.2401 O   0  0  0  0  0  0
    6.6872   55.8870   19.7157 N   0  0  0  0  0  0
    7.3858   56.5774   18.7138 C   0  0  0  0  0  0
    6.8612   57.8119   18.3202 C   0  0  0  0  0  0
    7.5140   58.5798   17.3570 C   0  0  0  0  0  0
    8.6874   58.1122   16.7622 C   0  0  0  0  0  0
    9.2005   56.8681   17.1355 C   0  0  0  0  0  0
    8.5568   56.0835   18.0978 C   0  0  0  0  0  0
    9.1199   54.6977   18.3912 C   0  0  0  0  0  0
    9.4030   58.9536   15.7228 C   0  0  0  0  0  0
   -1.9551   47.5154   24.6680 H   0  0  0  0  0  0
   -0.9000   47.4443   26.0815 H   0  0  0  0  0  0
   -2.4482   48.3044   26.1843 H   0  0  0  0  0  0
    0.7079   48.1773   24.1783 H   0  0  0  0  0  0
    2.0517   50.1454   23.5742 H   0  0  0  0  0  0
   -0.9564   52.7001   25.3010 H   0  0  0  0  0  0
   -2.2629   50.7112   25.9506 H   0  0  0  0  0  0
    1.7086   54.5641   26.9797 H   0  0  0  0  0  0
    0.8504   53.0764   26.7198 H   0  0  0  0  0  0
    2.1244   52.8942   28.8358 H   0  0  0  0  0  0
    2.7994   51.7902   27.6816 H   0  0  0  0  0  0
    4.6946   52.9216   28.6760 H   0  0  0  0  0  0
    3.9092   54.4810   28.5596 H   0  0  0  0  0  0
    3.9702   54.3593   23.4301 H   0  0  0  0  0  0
    7.7397   54.6247   25.4166 H   0  0  0  0  0  0
    6.6522   54.0744   27.5455 H   0  0  0  0  0  0
    7.5997   55.1652   23.2423 H   0  0  0  0  0  0
    5.6966   55.7425   19.5700 H   0  0  0  0  0  0
    5.9579   58.1999   18.7690 H   0  0  0  0  0  0
    7.1038   59.5399   17.0750 H   0  0  0  0  0  0
   10.1008   56.5028   16.6642 H   0  0  0  0  0  0
    9.7807   54.7224   19.2565 H   0  0  0  0  0  0
    8.3169   53.9856   18.5803 H   0  0  0  0  0  0
    9.6748   54.3058   17.5392 H   0  0  0  0  0  0
    9.2082   60.0170   15.8735 H   0  0  0  0  0  0
    9.0798   58.6745   14.7193 H   0  0  0  0  0  0
   10.4835   58.8205   15.7912 H   0  0  0  0  0  0
  1  2  1  0  0  0
  1 35  1  0  0  0
  1 36  1  0  0  0
  1 37  1  0  0  0
  2  7  2  0  0  0
  2  3  1  0  0  0
  3  4  2  0  0  0
  3 38  1  0  0  0
  4  5  1  0  0  0
  4 39  1  0  0  0
  5  6  2  0  0  0
  5  8  1  0  0  0
  6  7  1  0  0  0
  6 40  1  0  0  0
  7 41  1  0  0  0
  8  9  2  0  0  0
  8 10  2  0  0  0
  8 11  1  0  0  0
 11 16  1  0  0  0
 11 12  1  0  0  0
 12 13  1  0  0  0
 12 42  1  0  0  0
 12 43  1  0  0  0
 13 14  1  0  0  0
 13 44  1  0  0  0
 13 45  1  0  0  0
 14 15  1  0  0  0
 14 46  1  0  0  0
 14 47  1  0  0  0
 15 20  2  0  0  0
 15 16  1  0  0  0
 16 17  2  0  0  0
 17 18  1  0  0  0
 17 48  1  0  0  0
 18 19  2  0  0  0
 18 21  1  0  0  0
 19 20  1  0  0  0
 19 49  1  0  0  0
 20 50  1  0  0  0
 21 22  1  0  0  0
 21 51  1  0  0  0
 22 23  2  0  0  0
 22 24  1  0  0  0
 24 25  2  0  0  0
 24 26  1  0  0  0
 26 27  1  0  0  0
 26 52  1  0  0  0
 27 32  2  0  0  0
 27 28  1  0  0  0
 28 29  2  0  0  0
 28 53  1  0  0  0
 29 30  1  0  0  0
 29 54  1  0  0  0
 30 31  2  0  0  0
 30 34  1  0  0  0
 31 32  1  0  0  0
 31 55  1  0  0  0
 32 33  1  0  0  0
 33 56  1  0  0  0
 33 57  1  0  0  0
 33 58  1  0  0  0
 34 59  1  0  0  0
 34 60  1  0  0  0
 34 61  1  0  0  0
M  END
> <i_i_glide_confnum>
453

> <i_i_glide_lignum>
2293

> <i_i_glide_posenum>
208

> <i_i_glide_rotatable_bonds>
7

> <i_m_Source_File_Index>
450

> <b_m_subgroup_collapsed>
0

> <r_i_docking_score>
-5.07518

> <r_i_glide_ecoul>
-1.81994

> <r_i_glide_eff_state_penalty>
0

> <r_i_glide_einternal>
9.2062

> <r_i_glide_emodel>
-54.3844

> <r_i_glide_energy>
-46.5878

> <r_i_glide_erotb>
0.621745

> <r_i_glide_esite>
0

> <r_i_glide_evdw>
-44.7679

> <r_i_glide_gscore>
-5.07518

> <r_i_glide_hbond>
-0.255484

> <r_i_glide_ligand_efficiency>
-0.14927

> <r_i_glide_ligand_efficiency_ln>
-1.12125

> <r_i_glide_ligand_efficiency_sa>
-0.483577

> <r_i_glide_lipo>
-2.33693

> <r_i_glide_metal>
0

> <r_i_glide_rewards>
-0.59313

> <s_i_glide_gridfile>
wee1_glide-grid

> <s_m_Source_File>
wee1_decoys_glide_SP.sdf

> <s_m_Source_Path>
/Users/zhangxujun/Desktop

> <s_m_entry_id>
725

> <s_m_entry_name>
wee1_decoys_glide_SP.450

> <s_m_subgroup_title>
wee1_decoys_glide_SP

> <s_m_subgroupid>
wee1_decoys_glide_SP


$$$$
