@<TRIPOS>MOLECULE
ZINC00650837_2329
57   61    1
SMALL
USER_CHARGES


@<TRIPOS>ATOM
      1 C1          1.0623   57.1262   16.2009 C.3       1 UNK         0.0000 
      2 O2          0.7533   55.7885   15.8205 O.3       1 UNK         0.0000 
      3 C3          1.6029   54.7665   16.1958 C.ar      1 UNK         0.0000 
      4 C4          1.3245   53.5018   15.6739 C.ar      1 UNK         0.0000 
      5 C5          2.1418   52.4119   15.9708 C.ar      1 UNK         0.0000 
      6 C6          3.2484   52.5785   16.7990 C.ar      1 UNK         0.0000 
      7 C7          3.5391   53.8298   17.3519 C.ar      1 UNK         0.0000 
      8 C8          2.7094   54.9189   17.0487 C.ar      1 UNK         0.0000 
      9 C9          4.7500   53.9950   18.2722 C.3       1 UNK         0.0000 
     10 H10         5.2726   53.0354   18.2166 H         1 UNK         0.0000 
     11 C11         5.7225   55.1043   17.8017 C.3       1 UNK         0.0000 
     12 C12         6.9830   55.2403   18.6885 C.3       1 UNK         0.0000 
     13 H13         7.6020   54.3585   18.5138 H         1 UNK         0.0000 
     14 N14         6.5432   55.1631   20.0901 N.pl3     1 UNK         0.0000 
     15 C15         5.3865   54.5564   20.5576 C.ar      1 UNK         0.0000 
     16 C16         5.4700   54.5661   21.9496 C.ar      1 UNK         0.0000 
     17 C17         6.7271   55.1535   22.1983 C.ar      1 UNK         0.0000 
     18 N18         7.3622   55.4891   21.1059 N.2       1 UNK         0.0000 
     19 C19         4.4823   54.0966   22.8971 C.2       1 UNK         0.0000 
     20 O20         3.4394   53.5706   22.5133 O.2       1 UNK         0.0000 
     21 N21         4.8210   54.3255   24.1856 N.am      1 UNK         0.0000 
     22 C22         4.0849   54.0594   25.3371 C.2       1 UNK         0.0000 
     23 C23         4.5928   54.0416   26.6422 C.2       1 UNK         0.0000 
     24 C24         3.6220   53.6805   27.6033 C.2       1 UNK         0.0000 
     25 C25         2.3608   53.4672   27.0272 C.2       1 UNK         0.0000 
     26 S26         2.3755   53.6960   25.3122 S.3       1 UNK         0.0000 
     27 C27         1.0938   53.1163   27.7977 C.3       1 UNK         0.0000 
     28 C28         1.4932   52.5207   29.1621 C.3       1 UNK         0.0000 
     29 C29         2.5231   53.4086   29.8834 C.3       1 UNK         0.0000 
     30 C30         3.8615   53.5323   29.1115 C.3       1 UNK         0.0000 
     31 C31         5.9921   54.2971   26.9591 C.1       1 UNK         0.0000 
     32 N32         7.1042   54.4971   27.2030 N.1       1 UNK         0.0000 
     33 N33         4.3903   54.1537   19.6824 N.pl3     1 UNK         0.0000 
     34 C34         7.8534   56.4769   18.3446 C.3       1 UNK         0.0000 
     35 F35         8.1062   56.5344   17.0389 F         1 UNK         0.0000 
     36 F36         7.2443   57.6163   18.6777 F         1 UNK         0.0000 
     37 F37         9.0310   56.4484   18.9667 F         1 UNK         0.0000 
     38 H38         0.3266   57.8054   15.7733 H         1 UNK         0.0000 
     39 H39         1.0258   57.2494   17.2812 H         1 UNK         0.0000 
     40 H40         2.0446   57.4332   15.8363 H         1 UNK         0.0000 
     41 H41         0.4726   53.3689   15.0256 H         1 UNK         0.0000 
     42 H42         1.9222   51.4386   15.5570 H         1 UNK         0.0000 
     43 H43         3.8735   51.7201   17.0131 H         1 UNK         0.0000 
     44 H44         2.9353   55.8803   17.4829 H         1 UNK         0.0000 
     45 H45         5.2064   56.0655   17.7619 H         1 UNK         0.0000 
     46 H46         6.0239   54.9202   16.7684 H         1 UNK         0.0000 
     47 H47         7.1848   55.3324   23.1596 H         1 UNK         0.0000 
     48 H48         5.7651   54.6394   24.3411 H         1 UNK         0.0000 
     49 H49         0.4697   52.4135   27.2449 H         1 UNK         0.0000 
     50 H50         0.4950   54.0129   27.9514 H         1 UNK         0.0000 
     51 H51         1.8987   51.5163   29.0252 H         1 UNK         0.0000 
     52 H52         0.6025   52.4026   29.7819 H         1 UNK         0.0000 
     53 H53         2.7107   53.0087   30.8797 H         1 UNK         0.0000 
     54 H54         2.0935   54.4036   30.0277 H         1 UNK         0.0000 
     55 H55         4.4339   54.3722   29.5039 H         1 UNK         0.0000 
     56 H56         4.4640   52.6404   29.2901 H         1 UNK         0.0000 
     57 H57         3.7561   53.4325   19.9954 H         1 UNK         0.0000 
@<TRIPOS>BOND
     1    1    2 1    
     2    1   38 1    
     3    1   39 1    
     4    1   40 1    
     5    2    3 1    
     6    3    8 ar   
     7    3    4 ar   
     8    4    5 ar   
     9    4   41 1    
    10    5    6 ar   
    11    5   42 1    
    12    6    7 ar   
    13    6   43 1    
    14    7    8 ar   
    15    7    9 1    
    16    8   44 1    
    17    9   10 1    
    18    9   33 1    
    19    9   11 1    
    20   11   12 1    
    21   11   45 1    
    22   11   46 1    
    23   12   13 1    
    24   12   14 1    
    25   12   34 1    
    26   14   18 ar   
    27   14   15 ar   
    28   15   16 ar   
    29   15   33 1    
    30   16   17 ar   
    31   16   19 1    
    32   17   18 ar   
    33   17   47 1    
    34   19   20 2    
    35   19   21 am   BACKBONE|DICT|INTERRES
    36   21   22 am   BACKBONE|DICT|INTERRES
    37   21   48 1    
    38   22   26 1    
    39   22   23 2    
    40   23   24 1    
    41   23   31 1    
    42   24   30 1    
    43   24   25 2    
    44   25   26 1    
    45   25   27 1    
    46   27   28 1    
    47   27   49 1    
    48   27   50 1    
    49   28   29 1    
    50   28   51 1    
    51   28   52 1    
    52   29   30 1    
    53   29   53 1    
    54   29   54 1    
    55   30   55 1    
    56   30   56 1    
    57   31   32 3    
    58   33   57 1    
    59   34   35 1    
    60   34   36 1    
    61   34   37 1    
@<TRIPOS>SUBSTRUCTURE
     1 UNK         1 GROUP             0       ****    0 ROOT    
