@<TRIPOS>MOLECULE
ZINC06292347_3560
41   44    1
SMALL
USER_CHARGES


@<TRIPOS>ATOM
      1 C1          5.1083   52.0528   20.9307 C.3       1 UNK         0.0000 
      2 C2          4.6112   53.5049   21.0342 C.3       1 UNK         0.0000 
      3 H3          4.3453   53.8073   20.0193 H         1 UNK         0.0000 
      4 C4          5.6705   54.5289   21.5101 C.3       1 UNK         0.0000 
      5 C5          6.1376   54.2789   22.9662 C.3       1 UNK         0.0000 
      6 C6          4.9092   54.0970   23.8623 C.2       1 UNK         0.0000 
      7 C7          3.6412   53.7874   23.3323 C.2       1 UNK         0.0000 
      8 S8          2.3972   53.6968   24.5319 S.3       1 UNK         0.0000 
      9 C9          3.5494   54.0668   25.7528 C.ar      1 UNK         0.0000 
     10 C10         4.8487   54.2433   25.2655 C.ar      1 UNK         0.0000 
     11 C11         5.9090   54.5565   26.2385 C.ar      1 UNK         0.0000 
     12 O12         7.0957   54.8146   26.0482 O.2       1 UNK         0.0000 
     13 N13         5.4134   54.5601   27.5167 N.pl3     1 UNK         0.0000 
     14 H14         6.1147   54.7623   28.2138 H         1 UNK         0.0000 
     15 C15         4.1011   54.3802   27.9171 C.ar      1 UNK         0.0000 
     16 N16         3.1744   54.1538   27.0534 N.2       1 UNK         0.0000 
     17 C17         3.7457   54.4997   29.3980 C.3       1 UNK         0.0000 
     18 H18         4.6069   54.8960   29.9363 H         1 UNK         0.0000 
     19 C19         2.5820   55.5064   29.6134 C.3       1 UNK         0.0000 
     20 S20         3.5069   52.8199   30.0878 S.3       1 UNK         0.0000 
     21 C21         1.8025   52.5424   29.7560 C.2       1 UNK         0.0000 
     22 N22         0.8227   52.8910   30.5558 N.2       1 UNK         0.0000 
     23 N23        -0.4240   52.5021   30.0821 N.2       1 UNK         0.0000 
     24 C24        -0.3462   51.8536   28.9508 C.2       1 UNK         0.0000 
     25 S25         1.2666   51.6965   28.3331 S.3       1 UNK         0.0000 
     26 N26        -1.4037   51.2968   28.2978 N.pl3     1 UNK         0.0000 
     27 C27         3.3135   53.6298   21.8629 C.3       1 UNK         0.0000 
     28 H28         5.4870   51.6843   21.8843 H         1 UNK         0.0000 
     29 H29         4.3124   51.3806   20.6066 H         1 UNK         0.0000 
     30 H30         5.9037   51.9709   20.1905 H         1 UNK         0.0000 
     31 H31         6.5399   54.4998   20.8529 H         1 UNK         0.0000 
     32 H32         5.2642   55.5371   21.4231 H         1 UNK         0.0000 
     33 H33         6.7572   55.1118   23.3026 H         1 UNK         0.0000 
     34 H34         6.7720   53.3938   23.0197 H         1 UNK         0.0000 
     35 H35         2.8522   56.5081   29.2790 H         1 UNK         0.0000 
     36 H36         1.6786   55.2209   29.0721 H         1 UNK         0.0000 
     37 H37         2.3031   55.5986   30.6602 H         1 UNK         0.0000 
     38 H38        -2.3214   51.5056   28.6576 H         1 UNK         0.0000 
     39 H39        -1.3357   50.3027   28.0788 H         1 UNK         0.0000 
     40 H40         2.6559   52.7772   21.6891 H         1 UNK         0.0000 
     41 H41         2.7594   54.5067   21.5574 H         1 UNK         0.0000 
@<TRIPOS>BOND
     1    1    2 1    
     2    1   28 1    
     3    1   29 1    
     4    1   30 1    
     5    2    3 1    
     6    2   27 1    
     7    2    4 1    
     8    4    5 1    
     9    4   31 1    
    10    4   32 1    
    11    5    6 1    
    12    5   33 1    
    13    5   34 1    
    14    6   10 1    
    15    6    7 2    
    16    7    8 1    
    17    7   27 1    
    18    8    9 1    
    19    9   16 ar   
    20    9   10 ar   
    21   10   11 ar   
    22   11   12 2    
    23   11   13 ar   
    24   13   14 1    
    25   13   15 ar   
    26   15   16 ar   
    27   15   17 1    
    28   17   18 1    
    29   17   19 1    
    30   17   20 1    
    31   19   35 1    
    32   19   36 1    
    33   19   37 1    
    34   20   21 1    
    35   21   25 1    
    36   21   22 2    
    37   22   23 1    
    38   23   24 2    
    39   24   25 1    
    40   24   26 1    
    41   26   38 1    
    42   26   39 1    
    43   27   40 1    
    44   27   41 1    
@<TRIPOS>SUBSTRUCTURE
     1 UNK         1 GROUP             0       ****    0 ROOT    
