@<TRIPOS>MOLECULE
ZINC14944234_2597
51   55    1
SMALL
USER_CHARGES


@<TRIPOS>ATOM
      1 C1         -4.4714   49.6589   23.3898 C.ar      1 UNK         0.0000 
      2 C2         -3.2988   50.1678   23.9424 C.ar      1 UNK         0.0000 
      3 C3         -2.1500   49.3715   24.0245 C.ar      1 UNK         0.0000 
      4 C4         -2.2001   48.0515   23.5621 C.ar      1 UNK         0.0000 
      5 C5         -3.3785   47.5160   23.0155 C.ar      1 UNK         0.0000 
      6 C6         -4.5102   48.3432   22.9287 C.ar      1 UNK         0.0000 
      7 C7         -3.4320   46.0915   22.5502 C.2       1 UNK         0.0000 
      8 O8         -2.4956   45.3254   22.8813 O.co2     1 UNK         0.0000 
      9 C9         -0.8556   49.9226   24.6204 C.3       1 UNK         0.0000 
     10 H10        -0.0824   49.1730   24.4368 H         1 UNK         0.0000 
     11 C11        -0.4029   51.2529   23.9619 C.3       1 UNK         0.0000 
     12 H12        -1.1700   52.0000   24.1896 H         1 UNK         0.0000 
     13 C13        -0.1582   51.3291   22.4582 C.3       1 UNK         0.0000 
     14 C14         0.7941   52.5151   22.3882 C.2       1 UNK         0.0000 
     15 C15         1.3180   52.7956   23.6011 C.2       1 UNK         0.0000 
     16 C16         0.9137   51.7043   24.5672 C.3       1 UNK         0.0000 
     17 H17         1.6496   50.9026   24.4821 H         1 UNK         0.0000 
     18 C18         0.6819   51.9711   26.0547 C.ar      1 UNK         0.0000 
     19 C19         1.3229   52.9862   26.7819 C.ar      1 UNK         0.0000 
     20 C20         1.0976   53.1490   28.1558 C.ar      1 UNK         0.0000 
     21 C21         0.2074   52.2979   28.8106 C.ar      1 UNK         0.0000 
     22 C22        -0.4484   51.2980   28.1037 C.ar      1 UNK         0.0000 
     23 C23        -0.2047   51.1153   26.7458 C.ar      1 UNK         0.0000 
     24 N24        -0.9282   50.0987   26.0815 N.pl3     1 UNK         0.0000 
     25 S25         1.9467   54.4220   29.1020 S.o2      1 UNK         0.0000 
     26 O26         1.8921   55.6942   28.3773 O.2       1 UNK         0.0000 
     27 O27         1.4488   54.3414   30.4785 O.2       1 UNK         0.0000 
     28 N28         3.6374   53.9106   29.1888 N.pl3     1 UNK         0.0000 
     29 C29         4.5693   54.0499   28.1573 C.ar      1 UNK         0.0000 
     30 N30         5.8163   53.6078   28.4515 N.ar      1 UNK         0.0000 
     31 C31         6.7418   53.7061   27.4647 C.ar      1 UNK         0.0000 
     32 C32         6.4526   54.2339   26.2046 C.ar      1 UNK         0.0000 
     33 C33         5.1423   54.6612   25.9952 C.ar      1 UNK         0.0000 
     34 N34         4.1930   54.5767   26.9604 N.ar      1 UNK         0.0000 
     35 H35        -5.3522   50.2787   23.3263 H         1 UNK         0.0000 
     36 H36        -3.2897   51.1833   24.3087 H         1 UNK         0.0000 
     37 H37        -1.3179   47.4324   23.6403 H         1 UNK         0.0000 
     38 H38        -5.4327   47.9649   22.5110 H         1 UNK         0.0000 
     39 H39         0.2756   50.4103   22.0601 H         1 UNK         0.0000 
     40 H40        -1.0914   51.5112   21.9241 H         1 UNK         0.0000 
     41 H41         0.9796   53.0557   21.4701 H         1 UNK         0.0000 
     42 H42         2.0343   53.5701   23.8348 H         1 UNK         0.0000 
     43 H43         1.9913   53.6504   26.2624 H         1 UNK         0.0000 
     44 H44         0.0049   52.4039   29.8676 H         1 UNK         0.0000 
     45 H45        -1.1541   50.6610   28.6168 H         1 UNK         0.0000 
     46 H46        -1.2983   49.3188   26.6213 H         1 UNK         0.0000 
     47 H47         3.9346   53.4155   30.0131 H         1 UNK         0.0000 
     48 H48         7.7279   53.3406   27.7033 H         1 UNK         0.0000 
     49 H49         7.1957   54.2953   25.4240 H         1 UNK         0.0000 
     50 H50         4.8344   55.0773   25.0479 H         1 UNK         0.0000 
     51 O51        -4.4262   45.7237   21.8810 O.co2     1 UNK         0.0000 
@<TRIPOS>BOND
     1    1    6 ar   
     2    1    2 ar   
     3    1   35 1    
     4    2    3 ar   
     5    2   36 1    
     6    3    4 ar   
     7    3    9 1    
     8    4    5 ar   
     9    4   37 1    
    10    5    6 ar   
    11    5    7 1    
    12    6   38 1    
    13    7    8 2    
    14    7   51 1    
    15    9   10 1    
    16    9   24 1    
    17    9   11 1    
    18   11   12 1    
    19   11   16 1    
    20   11   13 1    
    21   13   14 1    
    22   13   39 1    
    23   13   40 1    
    24   14   15 2    
    25   14   41 1    
    26   15   16 1    
    27   15   42 1    
    28   16   17 1    
    29   16   18 1    
    30   18   23 ar   
    31   18   19 ar   
    32   19   20 ar   
    33   19   43 1    
    34   20   21 ar   
    35   20   25 1    
    36   21   22 ar   
    37   21   44 1    
    38   22   23 ar   
    39   22   45 1    
    40   23   24 1    
    41   24   46 1    
    42   25   26 2    
    43   25   27 2    
    44   25   28 1    
    45   28   29 1    
    46   28   47 1    
    47   29   34 ar   
    48   29   30 ar   
    49   30   31 ar   
    50   31   32 ar   
    51   31   48 1    
    52   32   33 ar   
    53   32   49 1    
    54   33   34 ar   
    55   33   50 1    
@<TRIPOS>SUBSTRUCTURE
     1 UNK         1 GROUP             0       ****    0 ROOT    
