@<TRIPOS>MOLECULE
ZINC35684478_2685
52   55    1
SMALL
USER_CHARGES


@<TRIPOS>ATOM
      1 C1          6.7831   54.6185   22.6557 C.3       1 UNK         0.0000 
      2 C2          5.7507   54.3543   23.7329 C.ar      1 UNK         0.0000 
      3 C3          4.4164   54.1182   23.3930 C.ar      1 UNK         0.0000 
      4 C4          3.4712   53.9117   24.3976 C.ar      1 UNK         0.0000 
      5 C5          3.8595   53.9239   25.7421 C.ar      1 UNK         0.0000 
      6 C6          5.2056   54.1310   26.0682 C.ar      1 UNK         0.0000 
      7 C7          6.1465   54.3568   25.0692 C.ar      1 UNK         0.0000 
      8 C8          2.8570   53.6765   26.8234 C.ar      1 UNK         0.0000 
      9 C9          2.7822   54.2934   28.0916 C.ar      1 UNK         0.0000 
     10 C10         1.6978   53.7268   28.6973 C.ar      1 UNK         0.0000 
     11 N11         1.3356   52.6704   27.8793 N.pl3     1 UNK         0.0000 
     12 N12         1.9312   52.7424   26.6884 N.2       1 UNK         0.0000 
     13 C13         0.3389   51.6525   28.2798 C.3       1 UNK         0.0000 
     14 H14         0.6179   50.6773   27.8718 H         1 UNK         0.0000 
     15 C15         0.3038   51.6860   29.8508 C.3       1 UNK         0.0000 
     16 C16         0.4527   53.0779   30.4459 C.2       1 UNK         0.0000 
     17 N17         1.1538   53.9877   29.9233 N.2       1 UNK         0.0000 
     18 O18        -0.0903   53.2954   31.6820 O.3       1 UNK         0.0000 
     19 C19        -1.0494   51.8842   27.6852 C.2       1 UNK         0.0000 
     20 O20        -1.2942   52.9920   27.2530 O.2       1 UNK         0.0000 
     21 N21        -1.9671   50.8969   27.6942 N.am      1 UNK         0.0000 
     22 C22        -3.3106   51.0255   27.2888 C.ar      1 UNK         0.0000 
     23 C23        -4.2728   50.2796   27.9713 C.ar      1 UNK         0.0000 
     24 C24        -5.6273   50.4594   27.6853 C.ar      1 UNK         0.0000 
     25 C25        -6.0283   51.3915   26.7259 C.ar      1 UNK         0.0000 
     26 C26        -5.0756   52.1239   25.9995 C.ar      1 UNK         0.0000 
     27 C27        -3.7197   51.8928   26.2636 C.ar      1 UNK         0.0000 
     28 C28        -5.5001   53.1778   25.0183 C.2       1 UNK         0.0000 
     29 O29        -6.6605   53.5617   24.8844 O.2       1 UNK         0.0000 
     30 C30        -4.4289   53.8162   24.1305 C.3       1 UNK         0.0000 
     31 C31         3.6486   55.3177   28.7402 C.3       1 UNK         0.0000 
     32 H32         7.6622   53.9955   22.8286 H         1 UNK         0.0000 
     33 H33         6.3923   54.4076   21.6578 H         1 UNK         0.0000 
     34 H34         7.1109   55.6592   22.6950 H         1 UNK         0.0000 
     35 H35         4.1065   54.1100   22.3562 H         1 UNK         0.0000 
     36 H36         2.4384   53.7380   24.1332 H         1 UNK         0.0000 
     37 H37         5.5401   54.0975   27.0944 H         1 UNK         0.0000 
     38 H38         7.1799   54.5236   25.3368 H         1 UNK         0.0000 
     39 H39        -0.5264   51.1365   30.2902 H         1 UNK         0.0000 
     40 H40         1.2606   51.2337   30.0849 H         1 UNK         0.0000 
     41 H41        -0.6142   52.5398   31.9987 H         1 UNK         0.0000 
     42 H42        -1.7069   49.9915   28.0968 H         1 UNK         0.0000 
     43 H43        -3.9729   49.5856   28.7459 H         1 UNK         0.0000 
     44 H44        -6.3692   49.8966   28.2279 H         1 UNK         0.0000 
     45 H45        -7.0861   51.5379   26.5557 H         1 UNK         0.0000 
     46 H46        -2.9646   52.4187   25.6991 H         1 UNK         0.0000 
     47 H47        -3.5966   54.1681   24.7327 H         1 UNK         0.0000 
     48 H48        -4.0277   53.0885   23.4208 H         1 UNK         0.0000 
     49 H49        -4.8344   54.6746   23.5990 H         1 UNK         0.0000 
     50 H50         3.0505   56.1631   29.0759 H         1 UNK         0.0000 
     51 H51         4.1144   54.9266   29.6442 H         1 UNK         0.0000 
     52 H52         4.4299   55.6951   28.0907 H         1 UNK         0.0000 
@<TRIPOS>BOND
     1    1    2 1    
     2    1   32 1    
     3    1   33 1    
     4    1   34 1    
     5    2    7 ar   
     6    2    3 ar   
     7    3    4 ar   
     8    3   35 1    
     9    4    5 ar   
    10    4   36 1    
    11    5    6 ar   
    12    5    8 1    
    13    6    7 ar   
    14    6   37 1    
    15    7   38 1    
    16    8   12 ar   
    17    8    9 ar   
    18    9   10 ar   
    19    9   31 1    
    20   10   17 1    
    21   10   11 ar   
    22   11   12 ar   
    23   11   13 1    
    24   13   14 1    
    25   13   15 1    
    26   13   19 1    
    27   15   16 1    
    28   15   39 1    
    29   15   40 1    
    30   16   17 2    
    31   16   18 1    
    32   18   41 1    
    33   19   20 2    
    34   19   21 am   BACKBONE|DICT|INTERRES
    35   21   22 1    
    36   21   42 1    
    37   22   27 ar   
    38   22   23 ar   
    39   23   24 ar   
    40   23   43 1    
    41   24   25 ar   
    42   24   44 1    
    43   25   26 ar   
    44   25   45 1    
    45   26   27 ar   
    46   26   28 1    
    47   27   46 1    
    48   28   29 2    
    49   28   30 1    
    50   30   47 1    
    51   30   48 1    
    52   30   49 1    
    53   31   50 1    
    54   31   51 1    
    55   31   52 1    
@<TRIPOS>SUBSTRUCTURE
     1 UNK         1 GROUP             0       ****    0 ROOT    
