@<TRIPOS>MOLECULE
ZINC40329503_1742
39   41    1
SMALL
USER_CHARGES


@<TRIPOS>ATOM
      1 C1          4.9147   54.3525   24.0406 C.3       1 UNK         0.0000 
      2 C2          5.2379   54.2228   25.5256 C.ar      1 UNK         0.0000 
      3 C3          6.5449   54.4785   25.9432 C.ar      1 UNK         0.0000 
      4 C4          6.8938   54.3344   27.2813 C.ar      1 UNK         0.0000 
      5 C5          5.9446   53.9427   28.2167 C.ar      1 UNK         0.0000 
      6 C6          4.6262   53.6904   27.8303 C.ar      1 UNK         0.0000 
      7 C7          4.2684   53.8343   26.4689 C.ar      1 UNK         0.0000 
      8 N8          2.9622   53.5825   26.0328 N.pl3     1 UNK         0.0000 
      9 C9          3.6282   53.2861   28.8924 C.2       1 UNK         0.0000 
     10 O10         3.6956   52.1651   29.4034 O.2       1 UNK         0.0000 
     11 N11         2.6649   54.1872   29.2081 N.am      1 UNK         0.0000 
     12 C12         2.7245   55.5950   28.8067 C.3       1 UNK         0.0000 
     13 C13         1.3737   56.1415   29.2118 C.3       1 UNK         0.0000 
     14 C14         0.9828   55.2931   30.4075 C.3       1 UNK         0.0000 
     15 C15         1.5147   53.8920   30.0790 C.3       1 UNK         0.0000 
     16 H16         1.8796   53.3981   30.9808 H         1 UNK         0.0000 
     17 C17         0.4645   53.0107   29.4241 C.ar      1 UNK         0.0000 
     18 C18         0.1281   52.8026   28.0883 C.ar      1 UNK         0.0000 
     19 C19        -0.8955   51.8567   28.0209 C.ar      1 UNK         0.0000 
     20 C20        -1.2179   51.5255   29.3209 C.ar      1 UNK         0.0000 
     21 N21        -0.3812   52.2136   30.1599 N.pl3     1 UNK         0.0000 
     22 H22        -0.3987   52.1399   31.1709 H         1 UNK         0.0000 
     23 H23         4.7944   53.3663   23.5933 H         1 UNK         0.0000 
     24 H24         3.9840   54.8977   23.8935 H         1 UNK         0.0000 
     25 H25         5.6889   54.8936   23.4963 H         1 UNK         0.0000 
     26 H26         7.2967   54.7709   25.2252 H         1 UNK         0.0000 
     27 H27         7.9046   54.5237   27.6074 H         1 UNK         0.0000 
     28 H28         6.2453   53.8545   29.2508 H         1 UNK         0.0000 
     29 H29         2.3800   53.0303   26.6464 H         1 UNK         0.0000 
     30 H30         2.8252   53.5192   25.0351 H         1 UNK         0.0000 
     31 H31         3.5150   56.0979   29.3547 H         1 UNK         0.0000 
     32 H32         2.8675   55.6964   27.7317 H         1 UNK         0.0000 
     33 H33         1.3939   57.2142   29.4102 H         1 UNK         0.0000 
     34 H34         0.7041   55.9706   28.3750 H         1 UNK         0.0000 
     35 H35         1.4877   55.6971   31.2825 H         1 UNK         0.0000 
     36 H36        -0.0899   55.2985   30.6103 H         1 UNK         0.0000 
     37 H37         0.5876   53.2891   27.2439 H         1 UNK         0.0000 
     38 H38        -1.3565   51.4628   27.1254 H         1 UNK         0.0000 
     39 H39        -1.9435   50.8335   29.7265 H         1 UNK         0.0000 
@<TRIPOS>BOND
     1    1    2 1    
     2    1   23 1    
     3    1   24 1    
     4    1   25 1    
     5    2    7 ar   
     6    2    3 ar   
     7    3    4 ar   
     8    3   26 1    
     9    4    5 ar   
    10    4   27 1    
    11    5    6 ar   
    12    5   28 1    
    13    6    7 ar   
    14    6    9 1    
    15    7    8 1    
    16    8   29 1    
    17    8   30 1    
    18    9   10 2    
    19    9   11 am   BACKBONE|DICT|INTERRES
    20   11   15 1    
    21   11   12 1    
    22   12   13 1    
    23   12   31 1    
    24   12   32 1    
    25   13   14 1    
    26   13   33 1    
    27   13   34 1    
    28   14   15 1    
    29   14   35 1    
    30   14   36 1    
    31   15   16 1    
    32   15   17 1    
    33   17   21 ar   
    34   17   18 ar   
    35   18   19 ar   
    36   18   37 1    
    37   19   20 ar   
    38   19   38 1    
    39   20   21 ar   
    40   20   39 1    
    41   21   22 1    
@<TRIPOS>SUBSTRUCTURE
     1 UNK         1 GROUP             0       ****    0 ROOT    
