ZINC36760997_1479
                    3D
 Schrodinger Suite 2024-2.
 43 45  0  0  1  0            999 V2000
    6.7430   54.0963   27.6183 C   0  0  0  0  0  0
    5.9788   54.2562   26.3114 C   0  0  0  0  0  0
    6.7044   54.4480   25.1337 C   0  0  0  0  0  0
    6.0627   54.5254   23.9034 C   0  0  0  0  0  0
    4.6667   54.4877   23.8334 C   0  0  0  0  0  0
    3.9389   54.3996   25.0277 C   0  0  0  0  0  0
    4.5734   54.2112   26.2597 C   0  0  0  0  0  0
    3.6286   53.8860   27.7701 S   0  0  0  0  0  0
    3.7666   55.1089   28.5646 O   0  0  0  0  0  0
    4.1483   52.6375   28.3345 O   0  0  0  0  0  0
    1.8747   53.6057   27.4376 N   0  0  0  0  0  0
    1.4570   52.8327   26.2350 C   0  0  0  0  0  0
    0.1821   52.0042   26.2848 C   0  0  0  0  0  0
   -0.2648   51.3304   25.1429 C   0  0  0  0  0  0
   -1.4786   50.6503   25.1389 C   0  0  0  0  0  0
   -2.2660   50.6399   26.2856 C   0  0  0  0  0  0
   -1.8258   51.2964   27.4318 C   0  0  0  0  0  0
   -0.6002   51.9722   27.4520 C   0  0  0  0  0  0
   -0.0803   52.6153   28.7267 C   0  0  0  0  0  0
    0.7888   53.8750   28.4519 C   0  0  1  0  0  0
    0.2266   54.7309   28.0815 H   0  0  0  0  0  0
    1.3273   54.3500   29.8144 C   0  0  0  0  0  0
    2.0137   53.5872   30.4817 O   0  0  0  0  0  0
    1.1043   55.6033   30.2144 N   0  0  0  0  0  0
    3.9734   54.4782   22.5226 N   0  3  0  0  0  0
    4.6537   54.4957   21.5010 O   0  0  0  0  0  0
    2.7472   54.4219   22.5166 O   0  5  0  0  0  0
    7.7707   54.4493   27.5372 H   0  0  0  0  0  0
    6.2923   54.6872   28.4151 H   0  0  0  0  0  0
    6.7568   53.0518   27.9313 H   0  0  0  0  0  0
    7.7811   54.4969   25.1451 H   0  0  0  0  0  0
    6.6608   54.6146   23.0053 H   0  0  0  0  0  0
    2.8717   54.4571   24.9648 H   0  0  0  0  0  0
    2.3044   52.2867   25.8237 H   0  0  0  0  0  0
    1.1823   53.5751   25.4882 H   0  0  0  0  0  0
    0.3312   51.3451   24.2410 H   0  0  0  0  0  0
   -1.8089   50.1300   24.2525 H   0  0  0  0  0  0
   -3.2022   50.1005   26.2986 H   0  0  0  0  0  0
   -2.4265   51.2393   28.3288 H   0  0  0  0  0  0
   -0.9063   52.8365   29.4037 H   0  0  0  0  0  0
    0.5298   51.8357   29.1895 H   0  0  0  0  0  0
    0.6436   56.2676   29.6140 H   0  0  0  0  0  0
    1.4871   55.9089   31.0974 H   0  0  0  0  0  0
  1  2  1  0  0  0
  1 28  1  0  0  0
  1 29  1  0  0  0
  1 30  1  0  0  0
  2  7  2  0  0  0
  2  3  1  0  0  0
  3  4  2  0  0  0
  3 31  1  0  0  0
  4  5  1  0  0  0
  4 32  1  0  0  0
  5  6  2  0  0  0
  5 25  1  0  0  0
  6  7  1  0  0  0
  6 33  1  0  0  0
  7  8  1  0  0  0
  8  9  2  0  0  0
  8 10  2  0  0  0
  8 11  1  0  0  0
 11 20  1  0  0  0
 11 12  1  0  0  0
 12 13  1  0  0  0
 12 34  1  0  0  0
 12 35  1  0  0  0
 13 18  2  0  0  0
 13 14  1  0  0  0
 14 15  2  0  0  0
 14 36  1  0  0  0
 15 16  1  0  0  0
 15 37  1  0  0  0
 16 17  2  0  0  0
 16 38  1  0  0  0
 17 18  1  0  0  0
 17 39  1  0  0  0
 18 19  1  0  0  0
 19 20  1  0  0  0
 19 40  1  0  0  0
 19 41  1  0  0  0
 20 21  1  0  0  0
 20 22  1  0  0  0
 22 23  2  0  0  0
 22 24  1  0  0  0
 24 42  1  0  0  0
 24 43  1  0  0  0
 25 26  2  0  0  0
 25 27  1  0  0  0
M  CHG  2  25   1  27  -1
M  END
> <i_i_glide_confnum>
12

> <i_i_glide_lignum>
1480

> <i_i_glide_posenum>
349

> <i_i_glide_rotatable_bonds>
4

> <i_m_Source_File_Index>
1086

> <b_m_subgroup_collapsed>
0

> <r_i_docking_score>
-3.02292

> <r_i_glide_ecoul>
-2.11598

> <r_i_glide_eff_state_penalty>
0

> <r_i_glide_einternal>
12.6895

> <r_i_glide_emodel>
-33.8137

> <r_i_glide_energy>
-42.3856

> <r_i_glide_erotb>
0.274563

> <r_i_glide_esite>
-0.00219533

> <r_i_glide_evdw>
-40.2696

> <r_i_glide_gscore>
-3.02292

> <r_i_glide_hbond>
-0.265767

> <r_i_glide_ligand_efficiency>
-0.116266

> <r_i_glide_ligand_efficiency_ln>
-0.709922

> <r_i_glide_ligand_efficiency_sa>
-0.344438

> <r_i_glide_lipo>
-2.3266

> <r_i_glide_metal>
0

> <r_i_glide_rewards>
1.62796

> <s_i_glide_gridfile>
wee1_glide-grid

> <s_m_Source_File>
wee1_decoys_glide_SP.sdf

> <s_m_Source_Path>
/Users/zhangxujun/Desktop

> <s_m_entry_id>
1361

> <s_m_entry_name>
wee1_decoys_glide_SP.1086

> <s_m_subgroup_title>
wee1_decoys_glide_SP

> <s_m_subgroupid>
wee1_decoys_glide_SP


$$$$
