ZINC38742622_32
                    3D
 Schrodinger Suite 2024-2.
 44 47  0  0  1  0            999 V2000
   -0.1032   52.3523   29.9017 C   0  0  0  0  0  0
    0.5538   53.6871   29.5046 C   0  0  0  0  0  0
    0.5174   54.7023   30.6637 C   0  0  0  0  0  0
    1.9581   53.4973   28.9521 C   0  0  0  0  0  0
    2.4666   53.7554   27.7418 C   0  0  0  0  0  0
    3.8967   53.3263   27.8233 C   0  0  2  0  0  0
    4.0964   52.4959   27.1597 H   0  0  0  0  0  0
    4.0120   52.8671   29.1805 N   0  0  0  0  0  0
    2.9026   52.9811   29.7745 N   0  0  0  0  0  0
    4.9251   54.4359   27.4915 C   0  0  1  0  0  0
    4.6523   55.2964   28.0949 H   0  0  0  0  0  0
    6.2869   54.0966   27.8949 N   0  0  0  0  0  0
    7.1043   54.2266   26.7268 N   0  0  0  0  0  0
    6.3927   55.1353   25.8575 C   0  0  2  0  0  0
    6.6436   56.1693   26.0840 H   0  0  0  0  0  0
    4.9944   54.8965   26.0998 N   0  0  0  0  0  0
    4.3555   54.1756   25.0703 N   0  0  0  0  0  0
    5.0601   54.0991   24.0139 C   0  0  0  0  0  0
    6.6964   54.8220   24.1181 S   0  0  0  0  0  0
    4.5731   53.4632   22.7202 C   0  0  0  0  0  0
    4.7912   54.3666   21.6377 O   0  0  0  0  0  0
    4.4535   53.9921   20.3516 C   0  0  0  0  0  0
    4.7680   54.8958   19.3343 C   0  0  0  0  0  0
    4.4501   54.6104   18.0095 C   0  0  0  0  0  0
    3.8174   53.4110   17.6970 C   0  0  0  0  0  0
    3.5033   52.4968   18.6975 C   0  0  0  0  0  0
    3.8207   52.7833   20.0229 C   0  0  0  0  0  0
    3.3956   53.0088   15.8841 Br  0  0  0  0  0  0
   -1.1225   52.4963   30.2542 H   0  0  0  0  0  0
   -0.1509   51.6644   29.0555 H   0  0  0  0  0  0
    0.4496   51.8598   30.7011 H   0  0  0  0  0  0
   -0.0424   54.1021   28.6921 H   0  0  0  0  0  0
    0.9476   55.6633   30.3721 H   0  0  0  0  0  0
   -0.4955   54.8965   31.0032 H   0  0  0  0  0  0
    1.0771   54.3281   31.5200 H   0  0  0  0  0  0
    1.9928   54.1620   26.8615 H   0  0  0  0  0  0
    6.6744   54.7519   28.5696 H   0  0  0  0  0  0
    7.1036   53.2873   26.3411 H   0  0  0  0  0  0
    5.1194   52.5355   22.5255 H   0  0  0  0  0  0
    3.5106   53.2211   22.7979 H   0  0  0  0  0  0
    5.2566   55.8269   19.5706 H   0  0  0  0  0  0
    4.6970   55.3134   17.2273 H   0  0  0  0  0  0
    3.0385   51.5568   18.4412 H   0  0  0  0  0  0
    3.5712   52.0457   20.7735 H   0  0  0  0  0  0
  1  2  1  0  0  0
  1 29  1  0  0  0
  1 30  1  0  0  0
  1 31  1  0  0  0
  2  3  1  0  0  0
  2  4  1  0  0  0
  2 32  1  0  0  0
  3 33  1  0  0  0
  3 34  1  0  0  0
  3 35  1  0  0  0
  4  9  1  0  0  0
  4  5  2  0  0  0
  5  6  1  0  0  0
  5 36  1  0  0  0
  6  7  1  0  0  0
  6  8  1  0  0  0
  6 10  1  0  0  0
  8  9  2  0  0  0
 10 11  1  0  0  0
 10 16  1  0  0  0
 10 12  1  0  0  0
 12 13  1  0  0  0
 12 37  1  0  0  0
 13 14  1  0  0  0
 13 38  1  0  0  0
 14 15  1  0  0  0
 14 19  1  0  0  0
 14 16  1  0  0  0
 16 17  1  0  0  0
 17 18  2  0  0  0
 18 19  1  0  0  0
 18 20  1  0  0  0
 20 21  1  0  0  0
 20 39  1  0  0  0
 20 40  1  0  0  0
 21 22  1  0  0  0
 22 27  2  0  0  0
 22 23  1  0  0  0
 23 24  2  0  0  0
 23 41  1  0  0  0
 24 25  1  0  0  0
 24 42  1  0  0  0
 25 26  2  0  0  0
 25 28  1  0  0  0
 26 27  1  0  0  0
 26 43  1  0  0  0
 27 44  1  0  0  0
M  END
> <i_i_glide_confnum>
47

> <i_i_glide_lignum>
33

> <i_i_glide_posenum>
87

> <i_i_glide_rotatable_bonds>
5

> <i_m_Source_File_Index>
1447

> <b_m_subgroup_collapsed>
0

> <r_i_docking_score>
-6.64677

> <r_i_glide_ecoul>
-2.95215

> <r_i_glide_eff_state_penalty>
0

> <r_i_glide_einternal>
1.79565

> <r_i_glide_emodel>
-64.0304

> <r_i_glide_energy>
-44.8029

> <r_i_glide_erotb>
0.442352

> <r_i_glide_esite>
0

> <r_i_glide_evdw>
-41.8508

> <r_i_glide_gscore>
-6.64677

> <r_i_glide_hbond>
-0.260875

> <r_i_glide_ligand_efficiency>
-0.265871

> <r_i_glide_ligand_efficiency_ln>
-1.57548

> <r_i_glide_ligand_efficiency_sa>
-0.777411

> <r_i_glide_lipo>
-1.63924

> <r_i_glide_metal>
0

> <r_i_glide_rewards>
-2.65365

> <s_i_glide_gridfile>
wee1_glide-grid

> <s_m_Source_File>
wee1_decoys_glide_SP.sdf

> <s_m_Source_Path>
/Users/zhangxujun/Desktop

> <s_m_entry_id>
1722

> <s_m_entry_name>
wee1_decoys_glide_SP.1447

> <s_m_subgroup_title>
wee1_decoys_glide_SP

> <s_m_subgroupid>
wee1_decoys_glide_SP


$$$$
