ZINC62626023_3651
                    3D
 Schrodinger Suite 2024-2.
 53 56  0  0  1  0            999 V2000
    2.8959   54.3579   27.3604 C   0  0  0  0  0  0
    3.9785   54.6160   26.5322 C   0  0  0  0  0  0
    5.2237   54.0958   26.8551 C   0  0  0  0  0  0
    5.3872   53.2968   27.9841 C   0  0  0  0  0  0
    4.2896   53.0093   28.7952 C   0  0  0  0  0  0
    3.0275   53.5416   28.4901 C   0  0  0  0  0  0
    1.7863   53.3079   29.3791 C   0  0  0  0  0  0
    1.9677   52.4329   30.6477 C   0  0  0  0  0  0
    0.8037   52.7934   31.5848 C   0  0  0  0  0  0
    0.3517   54.1953   31.1553 C   0  0  0  0  0  0
    1.3121   54.6295   30.0429 C   0  0  0  0  0  0
    0.6469   52.6956   28.4845 C   0  0  0  0  0  0
   -0.2656   53.4197   28.0828 O   0  0  0  0  0  0
    0.7105   51.3830   28.1773 N   0  0  0  0  0  0
   -0.1990   50.7969   27.2684 N   0  0  0  0  0  0
    0.1783   50.6857   25.9260 C   0  0  0  0  0  0
    0.0206   49.4553   25.2888 C   0  0  0  0  0  0
    0.4264   49.2976   23.9671 C   0  0  0  0  0  0
    0.9911   50.3741   23.2826 C   0  0  0  0  0  0
    1.1203   51.6169   23.9019 C   0  0  0  0  0  0
    0.7069   51.7718   25.2195 C   0  0  0  0  0  0
    1.5521   50.1538   21.6027 S   0  0  0  0  0  0
    2.1635   51.4116   21.1593 O   0  0  0  0  0  0
    2.3045   48.8969   21.5765 O   0  0  0  0  0  0
    0.0898   49.8925   20.6681 N   0  0  0  0  0  0
   -0.7383   51.0382   20.2599 C   0  0  0  0  0  0
   -2.2368   50.8302   20.2835 C   0  0  0  0  0  0
   -1.5840   51.6710   21.3459 C   0  0  0  0  0  0
    6.7028   54.4965   25.7339 Br  0  0  0  0  0  0
    1.9346   54.7874   27.1291 H   0  0  0  0  0  0
    3.8584   55.2365   25.6568 H   0  0  0  0  0  0
    6.3612   52.8965   28.2229 H   0  0  0  0  0  0
    4.4446   52.3765   29.6546 H   0  0  0  0  0  0
    2.0201   51.3671   30.4404 H   0  0  0  0  0  0
    2.8941   52.6883   31.1627 H   0  0  0  0  0  0
   -0.0182   52.0848   31.4669 H   0  0  0  0  0  0
    1.1041   52.7614   32.6326 H   0  0  0  0  0  0
   -0.6313   54.1319   30.7072 H   0  0  0  0  0  0
    0.3059   54.8968   31.9872 H   0  0  0  0  0  0
    2.1595   55.1588   30.4817 H   0  0  0  0  0  0
    0.8542   55.3352   29.3472 H   0  0  0  0  0  0
    1.4895   50.7909   28.4237 H   0  0  0  0  0  0
   -0.5894   49.9464   27.6803 H   0  0  0  0  0  0
   -0.3902   48.6110   25.8268 H   0  0  0  0  0  0
    0.3255   48.3358   23.4877 H   0  0  0  0  0  0
    1.5457   52.4586   23.3742 H   0  0  0  0  0  0
    0.8142   52.7363   25.6908 H   0  0  0  0  0  0
    0.0452   49.0375   20.1094 H   0  0  0  0  0  0
   -0.3007   51.6839   19.4956 H   0  0  0  0  0  0
   -2.8316   51.3108   19.5070 H   0  0  0  0  0  0
   -2.6260   49.8461   20.5496 H   0  0  0  0  0  0
   -1.5285   51.2798   22.3625 H   0  0  0  0  0  0
   -1.7023   52.7524   21.3331 H   0  0  0  0  0  0
  1  6  2  0  0  0
  1  2  1  0  0  0
  1 30  1  0  0  0
  2  3  2  0  0  0
  2 31  1  0  0  0
  3  4  1  0  0  0
  3 29  1  0  0  0
  4  5  2  0  0  0
  4 32  1  0  0  0
  5  6  1  0  0  0
  5 33  1  0  0  0
  6  7  1  0  0  0
  7 11  1  0  0  0
  7  8  1  0  0  0
  7 12  1  0  0  0
  8  9  1  0  0  0
  8 34  1  0  0  0
  8 35  1  0  0  0
  9 10  1  0  0  0
  9 36  1  0  0  0
  9 37  1  0  0  0
 10 11  1  0  0  0
 10 38  1  0  0  0
 10 39  1  0  0  0
 11 40  1  0  0  0
 11 41  1  0  0  0
 12 13  2  0  0  0
 12 14  1  0  0  0
 14 15  1  0  0  0
 14 42  1  0  0  0
 15 16  1  0  0  0
 15 43  1  0  0  0
 16 21  2  0  0  0
 16 17  1  0  0  0
 17 18  2  0  0  0
 17 44  1  0  0  0
 18 19  1  0  0  0
 18 45  1  0  0  0
 19 20  2  0  0  0
 19 22  1  0  0  0
 20 21  1  0  0  0
 20 46  1  0  0  0
 21 47  1  0  0  0
 22 23  2  0  0  0
 22 24  2  0  0  0
 22 25  1  0  0  0
 25 26  1  0  0  0
 25 48  1  0  0  0
 26 28  1  0  0  0
 26 27  1  0  0  0
 26 49  1  0  0  0
 27 28  1  0  0  0
 27 50  1  0  0  0
 27 51  1  0  0  0
 28 52  1  0  0  0
 28 53  1  0  0  0
M  END
> <i_i_glide_confnum>
371

> <i_i_glide_lignum>
3652

> <i_i_glide_posenum>
355

> <i_i_glide_rotatable_bonds>
8

> <i_m_Source_File_Index>
388

> <b_m_subgroup_collapsed>
0

> <r_i_docking_score>
-4.06834

> <r_i_glide_ecoul>
-0.160109

> <r_i_glide_eff_state_penalty>
0

> <r_i_glide_einternal>
8.73037

> <r_i_glide_emodel>
-51.6137

> <r_i_glide_energy>
-44.8287

> <r_i_glide_erotb>
0.708322

> <r_i_glide_esite>
-0.0798167

> <r_i_glide_evdw>
-44.6686

> <r_i_glide_gscore>
-4.06834

> <r_i_glide_hbond>
-0.16

> <r_i_glide_ligand_efficiency>
-0.140287

> <r_i_glide_ligand_efficiency_ln>
-0.931546

> <r_i_glide_ligand_efficiency_sa>
-0.431007

> <r_i_glide_lipo>
-2.56299

> <r_i_glide_metal>
0

> <r_i_glide_rewards>
0.283593

> <s_i_glide_gridfile>
wee1_glide-grid

> <s_m_Source_File>
wee1_decoys_glide_SP.sdf

> <s_m_Source_Path>
/Users/zhangxujun/Desktop

> <s_m_entry_id>
663

> <s_m_entry_name>
wee1_decoys_glide_SP.388

> <s_m_subgroup_title>
wee1_decoys_glide_SP

> <s_m_subgroupid>
wee1_decoys_glide_SP


$$$$
