ZINC09805431_2902
                    3D
 Schrodinger Suite 2024-2.
 79 82  0  0  1  0            999 V2000
    8.9636   56.1823   18.7566 C   0  0  0  0  0  0
    8.1130   54.9234   18.5048 C   0  0  2  0  0  0
    8.5415   54.1006   19.0820 H   0  0  0  0  0  0
    8.1435   54.4983   17.0187 C   0  0  0  0  0  0
    7.2983   53.2335   16.7654 C   0  0  0  0  0  0
    5.8497   53.4176   17.2637 C   0  0  0  0  0  0
    6.6506   55.1081   18.9800 C   0  0  0  0  0  0
    4.4465   53.8008   19.3453 C   0  0  0  0  0  0
    4.4392   53.6390   20.8785 C   0  0  0  0  0  0
    5.4843   53.7299   21.5295 O   0  0  0  0  0  0
    3.2336   53.3684   21.4168 N   0  0  0  0  0  0
    2.9022   53.2994   22.7693 C   0  0  0  0  0  0
    1.8053   52.6066   23.3157 C   0  0  0  0  0  0
    1.7179   52.7834   24.7256 C   0  0  0  0  0  0
    2.8029   53.5173   25.2235 C   0  0  0  0  0  0
    3.8540   54.0969   23.9901 S   0  0  0  0  0  0
    3.1356   53.7431   26.6835 C   0  0  0  0  0  0
    1.8815   53.4885   27.5684 C   0  0  1  0  0  0
    1.1654   54.2901   27.3765 H   0  0  0  0  0  0
    1.2127   52.1612   27.1218 C   0  0  0  0  0  0
    0.6492   52.2268   25.6807 C   0  0  0  0  0  0
    2.2053   53.5551   29.1100 C   0  0  0  0  0  0
    3.0186   52.3290   29.6112 C   0  0  0  0  0  0
    0.8916   53.6336   29.9336 C   0  0  0  0  0  0
    3.0286   54.8272   29.4253 C   0  0  0  0  0  0
    0.8855   51.8549   22.4899 C   0  0  0  0  0  0
    0.4487   52.3288   21.4371 O   0  0  0  0  0  0
    0.6628   50.5918   22.9100 N   0  0  0  0  0  0
    0.0551   49.5933   22.1356 C   0  0  0  0  0  0
   -1.0634   48.9633   22.6785 C   0  0  0  0  0  0
   -1.7091   47.9530   21.9722 C   0  0  0  0  0  0
   -1.2456   47.5449   20.7215 C   0  0  0  0  0  0
   -0.1074   48.1662   20.1868 C   0  0  0  0  0  0
    0.5626   49.1873   20.8823 C   0  0  0  0  0  0
    1.7204   49.7907   20.4121 O   0  0  0  0  0  0
    2.2440   49.4333   19.1344 C   0  0  0  0  0  0
   -1.9446   46.5275   20.1050 O   0  0  0  0  0  0
   -1.5128   46.0493   18.8340 C   0  0  0  0  0  0
    8.5842   57.0421   18.2018 H   0  0  0  0  0  0
    8.9804   56.4472   19.8147 H   0  0  0  0  0  0
   10.0004   56.0235   18.4543 H   0  0  0  0  0  0
    9.1749   54.3402   16.6949 H   0  0  0  0  0  0
    7.7750   55.3159   16.3950 H   0  0  0  0  0  0
    7.7484   52.3718   17.2642 H   0  0  0  0  0  0
    7.2946   52.9965   15.6985 H   0  0  0  0  0  0
    5.2925   52.4860   17.1604 H   0  0  0  0  0  0
    5.3163   54.2213   16.7462 H   0  0  0  0  0  0
    6.1133   55.8939   18.4401 H   0  0  0  0  0  0
    6.6429   55.3499   20.0437 H   0  0  0  0  0  0
    3.9035   52.9698   18.8837 H   0  0  0  0  0  0
    3.9840   54.7382   19.0216 H   0  0  0  0  0  0
    2.4843   53.1108   20.7865 H   0  0  0  0  0  0
    3.9440   53.0641   26.9508 H   0  0  0  0  0  0
    3.5109   54.7584   26.8060 H   0  0  0  0  0  0
    1.8993   51.3251   27.2633 H   0  0  0  0  0  0
    0.3727   51.9274   27.7752 H   0  0  0  0  0  0
   -0.2242   52.8802   25.6525 H   0  0  0  0  0  0
    0.2933   51.2352   25.4022 H   0  0  0  0  0  0
    3.9511   52.1945   29.0620 H   0  0  0  0  0  0
    3.2840   52.4282   30.6656 H   0  0  0  0  0  0
    2.4563   51.3993   29.5263 H   0  0  0  0  0  0
    0.2560   54.4545   29.5978 H   0  0  0  0  0  0
    0.3031   52.7184   29.8675 H   0  0  0  0  0  0
    1.0884   53.7920   30.9955 H   0  0  0  0  0  0
    2.5126   55.7382   29.1164 H   0  0  0  0  0  0
    3.2193   54.8960   30.4827 H   0  0  0  0  0  0
    4.0142   54.8232   28.9603 H   0  0  0  0  0  0
    1.0248   50.3080   23.8088 H   0  0  0  0  0  0
   -1.4440   49.2566   23.6459 H   0  0  0  0  0  0
   -2.5797   47.4781   22.3970 H   0  0  0  0  0  0
    0.2656   47.8453   19.2304 H   0  0  0  0  0  0
    3.1038   50.0613   18.9072 H   0  0  0  0  0  0
    2.5801   48.3954   19.1153 H   0  0  0  0  0  0
    1.5141   49.5920   18.3392 H   0  0  0  0  0  0
   -2.1690   45.2403   18.5100 H   0  0  0  0  0  0
   -0.4988   45.6491   18.8803 H   0  0  0  0  0  0
   -1.5542   46.8305   18.0731 H   0  0  0  0  0  0
    5.8925   53.7672   18.7726 N   0  3  1  0  0  0
    6.3748   53.0204   19.2605 H   0  0  0  0  0  0
  1  2  1  0  0  0
  1 39  1  0  0  0
  1 40  1  0  0  0
  1 41  1  0  0  0
  2  3  1  0  0  0
  2  7  1  0  0  0
  2  4  1  0  0  0
  4  5  1  0  0  0
  4 42  1  0  0  0
  4 43  1  0  0  0
  5  6  1  0  0  0
  5 44  1  0  0  0
  5 45  1  0  0  0
  6 46  1  0  0  0
  6 47  1  0  0  0
  6 78  1  0  0  0
  7 48  1  0  0  0
  7 49  1  0  0  0
  7 78  1  0  0  0
  8  9  1  0  0  0
  8 50  1  0  0  0
  8 51  1  0  0  0
  8 78  1  0  0  0
  9 10  2  0  0  0
  9 11  1  0  0  0
 11 12  1  0  0  0
 11 52  1  0  0  0
 12 16  1  0  0  0
 12 13  2  0  0  0
 13 14  1  0  0  0
 13 26  1  0  0  0
 14 21  1  0  0  0
 14 15  2  0  0  0
 15 16  1  0  0  0
 15 17  1  0  0  0
 17 18  1  0  0  0
 17 53  1  0  0  0
 17 54  1  0  0  0
 18 19  1  0  0  0
 18 20  1  0  0  0
 18 22  1  0  0  0
 20 21  1  0  0  0
 20 55  1  0  0  0
 20 56  1  0  0  0
 21 57  1  0  0  0
 21 58  1  0  0  0
 22 23  1  0  0  0
 22 24  1  0  0  0
 22 25  1  0  0  0
 23 59  1  0  0  0
 23 60  1  0  0  0
 23 61  1  0  0  0
 24 62  1  0  0  0
 24 63  1  0  0  0
 24 64  1  0  0  0
 25 65  1  0  0  0
 25 66  1  0  0  0
 25 67  1  0  0  0
 26 27  2  0  0  0
 26 28  1  0  0  0
 28 29  1  0  0  0
 28 68  1  0  0  0
 29 34  2  0  0  0
 29 30  1  0  0  0
 30 31  2  0  0  0
 30 69  1  0  0  0
 31 32  1  0  0  0
 31 70  1  0  0  0
 32 33  2  0  0  0
 32 37  1  0  0  0
 33 34  1  0  0  0
 33 71  1  0  0  0
 34 35  1  0  0  0
 35 36  1  0  0  0
 36 72  1  0  0  0
 36 73  1  0  0  0
 36 74  1  0  0  0
 37 38  1  0  0  0
 38 75  1  0  0  0
 38 76  1  0  0  0
 38 77  1  0  0  0
 78 79  1  0  0  0
M  CHG  1  78   1
M  END
> <i_i_glide_confnum>
33

> <i_i_glide_lignum>
2903

> <i_i_glide_posenum>
191

> <i_i_glide_rotatable_bonds>
10

> <i_m_Source_File_Index>
4741

> <b_m_subgroup_collapsed>
0

> <r_i_docking_score>
-4.66579

> <r_i_glide_ecoul>
-4.26925

> <r_i_glide_eff_state_penalty>
0

> <r_i_glide_einternal>
6.22148

> <r_i_glide_emodel>
-56.4962

> <r_i_glide_energy>
-44.2135

> <r_i_glide_erotb>
0.515905

> <r_i_glide_esite>
-0.0328183

> <r_i_glide_evdw>
-39.9443

> <r_i_glide_gscore>
-4.66579

> <r_i_glide_hbond>
0

> <r_i_glide_ligand_efficiency>
-0.126102

> <r_i_glide_ligand_efficiency_ln>
-1.0119

> <r_i_glide_ligand_efficiency_sa>
-0.420201

> <r_i_glide_lipo>
-2.31129

> <r_i_glide_metal>
0

> <r_i_glide_rewards>
-0.199984

> <s_i_glide_gridfile>
wee1_glide-grid

> <s_m_Source_File>
wee1_decoys_glide_SP.sdf

> <s_m_Source_Path>
/Users/zhangxujun/Desktop

> <s_m_entry_id>
5016

> <s_m_entry_name>
wee1_decoys_glide_SP.4741

> <s_m_subgroup_title>
wee1_decoys_glide_SP

> <s_m_subgroupid>
wee1_decoys_glide_SP


$$$$
