@<TRIPOS>MOLECULE
ZINC09121155_818
65   67    1
SMALL
USER_CHARGES


@<TRIPOS>ATOM
      1 C1          1.0371   52.6964   26.1651 C.3       1 UNK         0.0000 
      2 C2          0.0639   51.8911   25.2678 C.3       1 UNK         0.0000 
      3 C3         -0.4686   50.7178   26.1370 C.3       1 UNK         0.0000 
      4 C4         -1.1428   52.7750   24.8761 C.3       1 UNK         0.0000 
      5 C5          0.7750   51.4200   23.9740 C.ar      1 UNK         0.0000 
      6 C6          0.6965   50.0930   23.5274 C.ar      1 UNK         0.0000 
      7 C7          1.3058   49.6974   22.3398 C.ar      1 UNK         0.0000 
      8 C8          2.0346   50.6076   21.5638 C.ar      1 UNK         0.0000 
      9 C9          2.1465   51.9323   22.0170 C.ar      1 UNK         0.0000 
     10 C10         1.5010   52.3354   23.1934 C.ar      1 UNK         0.0000 
     11 N11         2.8588   52.8980   21.2900 N.am      1 UNK         0.0000 
     12 C12         4.1927   52.8603   21.0795 C.2       1 UNK         0.0000 
     13 O13         4.9447   52.0512   21.6267 O.2       1 UNK         0.0000 
     14 C14         4.7711   53.9136   20.1143 C.3       1 UNK         0.0000 
     15 N15         5.6260   53.2877   19.1313 N.pl3     1 UNK         0.0000 
     16 C16         6.6962   53.9087   18.4684 C.ar      1 UNK         0.0000 
     17 C17         7.4734   54.9057   19.0746 C.ar      1 UNK         0.0000 
     18 C18         8.5629   55.4567   18.3985 C.ar      1 UNK         0.0000 
     19 C19         8.8616   55.0417   17.1027 C.ar      1 UNK         0.0000 
     20 C20         8.0753   54.0704   16.4738 C.ar      1 UNK         0.0000 
     21 C21         7.0167   53.4806   17.1769 C.ar      1 UNK         0.0000 
     22 S22         8.4096   53.6067   14.7747 S.o2      1 UNK         0.0000 
     23 O23         7.1717   53.0258   14.2450 O.2       1 UNK         0.0000 
     24 O24         9.0368   54.7743   14.1423 O.2       1 UNK         0.0000 
     25 N25         9.6255   52.3215   14.8752 N.pl3     1 UNK         0.0000 
     26 C26        11.0511   52.6642   15.1211 C.3       1 UNK         0.0000 
     27 C27        11.5406   52.1561   16.4910 C.3       1 UNK         0.0000 
     28 C28        11.2119   50.6646   16.6914 C.3       1 UNK         0.0000 
     29 C29         9.7076   50.3958   16.4967 C.3       1 UNK         0.0000 
     30 C30         9.2003   50.9228   15.1387 C.3       1 UNK         0.0000 
     31 O31         2.6334   50.2734   20.3602 O.3       1 UNK         0.0000 
     32 C32         2.4053   48.9911   19.7856 C.3       1 UNK         0.0000 
     33 H33         0.5551   53.0125   27.0911 H         1 UNK         0.0000 
     34 H34         1.4030   53.6017   25.6843 H         1 UNK         0.0000 
     35 H35         1.9043   52.0990   26.4452 H         1 UNK         0.0000 
     36 H36        -1.2522   50.1528   25.6313 H         1 UNK         0.0000 
     37 H37         0.3225   50.0161   26.4061 H         1 UNK         0.0000 
     38 H38        -0.9059   51.0723   27.0694 H         1 UNK         0.0000 
     39 H39        -1.8468   52.2277   24.2467 H         1 UNK         0.0000 
     40 H40        -1.6970   53.1103   25.7531 H         1 UNK         0.0000 
     41 H41        -0.8360   53.6604   24.3197 H         1 UNK         0.0000 
     42 H42         0.1488   49.3466   24.0808 H         1 UNK         0.0000 
     43 H43         1.1931   48.6695   22.0320 H         1 UNK         0.0000 
     44 H44         1.5721   53.3677   23.4961 H         1 UNK         0.0000 
     45 H45         2.3175   53.6339   20.8576 H         1 UNK         0.0000 
     46 H46         3.9411   54.4263   19.6269 H         1 UNK         0.0000 
     47 H47         5.2619   54.6664   20.7294 H         1 UNK         0.0000 
     48 H48         5.2656   52.4451   18.6800 H         1 UNK         0.0000 
     49 H49         7.2644   55.2381   20.0796 H         1 UNK         0.0000 
     50 H50         9.1734   56.2094   18.8784 H         1 UNK         0.0000 
     51 H51         9.6965   55.4888   16.5782 H         1 UNK         0.0000 
     52 H52         6.4230   52.7098   16.7056 H         1 UNK         0.0000 
     53 H53        11.6417   52.2586   14.2983 H         1 UNK         0.0000 
     54 H54        11.1656   53.7463   15.0677 H         1 UNK         0.0000 
     55 H55        12.6124   52.3241   16.5886 H         1 UNK         0.0000 
     56 H56        11.0744   52.7452   17.2838 H         1 UNK         0.0000 
     57 H57        11.5278   50.3369   17.6805 H         1 UNK         0.0000 
     58 H58        11.7828   50.0669   15.9805 H         1 UNK         0.0000 
     59 H59         9.1446   50.8720   17.3022 H         1 UNK         0.0000 
     60 H60         9.5059   49.3273   16.5818 H         1 UNK         0.0000 
     61 H61         8.1126   50.8898   15.1171 H         1 UNK         0.0000 
     62 H62         9.5392   50.3036   14.3079 H         1 UNK         0.0000 
     63 H63         2.9991   48.8990   18.8759 H         1 UNK         0.0000 
     64 H64         2.7037   48.1832   20.4546 H         1 UNK         0.0000 
     65 H65         1.3564   48.8604   19.5182 H         1 UNK         0.0000 
@<TRIPOS>BOND
     1    1    2 1    
     2    1   33 1    
     3    1   34 1    
     4    1   35 1    
     5    2    3 1    
     6    2    4 1    
     7    2    5 1    
     8    3   36 1    
     9    3   37 1    
    10    3   38 1    
    11    4   39 1    
    12    4   40 1    
    13    4   41 1    
    14    5   10 ar   
    15    5    6 ar   
    16    6    7 ar   
    17    6   42 1    
    18    7    8 ar   
    19    7   43 1    
    20    8    9 ar   
    21    8   31 1    
    22    9   10 ar   
    23    9   11 1    
    24   10   44 1    
    25   11   12 am   BACKBONE|DICT|INTERRES
    26   11   45 1    
    27   12   13 2    
    28   12   14 1    
    29   14   15 1    
    30   14   46 1    
    31   14   47 1    
    32   15   16 1    
    33   15   48 1    
    34   16   21 ar   
    35   16   17 ar   
    36   17   18 ar   
    37   17   49 1    
    38   18   19 ar   
    39   18   50 1    
    40   19   20 ar   
    41   19   51 1    
    42   20   21 ar   
    43   20   22 1    
    44   21   52 1    
    45   22   23 2    
    46   22   24 2    
    47   22   25 1    
    48   25   30 1    
    49   25   26 1    
    50   26   27 1    
    51   26   53 1    
    52   26   54 1    
    53   27   28 1    
    54   27   55 1    
    55   27   56 1    
    56   28   29 1    
    57   28   57 1    
    58   28   58 1    
    59   29   30 1    
    60   29   59 1    
    61   29   60 1    
    62   30   61 1    
    63   30   62 1    
    64   31   32 1    
    65   32   63 1    
    66   32   64 1    
    67   32   65 1    
@<TRIPOS>SUBSTRUCTURE
     1 UNK         1 GROUP             0       ****    0 ROOT    
