@<TRIPOS>MOLECULE
ZINC34923108_5640
56   59    1
SMALL
USER_CHARGES


@<TRIPOS>ATOM
      1 C1         -1.6340   50.6361   26.9231 C.3       1 UNK         0.0000 
      2 C2         -1.5957   52.0378   26.3112 C.3       1 UNK         0.0000 
      3 C3         -0.3649   52.2946   25.4392 C.2       1 UNK         0.0000 
      4 C4         -0.3244   52.3683   24.0710 C.2       1 UNK         0.0000 
      5 C5          0.9745   52.8433   23.3507 C.3       1 UNK         0.0000 
      6 H6          0.7062   53.7343   22.7855 H         1 UNK         0.0000 
      7 N7          1.9827   53.3118   24.3507 N.pl3     1 UNK         0.0000 
      8 C8          3.1678   53.9783   24.0682 C.2       1 UNK         0.0000 
      9 C9          3.8948   54.2177   25.1756 C.2       1 UNK         0.0000 
     10 S10         3.1213   53.6898   26.6597 S.3       1 UNK         0.0000 
     11 C11         1.7424   53.1064   25.7084 C.2       1 UNK         0.0000 
     12 N12         0.7027   52.5966   26.2375 N.2       1 UNK         0.0000 
     13 C13         3.6109   54.3874   22.7444 C.2       1 UNK         0.0000 
     14 C14         4.8733   54.3943   22.2757 C.2       1 UNK         0.0000 
     15 O15         5.9752   54.0208   22.8269 O.co2     1 UNK         0.0000 
     16 N16         5.1037   54.8962   21.0168 N.pl3     1 UNK         0.0000 
     17 C17         6.0583   54.4892   19.9997 C.3       1 UNK         0.0000 
     18 C18         6.0612   55.4411   18.7933 C.3       1 UNK         0.0000 
     19 C19         4.8098   55.3719   17.9373 C.2       1 UNK         0.0000 
     20 C20         4.0502   56.4248   17.4275 C.2       1 UNK         0.0000 
     21 C21         2.9259   56.0299   16.6948 C.2       1 UNK         0.0000 
     22 C22         2.8034   54.6543   16.6209 C.2       1 UNK         0.0000 
     23 S23         4.0865   53.8523   17.4617 S.3       1 UNK         0.0000 
     24 C24         1.5582   51.8422   22.3417 C.ar      1 UNK         0.0000 
     25 C25         1.8444   52.2653   21.0382 C.ar      1 UNK         0.0000 
     26 C26         2.3651   51.3784   20.0985 C.ar      1 UNK         0.0000 
     27 C27         2.5929   50.0509   20.4495 C.ar      1 UNK         0.0000 
     28 C28         2.3042   49.6134   21.7420 C.ar      1 UNK         0.0000 
     29 C29         1.7915   50.5028   22.6860 C.ar      1 UNK         0.0000 
     30 F30         1.5049   50.0525   23.9273 F         1 UNK         0.0000 
     31 C31        -1.4511   51.9854   23.1944 C.2       1 UNK         0.0000 
     32 O32        -1.6323   52.4957   22.0860 O.2       1 UNK         0.0000 
     33 O33        -2.2096   50.9745   23.6781 O.3       1 UNK         0.0000 
     34 C34        -3.3109   50.4671   22.9399 C.3       1 UNK         0.0000 
     35 H35        -2.5391   50.4889   27.5115 H         1 UNK         0.0000 
     36 H36        -1.5963   49.8546   26.1642 H         1 UNK         0.0000 
     37 H37        -0.7842   50.4954   27.5917 H         1 UNK         0.0000 
     38 H38        -1.6246   52.7769   27.1138 H         1 UNK         0.0000 
     39 H39        -2.5131   52.2231   25.7557 H         1 UNK         0.0000 
     40 H40         4.8554   54.7092   25.2069 H         1 UNK         0.0000 
     41 H41         2.8378   54.7573   22.0872 H         1 UNK         0.0000 
     42 H42         4.2466   55.1644   20.5590 H         1 UNK         0.0000 
     43 H43         5.9139   53.4534   19.6922 H         1 UNK         0.0000 
     44 H44         7.0573   54.4978   20.4305 H         1 UNK         0.0000 
     45 H45         6.8650   55.0871   18.1478 H         1 UNK         0.0000 
     46 H46         6.4108   56.4380   19.0630 H         1 UNK         0.0000 
     47 H47         4.3028   57.4635   17.5914 H         1 UNK         0.0000 
     48 H48         2.2335   56.7224   16.2386 H         1 UNK         0.0000 
     49 H49         2.0356   54.0784   16.1240 H         1 UNK         0.0000 
     50 H50         1.6771   53.2926   20.7522 H         1 UNK         0.0000 
     51 H51         2.5958   51.7177   19.0985 H         1 UNK         0.0000 
     52 H52         2.9955   49.3648   19.7178 H         1 UNK         0.0000 
     53 H53         2.4857   48.5839   22.0163 H         1 UNK         0.0000 
     54 H54        -3.7689   49.6399   23.4830 H         1 UNK         0.0000 
     55 H55        -4.0685   51.2387   22.7930 H         1 UNK         0.0000 
     56 H56        -2.9929   50.0972   21.9634 H         1 UNK         0.0000 
@<TRIPOS>BOND
     1    1    2 1    
     2    1   35 1    
     3    1   36 1    
     4    1   37 1    
     5    2    3 1    
     6    2   38 1    
     7    2   39 1    
     8    3   12 1    
     9    3    4 2    
    10    4    5 1    
    11    4   31 1    
    12    5    6 1    
    13    5    7 1    
    14    5   24 1    
    15    7   11 1    
    16    7    8 1    
    17    8    9 2    
    18    8   13 1    
    19    9   10 1    
    20    9   40 1    
    21   10   11 1    
    22   11   12 2    
    23   13   14 2    
    24   13   41 1    
    25   14   15 1    
    26   14   16 1    
    27   16   17 1    
    28   16   42 1    
    29   17   18 1    
    30   17   43 1    
    31   17   44 1    
    32   18   19 1    
    33   18   45 1    
    34   18   46 1    
    35   19   23 1    
    36   19   20 2    
    37   20   21 1    
    38   20   47 1    
    39   21   22 2    
    40   21   48 1    
    41   22   23 1    
    42   22   49 1    
    43   24   29 ar   
    44   24   25 ar   
    45   25   26 ar   
    46   25   50 1    
    47   26   27 ar   
    48   26   51 1    
    49   27   28 ar   
    50   27   52 1    
    51   28   29 ar   
    52   28   53 1    
    53   29   30 1    
    54   31   32 2    
    55   31   33 1    
    56   33   34 1    
    57   34   54 1    
    58   34   55 1    
    59   34   56 1    
@<TRIPOS>SUBSTRUCTURE
     1 UNK         1 GROUP             0       ****    0 ROOT    
