ZINC39733495_3329
                    3D
 Schrodinger Suite 2024-2.
 62 66  0  0  1  0            999 V2000
    0.8896   52.6239   32.0636 C   0  0  0  0  0  0
    0.4003   53.4076   30.8387 C   0  0  0  0  0  0
    1.0011   52.9419   29.6339 O   0  0  0  0  0  0
    2.2071   53.4108   29.2274 C   0  0  0  0  0  0
    2.8958   54.2207   29.8543 O   0  0  0  0  0  0
    2.6311   52.8365   27.8499 C   0  0  1  0  0  0
    2.7051   51.7585   27.9897 H   0  0  0  0  0  0
    1.5677   53.1457   26.7708 C   0  0  1  0  0  0
    1.0993   54.1006   27.0077 H   0  0  0  0  0  0
    2.4317   53.5570   25.2334 S   0  0  0  0  0  0
    3.9918   53.7137   26.0429 C   0  0  0  0  0  0
    3.9943   53.2989   27.3261 C   0  0  0  0  0  0
    5.2488   53.1884   28.1781 C   0  0  0  0  0  0
    6.0516   54.4844   28.2983 C   0  0  0  0  0  0
    6.8423   54.8712   27.0341 C   0  0  0  0  0  0
    6.0105   55.2747   25.8045 C   0  0  0  0  0  0
    5.1802   54.1444   25.1961 C   0  0  0  0  0  0
    0.5517   52.0803   26.7255 N   0  0  0  0  0  0
   -0.3557   51.8562   25.7560 C   0  0  0  0  0  0
   -0.3549   52.4904   24.7022 O   0  0  0  0  0  0
   -1.4181   50.7571   26.0284 C   0  0  1  0  0  0
   -0.8533   49.8311   26.1437 H   0  0  0  0  0  0
   -2.1485   50.9788   27.3760 C   0  0  0  0  0  0
   -2.5607   50.4261   24.6176 S   0  0  0  0  0  0
   -3.3975   51.9796   24.5386 C   0  0  0  0  0  0
   -3.0220   52.9774   23.7689 N   0  0  0  0  0  0
   -3.7989   54.0936   24.0828 N   0  0  0  0  0  0
   -4.6377   53.7070   25.0111 C   0  0  0  0  0  0
   -4.4963   52.3542   25.2778 N   0  0  0  0  0  0
   -5.3583   51.7159   26.1942 C   0  0  0  0  0  0
   -6.2583   52.4939   26.8459 C   0  0  0  0  0  0
   -6.3458   53.9393   26.6080 C   0  0  0  0  0  0
   -7.1685   54.5549   27.2821 O   0  0  0  0  0  0
   -5.5409   54.4693   25.6940 N   0  5  0  0  0  0
   -7.1150   51.6338   27.7559 C   0  0  0  0  0  0
   -6.4024   50.2750   27.7288 C   0  0  0  0  0  0
   -5.5308   50.2422   26.4747 C   0  0  0  0  0  0
    0.5776   53.1196   32.9825 H   0  0  0  0  0  0
    0.4512   51.6301   32.0808 H   0  0  0  0  0  0
    1.9741   52.5109   32.0828 H   0  0  0  0  0  0
    0.5734   54.4775   30.9717 H   0  0  0  0  0  0
   -0.6775   53.2842   30.7490 H   0  0  0  0  0  0
    5.8911   52.4124   27.7732 H   0  0  0  0  0  0
    4.9706   52.8446   29.1726 H   0  0  0  0  0  0
    5.3927   55.2957   28.6039 H   0  0  0  0  0  0
    6.7526   54.3524   29.1184 H   0  0  0  0  0  0
    7.5036   55.6881   27.2814 H   0  0  0  0  0  0
    7.4961   54.0420   26.7640 H   0  0  0  0  0  0
    5.3318   56.0851   26.0595 H   0  0  0  0  0  0
    6.6814   55.6705   25.0400 H   0  0  0  0  0  0
    4.7945   54.4910   24.2353 H   0  0  0  0  0  0
    5.8218   53.2961   24.9714 H   0  0  0  0  0  0
    0.4531   51.5354   27.5680 H   0  0  0  0  0  0
   -1.4573   51.0779   28.2135 H   0  0  0  0  0  0
   -2.7670   51.8760   27.3611 H   0  0  0  0  0  0
   -2.7905   50.1340   27.6218 H   0  0  0  0  0  0
   -7.1956   52.0232   28.7723 H   0  0  0  0  0  0
   -8.1284   51.5690   27.3578 H   0  0  0  0  0  0
   -7.1090   49.4434   27.7586 H   0  0  0  0  0  0
   -5.7700   50.1817   28.6119 H   0  0  0  0  0  0
   -6.0594   49.7745   25.6434 H   0  0  0  0  0  0
   -4.6126   49.6780   26.6242 H   0  0  0  0  0  0
  1  2  1  0  0  0
  1 38  1  0  0  0
  1 39  1  0  0  0
  1 40  1  0  0  0
  2  3  1  0  0  0
  2 41  1  0  0  0
  2 42  1  0  0  0
  3  4  1  0  0  0
  4  5  2  0  0  0
  4  6  1  0  0  0
  6  7  1  0  0  0
  6 12  1  0  0  0
  6  8  1  0  0  0
  8  9  1  0  0  0
  8 10  1  0  0  0
  8 18  1  0  0  0
 10 11  1  0  0  0
 11 17  1  0  0  0
 11 12  2  0  0  0
 12 13  1  0  0  0
 13 14  1  0  0  0
 13 43  1  0  0  0
 13 44  1  0  0  0
 14 15  1  0  0  0
 14 45  1  0  0  0
 14 46  1  0  0  0
 15 16  1  0  0  0
 15 47  1  0  0  0
 15 48  1  0  0  0
 16 17  1  0  0  0
 16 49  1  0  0  0
 16 50  1  0  0  0
 17 51  1  0  0  0
 17 52  1  0  0  0
 18 19  1  0  0  0
 18 53  1  0  0  0
 19 20  2  0  0  0
 19 21  1  0  0  0
 21 22  1  0  0  0
 21 23  1  0  0  0
 21 24  1  0  0  0
 23 54  1  0  0  0
 23 55  1  0  0  0
 23 56  1  0  0  0
 24 25  1  0  0  0
 25 29  1  0  0  0
 25 26  2  0  0  0
 26 27  1  0  0  0
 27 28  2  0  0  0
 28 34  1  0  0  0
 28 29  1  0  0  0
 29 30  1  0  0  0
 30 37  1  0  0  0
 30 31  2  0  0  0
 31 32  1  0  0  0
 31 35  1  0  0  0
 32 33  2  0  0  0
 32 34  1  0  0  0
 35 36  1  0  0  0
 35 57  1  0  0  0
 35 58  1  0  0  0
 36 37  1  0  0  0
 36 59  1  0  0  0
 36 60  1  0  0  0
 37 61  1  0  0  0
 37 62  1  0  0  0
M  CHG  1  34  -1
M  END
> <i_i_glide_confnum>
56

> <i_i_glide_lignum>
3330

> <i_i_glide_posenum>
159

> <i_i_glide_rotatable_bonds>
8

> <i_m_Source_File_Index>
4903

> <b_m_subgroup_collapsed>
0

> <r_i_docking_score>
-5.29635

> <r_i_glide_ecoul>
-4.50705

> <r_i_glide_eff_state_penalty>
0

> <r_i_glide_einternal>
7.91607

> <r_i_glide_emodel>
-58.582

> <r_i_glide_energy>
-45.3869

> <r_i_glide_erotb>
0.485306

> <r_i_glide_esite>
-0.00516935

> <r_i_glide_evdw>
-40.8798

> <r_i_glide_gscore>
-5.29635

> <r_i_glide_hbond>
-0.48

> <r_i_glide_ligand_efficiency>
-0.155775

> <r_i_glide_ligand_efficiency_ln>
-1.17011

> <r_i_glide_ligand_efficiency_sa>
-0.50465

> <r_i_glide_lipo>
-2.05337

> <r_i_glide_metal>
0

> <r_i_glide_rewards>
-0.523065

> <s_i_glide_gridfile>
wee1_glide-grid

> <s_m_Source_File>
wee1_decoys_glide_SP.sdf

> <s_m_Source_Path>
/Users/zhangxujun/Desktop

> <s_m_entry_id>
5178

> <s_m_entry_name>
wee1_decoys_glide_SP.4903

> <s_m_subgroup_title>
wee1_decoys_glide_SP

> <s_m_subgroupid>
wee1_decoys_glide_SP


$$$$
