@<TRIPOS>MOLECULE
ZINC38971664_3501
53   56    1
SMALL
USER_CHARGES


@<TRIPOS>ATOM
      1 C1         -0.7261   51.1021   27.8574 C.3       1 UNK         0.0000 
      2 C2         -0.3084   50.8968   26.4154 C.ar      1 UNK         0.0000 
      3 C3          0.2682   49.6964   25.9997 C.ar      1 UNK         0.0000 
      4 C4          0.6613   49.5309   24.6722 C.ar      1 UNK         0.0000 
      5 C5          0.4826   50.5581   23.7348 C.ar      1 UNK         0.0000 
      6 C6         -0.1245   51.7580   24.1568 C.ar      1 UNK         0.0000 
      7 C7         -0.4993   51.9204   25.4923 C.ar      1 UNK         0.0000 
      8 C8         -0.4151   52.8968   23.2038 C.3       1 UNK         0.0000 
      9 S9          1.0255   50.3041   22.0217 S.o2      1 UNK         0.0000 
     10 O10        -0.1689   50.6471   21.2399 O.2       1 UNK         0.0000 
     11 O11         1.4201   48.8967   21.9818 O.2       1 UNK         0.0000 
     12 N12         2.3571   51.4525   22.0752 N.2       1 UNK         0.0000 
     13 C13         2.7615   51.9764   20.9847 C.2       1 UNK         0.0000 
     14 C14         3.8808   53.0673   21.1057 C.3       1 UNK         0.0000 
     15 H15         4.7793   52.5508   21.4491 H         1 UNK         0.0000 
     16 N16         4.2950   53.6569   19.7889 N.pl3     1 UNK         0.0000 
     17 C17         3.7977   53.2803   18.6200 C.2       1 UNK         0.0000 
     18 C18         4.2403   53.8626   17.4306 C.2       1 UNK         0.0000 
     19 C19         3.7250   53.4281   16.2497 C.2       1 UNK         0.0000 
     20 C20         2.7130   52.3718   16.1791 C.2       1 UNK         0.0000 
     21 C21         2.2551   51.7971   17.3163 C.2       1 UNK         0.0000 
     22 C22         2.7288   52.1801   18.6279 C.2       1 UNK         0.0000 
     23 N23         2.2960   51.6366   19.7087 N.2       1 UNK         0.0000 
     24 N24         3.5040   54.0971   22.0749 N.pl3     1 UNK         0.0000 
     25 C25         4.0993   54.1110   23.3410 C.ar      1 UNK         0.0000 
     26 C26         3.2733   54.2214   24.4564 C.ar      1 UNK         0.0000 
     27 C27         3.8308   54.3182   25.7265 C.ar      1 UNK         0.0000 
     28 C28         5.2204   54.3412   25.8867 C.ar      1 UNK         0.0000 
     29 C29         6.0467   54.2195   24.7599 C.ar      1 UNK         0.0000 
     30 C30         5.4869   54.0964   23.4916 C.ar      1 UNK         0.0000 
     31 C31         5.8078   54.4967   27.2647 C.2       1 UNK         0.0000 
     32 O32         5.1502   54.3427   28.2915 O.2       1 UNK         0.0000 
     33 O33         7.1044   54.8965   27.2818 O.3       1 UNK         0.0000 
     34 H34        -0.6254   52.1474   28.1539 H         1 UNK         0.0000 
     35 H35        -1.7624   50.7922   28.0021 H         1 UNK         0.0000 
     36 H36        -0.0945   50.5220   28.5304 H         1 UNK         0.0000 
     37 H37         0.3978   48.8835   26.7004 H         1 UNK         0.0000 
     38 H38         1.1041   48.5896   24.3839 H         1 UNK         0.0000 
     39 H39        -0.9589   52.8425   25.8180 H         1 UNK         0.0000 
     40 H40        -0.7398   53.7935   23.7275 H         1 UNK         0.0000 
     41 H41         0.4683   53.1694   22.6343 H         1 UNK         0.0000 
     42 H42        -1.1970   52.6093   22.5030 H         1 UNK         0.0000 
     43 H43         4.9922   54.6401   17.4523 H         1 UNK         0.0000 
     44 H44         4.0746   53.8760   15.3290 H         1 UNK         0.0000 
     45 H45         2.3542   52.0300   15.2184 H         1 UNK         0.0000 
     46 H46         1.5274   51.0032   17.2289 H         1 UNK         0.0000 
     47 H47         2.5158   54.3108   22.0616 H         1 UNK         0.0000 
     48 H48         2.1988   54.2377   24.3494 H         1 UNK         0.0000 
     49 H49         3.1725   54.4024   26.5802 H         1 UNK         0.0000 
     50 H50         7.1243   54.2216   24.8492 H         1 UNK         0.0000 
     51 H51         6.1362   54.0318   22.6321 H         1 UNK         0.0000 
     52 H52         7.3446   55.1112   28.1939 H         1 UNK         0.0000 
     53 H53         4.9946   54.3918   19.8031 H         1 UNK         0.0000 
@<TRIPOS>BOND
     1    1    2 1    
     2    1   34 1    
     3    1   35 1    
     4    1   36 1    
     5    2    7 ar   
     6    2    3 ar   
     7    3    4 ar   
     8    3   37 1    
     9    4    5 ar   
    10    4   38 1    
    11    5    6 ar   
    12    5    9 1    
    13    6    7 ar   
    14    6    8 1    
    15    7   39 1    
    16    8   40 1    
    17    8   41 1    
    18    8   42 1    
    19    9   10 2    
    20    9   11 2    
    21    9   12 1    
    22   12   13 2    
    23   13   23 1    
    24   13   14 1    
    25   14   15 1    
    26   14   16 1    
    27   14   24 1    
    28   16   17 2    
    29   16   53 1    
    30   17   22 1    
    31   17   18 1    
    32   18   19 2    
    33   18   43 1    
    34   19   20 1    
    35   19   44 1    
    36   20   21 2    
    37   20   45 1    
    38   21   22 1    
    39   21   46 1    
    40   22   23 2    
    41   24   25 1    
    42   24   47 1    
    43   25   30 ar   
    44   25   26 ar   
    45   26   27 ar   
    46   26   48 1    
    47   27   28 ar   
    48   27   49 1    
    49   28   29 ar   
    50   28   31 1    
    51   29   30 ar   
    52   29   50 1    
    53   30   51 1    
    54   31   32 2    
    55   31   33 1    
    56   33   52 1    
@<TRIPOS>SUBSTRUCTURE
     1 UNK         1 GROUP             0       ****    0 ROOT    
