@<TRIPOS>MOLECULE
ZINC21237980_3617
57   60    1
SMALL
USER_CHARGES


@<TRIPOS>ATOM
      1 C1          0.8845   55.9805   30.5089 C.ar      1 UNK         0.0000 
      2 C2          0.5961   54.6636   30.8642 C.ar      1 UNK         0.0000 
      3 C3          1.3182   53.6290   30.2764 C.ar      1 UNK         0.0000 
      4 C4          2.3280   53.9192   29.3485 C.ar      1 UNK         0.0000 
      5 C5          2.6330   55.2574   29.0623 C.ar      1 UNK         0.0000 
      6 C6          1.9040   56.2805   29.6283 C.ar      1 UNK         0.0000 
      7 C7          3.0451   52.7803   28.6020 C.3       1 UNK         0.0000 
      8 H8          3.6151   52.2750   29.3835 H         1 UNK         0.0000 
      9 C9          4.0861   53.2964   27.5868 C.ar      1 UNK         0.0000 
     10 C10         5.4317   53.3767   27.9646 C.ar      1 UNK         0.0000 
     11 C11         6.3628   53.9799   27.1254 C.ar      1 UNK         0.0000 
     12 C12         5.9550   54.4902   25.8958 C.ar      1 UNK         0.0000 
     13 C13         4.6271   54.3764   25.4876 C.ar      1 UNK         0.0000 
     14 C14         3.6934   53.7764   26.3298 C.ar      1 UNK         0.0000 
     15 Cl15        7.1037   55.2818   24.8813 Cl        1 UNK         0.0000 
     16 N16         2.1615   51.7128   28.0822 N.am      1 UNK         0.0000 
     17 C17         0.9852   51.8469   27.4380 C.2       1 UNK         0.0000 
     18 O18         0.4258   52.9271   27.2878 O.2       1 UNK         0.0000 
     19 C19         0.3523   50.5710   26.8683 C.3       1 UNK         0.0000 
     20 S20        -0.8639   50.8444   25.5327 S.3       1 UNK         0.0000 
     21 C21         0.2433   51.1275   24.1858 C.ar      1 UNK         0.0000 
     22 N22         1.2575   51.9587   24.2104 N.2       1 UNK         0.0000 
     23 N23         1.9048   51.8714   22.9846 N.2       1 UNK         0.0000 
     24 C24         1.2725   50.9697   22.2746 C.ar      1 UNK         0.0000 
     25 N25         0.2063   50.4573   22.9848 N.pl3     1 UNK         0.0000 
     26 N26        -0.7088   49.4949   22.5944 N.3       1 UNK         0.0000 
     27 C27         1.6695   50.5891   20.8554 C.3       1 UNK         0.0000 
     28 C28         1.9284   49.0743   20.6513 C.3       1 UNK         0.0000 
     29 C29         2.3970   48.7690   19.2151 C.3       1 UNK         0.0000 
     30 C30         1.4213   49.3157   18.1585 C.3       1 UNK         0.0000 
     31 C31         1.1709   50.8218   18.3511 C.3       1 UNK         0.0000 
     32 C32         0.7067   51.1581   19.7841 C.3       1 UNK         0.0000 
     33 H33         0.3042   56.8047   30.8820 H         1 UNK         0.0000 
     34 H34        -0.1970   54.4422   31.5630 H         1 UNK         0.0000 
     35 H35         1.0667   52.6055   30.5155 H         1 UNK         0.0000 
     36 H36         3.4101   55.5381   28.3710 H         1 UNK         0.0000 
     37 H37         2.1181   57.2987   29.3630 H         1 UNK         0.0000 
     38 H38         5.7565   53.0123   28.9265 H         1 UNK         0.0000 
     39 H39         7.3931   54.0638   27.4389 H         1 UNK         0.0000 
     40 H40         4.3149   54.7667   24.5298 H         1 UNK         0.0000 
     41 H41         2.6591   53.7283   26.0222 H         1 UNK         0.0000 
     42 H42         2.5554   50.7856   28.1040 H         1 UNK         0.0000 
     43 H43         1.1041   49.8580   26.5329 H         1 UNK         0.0000 
     44 H44        -0.1892   50.0971   27.6820 H         1 UNK         0.0000 
     45 H45        -0.6563   48.6713   23.1763 H         1 UNK         0.0000 
     46 H46        -1.6423   49.8746   22.5402 H         1 UNK         0.0000 
     47 H47         2.6322   51.0565   20.6335 H         1 UNK         0.0000 
     48 H48         2.7054   48.7283   21.3341 H         1 UNK         0.0000 
     49 H49         1.0208   48.4971   20.8265 H         1 UNK         0.0000 
     50 H50         3.3806   49.2123   19.0535 H         1 UNK         0.0000 
     51 H51         2.5291   47.6965   19.0801 H         1 UNK         0.0000 
     52 H52         1.8217   49.1318   17.1605 H         1 UNK         0.0000 
     53 H53         0.4759   48.7749   18.2155 H         1 UNK         0.0000 
     54 H54         2.0915   51.3655   18.1300 H         1 UNK         0.0000 
     55 H55         0.4339   51.1716   17.6275 H         1 UNK         0.0000 
     56 H56        -0.2938   50.7446   19.9198 H         1 UNK         0.0000 
     57 H57         0.6600   52.2461   19.8615 H         1 UNK         0.0000 
@<TRIPOS>BOND
     1    1    6 ar   
     2    1    2 ar   
     3    1   33 1    
     4    2    3 ar   
     5    2   34 1    
     6    3    4 ar   
     7    3   35 1    
     8    4    5 ar   
     9    4    7 1    
    10    5    6 ar   
    11    5   36 1    
    12    6   37 1    
    13    7    8 1    
    14    7    9 1    
    15    7   16 1    
    16    9   14 ar   
    17    9   10 ar   
    18   10   11 ar   
    19   10   38 1    
    20   11   12 ar   
    21   11   39 1    
    22   12   13 ar   
    23   12   15 1    
    24   13   14 ar   
    25   13   40 1    
    26   14   41 1    
    27   16   17 am   BACKBONE|DICT|INTERRES
    28   16   42 1    
    29   17   18 2    
    30   17   19 1    
    31   19   20 1    
    32   19   43 1    
    33   19   44 1    
    34   20   21 1    
    35   21   25 ar   
    36   21   22 ar   
    37   22   23 ar   
    38   23   24 ar   
    39   24   25 ar   
    40   24   27 1    
    41   25   26 1    
    42   26   45 1    
    43   26   46 1    
    44   27   32 1    
    45   27   28 1    
    46   27   47 1    
    47   28   29 1    
    48   28   48 1    
    49   28   49 1    
    50   29   30 1    
    51   29   50 1    
    52   29   51 1    
    53   30   31 1    
    54   30   52 1    
    55   30   53 1    
    56   31   32 1    
    57   31   54 1    
    58   31   55 1    
    59   32   56 1    
    60   32   57 1    
@<TRIPOS>SUBSTRUCTURE
     1 UNK         1 GROUP             0       ****    0 ROOT    
