@<TRIPOS>MOLECULE
ZINC06771089_2649
56   58    1
SMALL
USER_CHARGES


@<TRIPOS>ATOM
      1 C1         -0.5218   48.6673   21.4472 C.3       1 UNK         0.0000 
      2 C2         -1.1157   49.8308   20.6880 C.ar      1 UNK         0.0000 
      3 C3         -0.9816   50.3075   19.3892 C.ar      1 UNK         0.0000 
      4 C4         -1.7776   51.4670   19.3215 C.ar      1 UNK         0.0000 
      5 N5         -2.3824   51.6966   20.4648 N.2       1 UNK         0.0000 
      6 N6         -1.9773   50.7164   21.2735 N.pl3     1 UNK         0.0000 
      7 H7         -2.2878   50.6536   22.2325 H         1 UNK         0.0000 
      8 C8         -1.9908   52.4274   18.1734 C.3       1 UNK         0.0000 
      9 S9          0.0701   49.6402   18.0715 S.o2      1 UNK         0.0000 
     10 O10        -0.6990   49.7149   16.8239 O.2       1 UNK         0.0000 
     11 O11         0.6405   48.3790   18.5588 O.2       1 UNK         0.0000 
     12 N12         1.3196   50.8883   18.0802 N.pl3     1 UNK         0.0000 
     13 C13         1.8461   51.4290   16.8012 C.3       1 UNK         0.0000 
     14 C14         2.3798   52.8702   17.0076 C.3       1 UNK         0.0000 
     15 C15         3.3097   53.0086   18.2452 C.3       1 UNK         0.0000 
     16 C16         2.6218   52.3676   19.4782 C.3       1 UNK         0.0000 
     17 H17         1.6936   52.8967   19.7032 H         1 UNK         0.0000 
     18 C18         2.2874   50.8905   19.1955 C.3       1 UNK         0.0000 
     19 C19         3.5095   52.4871   20.7303 C.2       1 UNK         0.0000 
     20 O20         4.4937   51.7580   20.8819 O.2       1 UNK         0.0000 
     21 N21         3.1043   53.4067   21.6282 N.am      1 UNK         0.0000 
     22 C22         3.6994   53.6992   22.8543 C.ar      1 UNK         0.0000 
     23 C23         2.8526   53.9135   23.9402 C.ar      1 UNK         0.0000 
     24 C24         3.3952   54.1853   25.1907 C.ar      1 UNK         0.0000 
     25 C25         4.7798   54.2807   25.3525 C.ar      1 UNK         0.0000 
     26 C26         5.6227   54.0974   24.2481 C.ar      1 UNK         0.0000 
     27 C27         5.0857   53.8047   23.0007 C.ar      1 UNK         0.0000 
     28 C28         5.3356   54.5848   26.7431 C.3       1 UNK         0.0000 
     29 C29         5.3544   53.3391   27.6472 C.3       1 UNK         0.0000 
     30 C30         6.7060   55.2775   26.7090 C.3       1 UNK         0.0000 
     31 H31        -0.4209   47.7838   20.8187 H         1 UNK         0.0000 
     32 H32         0.4716   48.9077   21.8261 H         1 UNK         0.0000 
     33 H33        -1.1317   48.3724   22.3005 H         1 UNK         0.0000 
     34 H34        -1.3999   52.1647   17.2970 H         1 UNK         0.0000 
     35 H35        -3.0331   52.4529   17.8553 H         1 UNK         0.0000 
     36 H36        -1.7058   53.4447   18.4392 H         1 UNK         0.0000 
     37 H37         1.0824   51.3819   16.0249 H         1 UNK         0.0000 
     38 H38         2.7038   50.8249   16.5048 H         1 UNK         0.0000 
     39 H39         1.5302   53.5463   17.1178 H         1 UNK         0.0000 
     40 H40         2.9045   53.1986   16.1095 H         1 UNK         0.0000 
     41 H41         3.4755   54.0775   18.3925 H         1 UNK         0.0000 
     42 H42         4.2419   52.4970   17.9972 H         1 UNK         0.0000 
     43 H43         3.1721   50.3606   18.8398 H         1 UNK         0.0000 
     44 H44         1.8480   50.3768   20.0515 H         1 UNK         0.0000 
     45 H45         2.2510   53.9058   21.4170 H         1 UNK         0.0000 
     46 H46         1.7801   53.8432   23.8287 H         1 UNK         0.0000 
     47 H47         2.7368   54.3244   26.0356 H         1 UNK         0.0000 
     48 H48         6.6960   54.1577   24.3421 H         1 UNK         0.0000 
     49 H49         5.7456   53.6585   22.1580 H         1 UNK         0.0000 
     50 H50         4.6456   55.2966   27.1976 H         1 UNK         0.0000 
     51 H51         4.3718   52.8699   27.7017 H         1 UNK         0.0000 
     52 H52         5.6510   53.5952   28.6647 H         1 UNK         0.0000 
     53 H53         6.0566   52.5911   27.2816 H         1 UNK         0.0000 
     54 H54         6.7191   56.0965   25.9900 H         1 UNK         0.0000 
     55 H55         6.9462   55.6944   27.6795 H         1 UNK         0.0000 
     56 H56         7.4983   54.5751   26.4470 H         1 UNK         0.0000 
@<TRIPOS>BOND
     1    1    2 1    
     2    1   31 1    
     3    1   32 1    
     4    1   33 1    
     5    2    6 ar   
     6    2    3 ar   
     7    3    4 ar   
     8    3    9 1    
     9    4    5 ar   
    10    4    8 1    
    11    5    6 ar   
    12    6    7 1    
    13    8   34 1    
    14    8   35 1    
    15    8   36 1    
    16    9   10 2    
    17    9   11 2    
    18    9   12 1    
    19   12   18 1    
    20   12   13 1    
    21   13   14 1    
    22   13   37 1    
    23   13   38 1    
    24   14   15 1    
    25   14   39 1    
    26   14   40 1    
    27   15   16 1    
    28   15   41 1    
    29   15   42 1    
    30   16   17 1    
    31   16   18 1    
    32   16   19 1    
    33   18   43 1    
    34   18   44 1    
    35   19   20 2    
    36   19   21 am   BACKBONE|DICT|INTERRES
    37   21   22 1    
    38   21   45 1    
    39   22   27 ar   
    40   22   23 ar   
    41   23   24 ar   
    42   23   46 1    
    43   24   25 ar   
    44   24   47 1    
    45   25   26 ar   
    46   25   28 1    
    47   26   27 ar   
    48   26   48 1    
    49   27   49 1    
    50   28   29 1    
    51   28   30 1    
    52   28   50 1    
    53   29   51 1    
    54   29   52 1    
    55   29   53 1    
    56   30   54 1    
    57   30   55 1    
    58   30   56 1    
@<TRIPOS>SUBSTRUCTURE
     1 UNK         1 GROUP             0       ****    0 ROOT    
