ZINC67413689_6231
                    3D
 Schrodinger Suite 2024-2.
 55 56  0  0  1  0            999 V2000
    3.9912   54.1208   28.8498 C   0  0  0  0  0  0
    4.2365   54.1200   27.3524 C   0  0  0  0  0  0
    5.5416   54.1216   26.8593 C   0  0  0  0  0  0
    5.7662   54.1110   25.4847 C   0  0  0  0  0  0
    4.6799   54.0975   24.5922 C   0  0  0  0  0  0
    3.3772   54.0858   25.0966 C   0  0  0  0  0  0
    3.1556   54.0962   26.4711 C   0  0  0  0  0  0
    4.7985   54.0971   23.1867 N   0  0  0  0  0  0
    5.8472   54.4965   22.4364 C   0  0  0  0  0  0
    6.9563   54.7888   22.8830 O   0  0  0  0  0  0
    5.5048   54.6223   21.1350 N   0  0  0  0  0  0
    5.9540   55.5769   20.2810 C   0  0  0  0  0  0
    6.7187   56.4958   20.5991 O   0  0  0  0  0  0
    5.4037   55.4981   18.8316 C   0  0  2  0  0  0
    4.3235   55.3601   18.9168 H   0  0  0  0  0  0
    6.0064   54.2967   18.0920 C   0  0  0  0  0  0
    5.5357   56.8990   18.1510 N   0  3  2  0  0  0
    4.4264   57.1127   17.0893 C   0  0  0  0  0  0
    4.5214   58.5466   16.5258 C   0  0  0  0  0  0
    5.9244   58.8751   15.9871 C   0  0  0  0  0  0
    7.0272   58.6137   17.0384 C   0  0  1  0  0  0
    6.8119   59.2663   17.8889 H   0  0  0  0  0  0
    6.9393   57.1460   17.5326 C   0  0  0  0  0  0
    8.4240   59.0058   16.4918 C   0  0  0  0  0  0
    9.5387   58.5672   17.3357 N   0  0  0  0  0  0
   10.1658   59.3137   18.2568 C   0  0  0  0  0  0
    9.9039   60.4953   18.4815 O   0  0  0  0  0  0
   11.2579   58.6175   19.0570 C   0  0  0  0  0  0
    3.0436   53.6379   29.0944 H   0  0  0  0  0  0
    3.9809   55.1411   29.2370 H   0  0  0  0  0  0
    4.7688   53.5587   29.3675 H   0  0  0  0  0  0
    6.3822   54.1285   27.5384 H   0  0  0  0  0  0
    6.7879   54.0932   25.1399 H   0  0  0  0  0  0
    2.5267   54.0723   24.4298 H   0  0  0  0  0  0
    2.1431   54.0875   26.8478 H   0  0  0  0  0  0
    3.9372   53.9028   22.6992 H   0  0  0  0  0  0
    4.7516   54.0428   20.7998 H   0  0  0  0  0  0
    5.7243   53.3582   18.5741 H   0  0  0  0  0  0
    5.6348   54.2622   17.0674 H   0  0  0  0  0  0
    7.0959   54.3530   18.0636 H   0  0  0  0  0  0
    4.5506   56.3457   16.3229 H   0  0  0  0  0  0
    3.4688   56.9810   17.5943 H   0  0  0  0  0  0
    3.7889   58.6748   15.7275 H   0  0  0  0  0  0
    4.2422   59.2817   17.2817 H   0  0  0  0  0  0
    6.1231   58.2978   15.0825 H   0  0  0  0  0  0
    5.9583   59.9201   15.6695 H   0  0  0  0  0  0
    7.6704   56.9652   18.3209 H   0  0  0  0  0  0
    7.0960   56.4209   16.7322 H   0  0  0  0  0  0
    8.5718   58.5654   15.5040 H   0  0  0  0  0  0
    8.4601   60.0872   16.3331 H   0  0  0  0  0  0
    9.8738   57.6273   17.1846 H   0  0  0  0  0  0
   11.5945   57.7012   18.5714 H   0  0  0  0  0  0
   12.1193   59.2740   19.1787 H   0  0  0  0  0  0
   10.8777   58.3562   20.0446 H   0  0  0  0  0  0
    5.4014   57.5857   18.8821 H   0  0  0  0  0  0
  1  2  1  0  0  0
  1 29  1  0  0  0
  1 30  1  0  0  0
  1 31  1  0  0  0
  2  7  2  0  0  0
  2  3  1  0  0  0
  3  4  2  0  0  0
  3 32  1  0  0  0
  4  5  1  0  0  0
  4 33  1  0  0  0
  5  6  2  0  0  0
  5  8  1  0  0  0
  6  7  1  0  0  0
  6 34  1  0  0  0
  7 35  1  0  0  0
  8  9  1  0  0  0
  8 36  1  0  0  0
  9 10  2  0  0  0
  9 11  1  0  0  0
 11 12  1  0  0  0
 11 37  1  0  0  0
 12 13  2  0  0  0
 12 14  1  0  0  0
 14 15  1  0  0  0
 14 16  1  0  0  0
 14 17  1  0  0  0
 16 38  1  0  0  0
 16 39  1  0  0  0
 16 40  1  0  0  0
 17 23  1  0  0  0
 17 18  1  0  0  0
 17 55  1  0  0  0
 18 19  1  0  0  0
 18 41  1  0  0  0
 18 42  1  0  0  0
 19 20  1  0  0  0
 19 43  1  0  0  0
 19 44  1  0  0  0
 20 21  1  0  0  0
 20 45  1  0  0  0
 20 46  1  0  0  0
 21 22  1  0  0  0
 21 23  1  0  0  0
 21 24  1  0  0  0
 23 47  1  0  0  0
 23 48  1  0  0  0
 24 25  1  0  0  0
 24 49  1  0  0  0
 24 50  1  0  0  0
 25 26  1  0  0  0
 25 51  1  0  0  0
 26 27  2  0  0  0
 26 28  1  0  0  0
 28 52  1  0  0  0
 28 53  1  0  0  0
 28 54  1  0  0  0
M  CHG  1  17   1
M  END
> <i_i_glide_confnum>
98

> <i_i_glide_lignum>
6232

> <i_i_glide_posenum>
246

> <i_i_glide_rotatable_bonds>
9

> <i_m_Source_File_Index>
822

> <b_m_subgroup_collapsed>
0

> <r_i_docking_score>
-5.08312

> <r_i_glide_ecoul>
-8.91266

> <r_i_glide_eff_state_penalty>
0

> <r_i_glide_einternal>
6.30196

> <r_i_glide_emodel>
-52.8584

> <r_i_glide_energy>
-41.0185

> <r_i_glide_erotb>
1.17507

> <r_i_glide_esite>
-0.0293762

> <r_i_glide_evdw>
-32.1059

> <r_i_glide_gscore>
-5.08312

> <r_i_glide_hbond>
-0.357139

> <r_i_glide_ligand_efficiency>
-0.195505

> <r_i_glide_ligand_efficiency_ln>
-1.19375

> <r_i_glide_ligand_efficiency_sa>
-0.579182

> <r_i_glide_lipo>
-1.84341

> <r_i_glide_metal>
0

> <r_i_glide_rewards>
-1.08608

> <s_i_glide_gridfile>
wee1_glide-grid

> <s_m_Source_File>
wee1_decoys_glide_SP.sdf

> <s_m_Source_Path>
/Users/zhangxujun/Desktop

> <s_m_entry_id>
1097

> <s_m_entry_name>
wee1_decoys_glide_SP.822

> <s_m_subgroup_title>
wee1_decoys_glide_SP

> <s_m_subgroupid>
wee1_decoys_glide_SP


$$$$
