@<TRIPOS>MOLECULE
ZINC27531048_2052
61   65    1
SMALL
USER_CHARGES


@<TRIPOS>ATOM
      1 C1          6.8697   54.0965   27.8778 C.3       1 UNK         0.0000 
      2 C2          5.7489   54.1297   26.8576 C.ar      1 UNK         0.0000 
      3 C3          6.0565   54.1455   25.4987 C.ar      1 UNK         0.0000 
      4 C4          5.0348   54.0966   24.5546 C.ar      1 UNK         0.0000 
      5 C5          3.6938   54.0258   24.9601 C.ar      1 UNK         0.0000 
      6 C6          3.3947   54.0928   26.3276 C.ar      1 UNK         0.0000 
      7 C7          4.4170   54.1291   27.2726 C.ar      1 UNK         0.0000 
      8 C8          2.5678   53.9151   23.9760 C.2       1 UNK         0.0000 
      9 O9          1.5048   54.4967   24.1661 O.2       1 UNK         0.0000 
     10 C10         2.6335   52.9617   22.8516 C.2       1 UNK         0.0000 
     11 C11         3.2682   53.2919   21.7016 C.2       1 UNK         0.0000 
     12 N12         3.2531   52.4460   20.5786 N.pl3     1 UNK         0.0000 
     13 C13         2.6213   51.1852   20.6187 C.2       1 UNK         0.0000 
     14 C14         1.9172   50.7849   21.7257 C.2       1 UNK         0.0000 
     15 C15         1.8230   51.6533   23.0109 C.3       1 UNK         0.0000 
     16 H16         2.3044   51.0497   23.7817 H         1 UNK         0.0000 
     17 C17         0.4043   51.8138   23.6050 C.ar      1 UNK         0.0000 
     18 C18        -0.6742   52.0993   22.7653 C.ar      1 UNK         0.0000 
     19 C19        -1.9396   52.3250   23.2983 C.ar      1 UNK         0.0000 
     20 C20        -2.1517   52.2614   24.6825 C.ar      1 UNK         0.0000 
     21 C21        -1.0749   51.9333   25.5179 C.ar      1 UNK         0.0000 
     22 C22         0.1914   51.7122   24.9844 C.ar      1 UNK         0.0000 
     23 N23        -3.4902   52.5510   25.2536 N.pl3     1 UNK         0.0000 
     24 O24        -3.6358   52.4960   26.4722 O.co2     1 UNK         0.0000 
     25 O25        -4.4007   52.8534   24.4860 O.co2     1 UNK         0.0000 
     26 C26         1.2288   49.4646   21.7765 C.2       1 UNK         0.0000 
     27 O27         0.7940   48.9925   22.8262 O.2       1 UNK         0.0000 
     28 C28         1.2112   48.6082   20.5039 C.3       1 UNK         0.0000 
     29 C29         1.3612   49.4613   19.2425 C.3       1 UNK         0.0000 
     30 C30         2.6363   50.3069   19.3443 C.3       1 UNK         0.0000 
     31 C31         3.8746   52.8900   19.3799 C.ar      1 UNK         0.0000 
     32 C32         3.1046   53.4198   18.3389 C.ar      1 UNK         0.0000 
     33 C33         3.7223   53.9288   17.1999 C.ar      1 UNK         0.0000 
     34 C34         5.1126   53.9198   17.1077 C.ar      1 UNK         0.0000 
     35 C35         5.8900   53.4097   18.1451 C.ar      1 UNK         0.0000 
     36 C36         5.2695   52.8975   19.2817 C.ar      1 UNK         0.0000 
     37 N37         3.9202   54.4966   21.5225 N.pl3     1 UNK         0.0000 
     38 H38         7.4105   53.1515   27.8138 H         1 UNK         0.0000 
     39 H39         7.5810   54.8968   27.6813 H         1 UNK         0.0000 
     40 H40         6.5007   54.2226   28.8956 H         1 UNK         0.0000 
     41 H41         7.0858   54.1532   25.1693 H         1 UNK         0.0000 
     42 H42         5.3209   54.0584   23.5170 H         1 UNK         0.0000 
     43 H43         2.3692   54.0711   26.6710 H         1 UNK         0.0000 
     44 H44         4.1705   54.1359   28.3241 H         1 UNK         0.0000 
     45 H45        -0.5200   52.1784   21.6991 H         1 UNK         0.0000 
     46 H46        -2.7520   52.5646   22.6283 H         1 UNK         0.0000 
     47 H47        -1.2090   51.8601   26.5882 H         1 UNK         0.0000 
     48 H48         1.0116   51.4835   25.6488 H         1 UNK         0.0000 
     49 H49         0.3185   47.9833   20.4900 H         1 UNK         0.0000 
     50 H50         2.0762   47.9474   20.5703 H         1 UNK         0.0000 
     51 H51         0.4858   50.1007   19.1101 H         1 UNK         0.0000 
     52 H52         1.4108   48.8208   18.3603 H         1 UNK         0.0000 
     53 H53         2.5915   50.8967   18.4316 H         1 UNK         0.0000 
     54 H54         3.5323   49.6992   19.2817 H         1 UNK         0.0000 
     55 H55         2.0279   53.4486   18.4259 H         1 UNK         0.0000 
     56 H56         3.1264   54.3336   16.3952 H         1 UNK         0.0000 
     57 H57         5.5924   54.3123   16.2230 H         1 UNK         0.0000 
     58 H58         6.9669   53.3995   18.0644 H         1 UNK         0.0000 
     59 H59         5.8680   52.4927   20.0824 H         1 UNK         0.0000 
     60 H60         3.8455   55.2345   22.2061 H         1 UNK         0.0000 
     61 H61         4.2705   54.7412   20.6074 H         1 UNK         0.0000 
@<TRIPOS>BOND
     1    1    2 1    
     2    1   38 1    
     3    1   39 1    
     4    1   40 1    
     5    2    7 ar   
     6    2    3 ar   
     7    3    4 ar   
     8    3   41 1    
     9    4    5 ar   
    10    4   42 1    
    11    5    6 ar   
    12    5    8 1    
    13    6    7 ar   
    14    6   43 1    
    15    7   44 1    
    16    8    9 2    
    17    8   10 1    
    18   10   15 1    
    19   10   11 2    
    20   11   12 1    
    21   11   37 1    
    22   12   13 1    
    23   12   31 1    
    24   13   30 1    
    25   13   14 2    
    26   14   15 1    
    27   14   26 1    
    28   15   16 1    
    29   15   17 1    
    30   17   22 ar   
    31   17   18 ar   
    32   18   19 ar   
    33   18   45 1    
    34   19   20 ar   
    35   19   46 1    
    36   20   21 ar   
    37   20   23 1    
    38   21   22 ar   
    39   21   47 1    
    40   22   48 1    
    41   23   24 2    
    42   23   25 1    
    43   26   27 2    
    44   26   28 1    
    45   28   29 1    
    46   28   49 1    
    47   28   50 1    
    48   29   30 1    
    49   29   51 1    
    50   29   52 1    
    51   30   53 1    
    52   30   54 1    
    53   31   36 ar   
    54   31   32 ar   
    55   32   33 ar   
    56   32   55 1    
    57   33   34 ar   
    58   33   56 1    
    59   34   35 ar   
    60   34   57 1    
    61   35   36 ar   
    62   35   58 1    
    63   36   59 1    
    64   37   60 1    
    65   37   61 1    
@<TRIPOS>SUBSTRUCTURE
     1 UNK         1 GROUP             0       ****    0 ROOT    
