ZINC02518444_2399
                    3D
 Schrodinger Suite 2024-2.
 59 62  0  0  1  0            999 V2000
    2.8303   52.4081   31.3028 C   0  0  0  0  0  0
    3.3784   53.0111   30.0009 C   0  0  0  0  0  0
    2.5110   52.7140   28.7956 C   0  0  0  0  0  0
    1.6396   51.6656   28.5593 C   0  0  0  0  0  0
    1.1044   51.6395   27.2783 C   0  0  0  0  0  0
    1.5011   52.6874   26.4421 C   0  0  0  0  0  0
    2.5294   53.7357   27.3928 S   0  0  0  0  0  0
    1.1412   52.9785   24.9656 C   0  0  1  0  0  0
    0.7031   53.9708   24.9111 H   0  0  0  0  0  0
    2.3573   53.1430   24.0379 C   0  0  0  0  0  0
    2.4002   52.6013   22.8040 C   0  0  0  0  0  0
    1.3855   51.7632   22.3239 N   0  0  0  0  0  0
    0.2665   51.4335   23.1097 C   0  0  0  0  0  0
    0.0831   52.0150   24.3371 C   0  0  0  0  0  0
   -1.1898   51.8087   25.0869 C   0  0  0  0  0  0
   -1.5224   52.4968   26.0484 O   0  0  0  0  0  0
   -2.1665   50.7647   24.5398 C   0  0  0  0  0  0
   -2.2285   50.7668   22.9987 C   0  0  0  0  0  0
   -0.7961   50.4827   22.4892 C   0  0  0  0  0  0
   -2.7196   52.1347   22.4709 C   0  0  0  0  0  0
   -3.1475   49.6050   22.5662 C   0  0  0  0  0  0
    1.5293   51.1732   21.0440 C   0  0  0  0  0  0
    1.1429   51.9118   19.9217 C   0  0  0  0  0  0
    1.3142   51.4066   18.6261 C   0  0  0  0  0  0
    1.9031   50.1424   18.4774 C   0  0  0  0  0  0
    2.2779   49.3927   19.5915 C   0  0  0  0  0  0
    2.0851   49.8923   20.8809 C   0  0  0  0  0  0
    2.5070   49.0550   22.0809 C   0  0  0  0  0  0
    0.8853   52.1953   17.4450 N   0  3  0  0  0  0
    1.1118   51.7483   16.3240 O   0  0  0  0  0  0
    0.2959   53.2565   17.6336 O   0  5  0  0  0  0
    3.4748   52.8188   21.9601 N   0  0  0  0  0  0
    3.4837   53.9128   24.4742 C   0  0  0  0  0  0
    4.4363   54.4971   24.7743 N   0  0  0  0  0  0
    3.5506   52.4965   32.1160 H   0  0  0  0  0  0
    2.6180   51.3480   31.2058 H   0  0  0  0  0  0
    1.9003   52.8931   31.6041 H   0  0  0  0  0  0
    3.5043   54.0886   30.1211 H   0  0  0  0  0  0
    4.3798   52.6165   29.8233 H   0  0  0  0  0  0
    1.4203   50.8970   29.2818 H   0  0  0  0  0  0
    0.4538   50.8356   26.9649 H   0  0  0  0  0  0
   -3.1449   50.9149   24.9967 H   0  0  0  0  0  0
   -1.8045   49.8006   24.8981 H   0  0  0  0  0  0
   -0.8799   50.6103   21.4099 H   0  0  0  0  0  0
   -0.4801   49.4584   22.6889 H   0  0  0  0  0  0
   -3.6646   52.4039   22.9367 H   0  0  0  0  0  0
   -2.0239   52.9497   22.6648 H   0  0  0  0  0  0
   -2.8719   52.0971   21.3914 H   0  0  0  0  0  0
   -4.1635   49.7486   22.9355 H   0  0  0  0  0  0
   -3.2092   49.5320   21.4794 H   0  0  0  0  0  0
   -2.7963   48.6419   22.9415 H   0  0  0  0  0  0
    0.7183   52.8961   20.0668 H   0  0  0  0  0  0
    2.0842   49.7298   17.4942 H   0  0  0  0  0  0
    2.7328   48.4244   19.4398 H   0  0  0  0  0  0
    3.0996   48.1886   21.7917 H   0  0  0  0  0  0
    3.1044   49.6512   22.7698 H   0  0  0  0  0  0
    1.6401   48.7103   22.6395 H   0  0  0  0  0  0
    4.2434   53.4100   22.2414 H   0  0  0  0  0  0
    3.4380   52.5313   20.9896 H   0  0  0  0  0  0
  1  2  1  0  0  0
  1 35  1  0  0  0
  1 36  1  0  0  0
  1 37  1  0  0  0
  2  3  1  0  0  0
  2 38  1  0  0  0
  2 39  1  0  0  0
  3  7  1  0  0  0
  3  4  2  0  0  0
  4  5  1  0  0  0
  4 40  1  0  0  0
  5  6  2  0  0  0
  5 41  1  0  0  0
  6  7  1  0  0  0
  6  8  1  0  0  0
  8  9  1  0  0  0
  8 14  1  0  0  0
  8 10  1  0  0  0
 10 11  2  0  0  0
 10 33  1  0  0  0
 11 12  1  0  0  0
 11 32  1  0  0  0
 12 13  1  0  0  0
 12 22  1  0  0  0
 13 19  1  0  0  0
 13 14  2  0  0  0
 14 15  1  0  0  0
 15 16  2  0  0  0
 15 17  1  0  0  0
 17 18  1  0  0  0
 17 42  1  0  0  0
 17 43  1  0  0  0
 18 19  1  0  0  0
 18 20  1  0  0  0
 18 21  1  0  0  0
 19 44  1  0  0  0
 19 45  1  0  0  0
 20 46  1  0  0  0
 20 47  1  0  0  0
 20 48  1  0  0  0
 21 49  1  0  0  0
 21 50  1  0  0  0
 21 51  1  0  0  0
 22 27  2  0  0  0
 22 23  1  0  0  0
 23 24  2  0  0  0
 23 52  1  0  0  0
 24 25  1  0  0  0
 24 29  1  0  0  0
 25 26  2  0  0  0
 25 53  1  0  0  0
 26 27  1  0  0  0
 26 54  1  0  0  0
 27 28  1  0  0  0
 28 55  1  0  0  0
 28 56  1  0  0  0
 28 57  1  0  0  0
 29 30  2  0  0  0
 29 31  1  0  0  0
 32 58  1  0  0  0
 32 59  1  0  0  0
 33 34  3  0  0  0
M  CHG  2  29   1  31  -1
M  END
> <i_i_glide_confnum>
6

> <i_i_glide_lignum>
2400

> <i_i_glide_posenum>
56

> <i_i_glide_rotatable_bonds>
5

> <i_m_Source_File_Index>
2590

> <b_m_subgroup_collapsed>
0

> <r_i_docking_score>
-4.53905

> <r_i_glide_ecoul>
-1.98007

> <r_i_glide_eff_state_penalty>
0

> <r_i_glide_einternal>
6.80858

> <r_i_glide_emodel>
-45.1884

> <r_i_glide_energy>
-38.0745

> <r_i_glide_erotb>
0.1883

> <r_i_glide_esite>
-0.0538725

> <r_i_glide_evdw>
-36.0945

> <r_i_glide_gscore>
-4.53905

> <r_i_glide_hbond>
0

> <r_i_glide_ligand_efficiency>
-0.137547

> <r_i_glide_ligand_efficiency_ln>
-1.00946

> <r_i_glide_ligand_efficiency_sa>
-0.441187

> <r_i_glide_lipo>
-1.85423

> <r_i_glide_metal>
0

> <r_i_glide_rewards>
-0.717518

> <s_i_glide_gridfile>
wee1_glide-grid

> <s_m_Source_File>
wee1_decoys_glide_SP.sdf

> <s_m_Source_Path>
/Users/zhangxujun/Desktop

> <s_m_entry_id>
2865

> <s_m_entry_name>
wee1_decoys_glide_SP.2590

> <s_m_subgroup_title>
wee1_decoys_glide_SP

> <s_m_subgroupid>
wee1_decoys_glide_SP


$$$$
