@<TRIPOS>MOLECULE
ZINC20170508_6110
57   60    1
SMALL
USER_CHARGES


@<TRIPOS>ATOM
      1 C1          6.9641   55.2591   17.7934 C.3       1 UNK         0.0000 
      2 C2          6.7748   55.1798   19.2967 C.ar      1 UNK         0.0000 
      3 C3          5.6662   54.5187   19.8227 C.ar      1 UNK         0.0000 
      4 C4          5.5044   54.4187   21.2017 C.ar      1 UNK         0.0000 
      5 C5          6.4541   54.9782   22.0763 C.ar      1 UNK         0.0000 
      6 C6          7.5529   55.6543   21.5304 C.ar      1 UNK         0.0000 
      7 C7          7.7217   55.7418   20.1514 C.ar      1 UNK         0.0000 
      8 C8          6.3038   54.8966   23.5704 C.2       1 UNK         0.0000 
      9 O9          7.1044   55.3746   24.3734 O.2       1 UNK         0.0000 
     10 C10         5.0012   54.2782   24.0782 C.3       1 UNK         0.0000 
     11 S11         4.7200   54.5686   25.8606 S.3       1 UNK         0.0000 
     12 C12         3.1806   53.7087   26.0926 C.2       1 UNK         0.0000 
     13 C13         2.8283   52.9658   27.1608 C.2       1 UNK         0.0000 
     14 C14         1.4772   52.2257   27.2164 C.3       1 UNK         0.0000 
     15 H15         1.7093   51.1632   27.2829 H         1 UNK         0.0000 
     16 C16         0.6526   52.4425   25.9163 C.2       1 UNK         0.0000 
     17 C17         1.1048   53.2487   24.9208 C.2       1 UNK         0.0000 
     18 N18         2.3296   53.8523   25.0247 N.pl3     1 UNK         0.0000 
     19 C19         0.4294   53.5379   23.5924 C.3       1 UNK         0.0000 
     20 C20        -0.6090   51.7367   25.7810 C.2       1 UNK         0.0000 
     21 O21        -1.6623   52.3234   25.5249 O.2       1 UNK         0.0000 
     22 N22        -0.4628   50.3986   25.8416 N.am      1 UNK         0.0000 
     23 C23        -1.4135   49.3945   25.5954 C.ar      1 UNK         0.0000 
     24 C24        -2.8035   49.5753   25.6742 C.ar      1 UNK         0.0000 
     25 C25        -3.6561   48.4998   25.4272 C.ar      1 UNK         0.0000 
     26 C26        -3.1248   47.2514   25.1082 C.ar      1 UNK         0.0000 
     27 C27        -1.7485   47.0683   25.0295 C.ar      1 UNK         0.0000 
     28 C28        -0.8954   48.1377   25.2799 C.ar      1 UNK         0.0000 
     29 F29        -3.9475   46.2026   24.8761 F         1 UNK         0.0000 
     30 C30         0.7372   52.6189   28.4745 C.2       1 UNK         0.0000 
     31 C31        -0.0638   51.9153   29.3474 C.2       1 UNK         0.0000 
     32 C32        -0.3161   52.7594   30.4165 C.2       1 UNK         0.0000 
     33 C33         0.2857   53.9703   30.1322 C.2       1 UNK         0.0000 
     34 O34         0.9003   53.8940   28.9290 O.3       1 UNK         0.0000 
     35 C35         3.6761   52.8967   28.3104 C.1       1 UNK         0.0000 
     36 N36         4.3044   52.8235   29.2796 N.1       1 UNK         0.0000 
     37 H37         6.3965   56.0919   17.3785 H         1 UNK         0.0000 
     38 H38         8.0157   55.3774   17.5303 H         1 UNK         0.0000 
     39 H39         6.6244   54.3391   17.3154 H         1 UNK         0.0000 
     40 H40         4.9332   54.0726   19.1649 H         1 UNK         0.0000 
     41 H41         4.6349   53.8862   21.5574 H         1 UNK         0.0000 
     42 H42         8.3043   56.0971   22.1686 H         1 UNK         0.0000 
     43 H43         8.5909   56.2448   19.7513 H         1 UNK         0.0000 
     44 H44         4.1873   54.7409   23.5231 H         1 UNK         0.0000 
     45 H45         5.0084   53.2124   23.8628 H         1 UNK         0.0000 
     46 H46         2.5980   54.4910   24.2927 H         1 UNK         0.0000 
     47 H47        -0.0754   54.4962   23.6819 H         1 UNK         0.0000 
     48 H48         1.1456   53.5892   22.7702 H         1 UNK         0.0000 
     49 H49        -0.3150   52.7914   23.3169 H         1 UNK         0.0000 
     50 H50         0.4695   50.0561   26.0086 H         1 UNK         0.0000 
     51 H51        -3.2346   50.5258   25.9469 H         1 UNK         0.0000 
     52 H52        -4.7255   48.6291   25.4961 H         1 UNK         0.0000 
     53 H53        -1.3405   46.0983   24.7946 H         1 UNK         0.0000 
     54 H54         0.1730   47.9776   25.2379 H         1 UNK         0.0000 
     55 H55        -0.3942   50.8937   29.2425 H         1 UNK         0.0000 
     56 H56        -0.8956   52.5007   31.2817 H         1 UNK         0.0000 
     57 H57         0.3433   54.9179   30.6477 H         1 UNK         0.0000 
@<TRIPOS>BOND
     1    1    2 1    
     2    1   37 1    
     3    1   38 1    
     4    1   39 1    
     5    2    7 ar   
     6    2    3 ar   
     7    3    4 ar   
     8    3   40 1    
     9    4    5 ar   
    10    4   41 1    
    11    5    6 ar   
    12    5    8 1    
    13    6    7 ar   
    14    6   42 1    
    15    7   43 1    
    16    8    9 2    
    17    8   10 1    
    18   10   11 1    
    19   10   44 1    
    20   10   45 1    
    21   11   12 1    
    22   12   18 1    
    23   12   13 2    
    24   13   14 1    
    25   13   35 1    
    26   14   15 1    
    27   14   16 1    
    28   14   30 1    
    29   16   17 2    
    30   16   20 1    
    31   17   18 1    
    32   17   19 1    
    33   18   46 1    
    34   19   47 1    
    35   19   48 1    
    36   19   49 1    
    37   20   21 2    
    38   20   22 am   BACKBONE|DICT|INTERRES
    39   22   23 1    
    40   22   50 1    
    41   23   28 ar   
    42   23   24 ar   
    43   24   25 ar   
    44   24   51 1    
    45   25   26 ar   
    46   25   52 1    
    47   26   27 ar   
    48   26   29 1    
    49   27   28 ar   
    50   27   53 1    
    51   28   54 1    
    52   30   34 1    
    53   30   31 2    
    54   31   32 1    
    55   31   55 1    
    56   32   33 2    
    57   32   56 1    
    58   33   34 1    
    59   33   57 1    
    60   35   36 3    
@<TRIPOS>SUBSTRUCTURE
     1 UNK         1 GROUP             0       ****    0 ROOT    
