@<TRIPOS>MOLECULE
ZINC44885138_4651
55   57    1
SMALL
USER_CHARGES


@<TRIPOS>ATOM
      1 C1          6.4937   54.6297   27.5069 C.3       1 UNK         0.0000 
      2 C2          5.6117   54.3599   26.3037 C.ar      1 UNK         0.0000 
      3 C3          4.2650   54.0314   26.4795 C.ar      1 UNK         0.0000 
      4 C4          3.4740   53.7151   25.3761 C.ar      1 UNK         0.0000 
      5 C5          4.0348   53.7098   24.0935 C.ar      1 UNK         0.0000 
      6 C6          5.3690   54.0968   23.9181 C.ar      1 UNK         0.0000 
      7 C7          6.1585   54.4115   25.0204 C.ar      1 UNK         0.0000 
      8 S8          3.0432   53.3023   22.6471 S.o2      1 UNK         0.0000 
      9 O9          4.0240   53.0388   21.5889 O.2       1 UNK         0.0000 
     10 O10         2.2074   54.4912   22.4895 O.2       1 UNK         0.0000 
     11 N11         2.3044   51.9961   23.1154 N.2       1 UNK         0.0000 
     12 C12         1.0356   51.8680   23.6279 C.ar      1 UNK         0.0000 
     13 C13         0.1032   52.8967   23.8241 C.ar      1 UNK         0.0000 
     14 C14        -1.1729   52.6296   24.3076 C.ar      1 UNK         0.0000 
     15 C15        -1.5493   51.3326   24.6612 C.ar      1 UNK         0.0000 
     16 C16        -0.6280   50.2883   24.4905 C.ar      1 UNK         0.0000 
     17 C17         0.6401   50.5702   23.9773 C.ar      1 UNK         0.0000 
     18 Cl18       -1.0095   48.6414   24.8761 Cl        1 UNK         0.0000 
     19 C19        -2.9510   51.1177   25.1442 C.2       1 UNK         0.0000 
     20 O20        -3.8947   51.2461   24.3608 O.2       1 UNK         0.0000 
     21 N21        -3.0637   50.9135   26.4718 N.am      1 UNK         0.0000 
     22 C22        -4.2048   51.1369   27.2633 C.ar      1 UNK         0.0000 
     23 C23        -4.2877   50.4755   28.4905 C.ar      1 UNK         0.0000 
     24 C24        -5.3478   50.7367   29.3726 C.ar      1 UNK         0.0000 
     25 C25        -6.3484   51.6446   28.9930 C.ar      1 UNK         0.0000 
     26 C26        -6.2889   52.3163   27.7624 C.ar      1 UNK         0.0000 
     27 C27        -5.2033   52.0617   26.9134 C.ar      1 UNK         0.0000 
     28 C28        -7.3217   53.3203   27.3499 C.2       1 UNK         0.0000 
     29 O29        -7.1817   54.0816   26.3885 O.2       1 UNK         0.0000 
     30 O30        -8.4377   53.2866   28.1190 O.3       1 UNK         0.0000 
     31 C31        -9.5469   54.1231   27.8257 C.3       1 UNK         0.0000 
     32 C32        -5.4130   50.0205   30.6844 C.2       1 UNK         0.0000 
     33 O33        -4.8958   48.9193   30.8812 O.2       1 UNK         0.0000 
     34 O34        -6.0256   50.7560   31.6465 O.3       1 UNK         0.0000 
     35 C35        -6.1177   50.2742   32.9797 C.3       1 UNK         0.0000 
     36 H36         6.0567   54.2345   28.4238 H         1 UNK         0.0000 
     37 H37         7.4609   54.1401   27.3855 H         1 UNK         0.0000 
     38 H38         6.6661   55.6978   27.6236 H         1 UNK         0.0000 
     39 H39         3.8344   53.9982   27.4683 H         1 UNK         0.0000 
     40 H40         2.4360   53.4527   25.5185 H         1 UNK         0.0000 
     41 H41         5.8061   54.1265   22.9307 H         1 UNK         0.0000 
     42 H42         7.1950   54.6728   24.8715 H         1 UNK         0.0000 
     43 H43         0.3281   53.9240   23.6068 H         1 UNK         0.0000 
     44 H44        -1.8690   53.4472   24.4125 H         1 UNK         0.0000 
     45 H45         1.3340   49.7508   23.8502 H         1 UNK         0.0000 
     46 H46        -2.2288   50.6316   26.9658 H         1 UNK         0.0000 
     47 H47        -3.5129   49.7674   28.7679 H         1 UNK         0.0000 
     48 H48        -7.1758   51.8318   29.6663 H         1 UNK         0.0000 
     49 H49        -5.1272   52.6034   25.9810 H         1 UNK         0.0000 
     50 H50       -10.3151   54.0090   28.5907 H         1 UNK         0.0000 
     51 H51        -9.9881   53.8625   26.8600 H         1 UNK         0.0000 
     52 H52        -9.2533   55.1737   27.7960 H         1 UNK         0.0000 
     53 H53        -6.6203   51.0117   33.6057 H         1 UNK         0.0000 
     54 H54        -6.6847   49.3426   33.0248 H         1 UNK         0.0000 
     55 H55        -5.1268   50.0967   33.4039 H         1 UNK         0.0000 
@<TRIPOS>BOND
     1    1    2 1    
     2    1   36 1    
     3    1   37 1    
     4    1   38 1    
     5    2    7 ar   
     6    2    3 ar   
     7    3    4 ar   
     8    3   39 1    
     9    4    5 ar   
    10    4   40 1    
    11    5    6 ar   
    12    5    8 1    
    13    6    7 ar   
    14    6   41 1    
    15    7   42 1    
    16    8    9 2    
    17    8   10 2    
    18    8   11 1    
    19   11   12 1    
    20   12   17 ar   
    21   12   13 ar   
    22   13   14 ar   
    23   13   43 1    
    24   14   15 ar   
    25   14   44 1    
    26   15   16 ar   
    27   15   19 1    
    28   16   17 ar   
    29   16   18 1    
    30   17   45 1    
    31   19   20 2    
    32   19   21 am   BACKBONE|DICT|INTERRES
    33   21   22 1    
    34   21   46 1    
    35   22   27 ar   
    36   22   23 ar   
    37   23   24 ar   
    38   23   47 1    
    39   24   25 ar   
    40   24   32 1    
    41   25   26 ar   
    42   25   48 1    
    43   26   27 ar   
    44   26   28 1    
    45   27   49 1    
    46   28   29 2    
    47   28   30 1    
    48   30   31 1    
    49   31   50 1    
    50   31   51 1    
    51   31   52 1    
    52   32   33 2    
    53   32   34 1    
    54   34   35 1    
    55   35   53 1    
    56   35   54 1    
    57   35   55 1    
@<TRIPOS>SUBSTRUCTURE
     1 UNK         1 GROUP             0       ****    0 ROOT    
