ZINC09292103_2377
                    3D
 Schrodinger Suite 2024-2.
 52 56  0  0  1  0            999 V2000
   -0.5228   52.1964   24.4406 C   0  0  0  0  0  0
    0.6802   52.7666   23.7275 C   0  0  0  0  0  0
    1.1508   54.0723   23.6803 C   0  0  0  0  0  0
    2.2769   54.2392   22.8815 C   0  0  0  0  0  0
    2.8207   53.0593   22.4049 C   0  0  0  0  0  0
    1.7495   51.7465   22.8107 S   0  0  0  0  0  0
    4.1562   52.8405   21.7207 C   0  0  2  0  0  0
    4.5718   51.8995   22.0802 H   0  0  0  0  0  0
    5.2180   53.9275   21.9876 C   0  0  0  0  0  0
    5.8304   54.4965   23.1262 C   0  0  0  0  0  0
    6.7699   55.3426   22.5862 N   0  0  0  0  0  0
    7.4233   55.8750   23.1418 H   0  0  0  0  0  0
    6.7667   55.4354   21.2592 N   0  0  0  0  0  0
    5.8359   54.5899   20.9081 C   0  0  0  0  0  0
    5.5760   54.3878   19.5757 O   0  0  0  0  0  0
    4.6699   53.4128   19.3032 C   0  0  0  0  0  0
    3.9859   52.6693   20.2037 C   0  0  0  0  0  0
    3.0708   51.6699   19.7432 C   0  0  0  0  0  0
    2.3016   50.8728   19.4057 N   0  0  0  0  0  0
    4.5970   53.2966   17.9424 N   0  0  0  0  0  0
    5.6611   54.3806   24.6210 C   0  0  0  0  0  0
    6.6314   54.8657   25.5078 C   0  0  0  0  0  0
    6.4851   54.7095   26.8898 C   0  0  0  0  0  0
    5.3493   54.0902   27.4129 C   0  0  0  0  0  0
    4.3385   53.6966   26.5375 C   0  0  0  0  0  0
    4.5184   53.8043   25.1712 C   0  0  0  0  0  0
    5.2893   53.8654   28.7753 O   0  0  0  0  0  0
    4.3081   52.9458   29.2830 C   0  0  0  0  0  0
    2.9886   53.6222   29.6443 C   0  0  0  0  0  0
    1.9864   52.8536   30.2457 C   0  0  0  0  0  0
    0.8062   53.4553   30.6697 C   0  0  0  0  0  0
    0.6343   54.8245   30.4819 C   0  0  0  0  0  0
    1.6013   55.5937   29.8441 C   0  0  0  0  0  0
    2.7797   54.9888   29.4217 C   0  0  0  0  0  0
   -1.0865   52.9612   24.9762 H   0  0  0  0  0  0
   -0.2323   51.4401   25.1718 H   0  0  0  0  0  0
   -1.2130   51.7177   23.7441 H   0  0  0  0  0  0
    0.7044   54.8940   24.2092 H   0  0  0  0  0  0
    2.7752   55.1855   22.7369 H   0  0  0  0  0  0
    4.1882   52.4467   17.5744 H   0  0  0  0  0  0
    5.3357   53.6926   17.3814 H   0  0  0  0  0  0
    7.5125   55.3435   25.1163 H   0  0  0  0  0  0
    7.2615   55.0406   27.5640 H   0  0  0  0  0  0
    3.4300   53.2297   26.8849 H   0  0  0  0  0  0
    3.7637   53.3493   24.5781 H   0  0  0  0  0  0
    4.1413   52.0965   28.6181 H   0  0  0  0  0  0
    4.7044   52.5033   30.1954 H   0  0  0  0  0  0
    2.1280   51.7955   30.4090 H   0  0  0  0  0  0
    0.0415   52.8696   31.1622 H   0  0  0  0  0  0
   -0.2641   55.2953   30.8483 H   0  0  0  0  0  0
    1.4499   56.6545   29.6997 H   0  0  0  0  0  0
    3.5386   55.5983   28.9520 H   0  0  0  0  0  0
  1  2  1  0  0  0
  1 35  1  0  0  0
  1 36  1  0  0  0
  1 37  1  0  0  0
  2  6  1  0  0  0
  2  3  2  0  0  0
  3  4  1  0  0  0
  3 38  1  0  0  0
  4  5  2  0  0  0
  4 39  1  0  0  0
  5  6  1  0  0  0
  5  7  1  0  0  0
  7  8  1  0  0  0
  7 17  1  0  0  0
  7  9  1  0  0  0
  9 14  1  0  0  0
  9 10  2  0  0  0
 10 11  1  0  0  0
 10 21  1  0  0  0
 11 12  1  0  0  0
 11 13  1  0  0  0
 13 14  2  0  0  0
 14 15  1  0  0  0
 15 16  1  0  0  0
 16 17  2  0  0  0
 16 20  1  0  0  0
 17 18  1  0  0  0
 18 19  3  0  0  0
 20 40  1  0  0  0
 20 41  1  0  0  0
 21 26  2  0  0  0
 21 22  1  0  0  0
 22 23  2  0  0  0
 22 42  1  0  0  0
 23 24  1  0  0  0
 23 43  1  0  0  0
 24 25  2  0  0  0
 24 27  1  0  0  0
 25 26  1  0  0  0
 25 44  1  0  0  0
 26 45  1  0  0  0
 27 28  1  0  0  0
 28 29  1  0  0  0
 28 46  1  0  0  0
 28 47  1  0  0  0
 29 34  2  0  0  0
 29 30  1  0  0  0
 30 31  2  0  0  0
 30 48  1  0  0  0
 31 32  1  0  0  0
 31 49  1  0  0  0
 32 33  2  0  0  0
 32 50  1  0  0  0
 33 34  1  0  0  0
 33 51  1  0  0  0
 34 52  1  0  0  0
M  END
> <i_i_glide_confnum>
12

> <i_i_glide_lignum>
2378

> <i_i_glide_posenum>
179

> <i_i_glide_rotatable_bonds>
6

> <i_m_Source_File_Index>
2060

> <b_m_subgroup_collapsed>
0

> <r_i_docking_score>
-6.72561

> <r_i_glide_ecoul>
0.201192

> <r_i_glide_eff_state_penalty>
0

> <r_i_glide_einternal>
7.90101

> <r_i_glide_emodel>
-65.7888

> <r_i_glide_energy>
-48.7785

> <r_i_glide_erotb>
0.514473

> <r_i_glide_esite>
-0.133228

> <r_i_glide_evdw>
-48.9796

> <r_i_glide_gscore>
-6.72561

> <r_i_glide_hbond>
-0.00659923

> <r_i_glide_ligand_efficiency>
-0.210175

> <r_i_glide_ligand_efficiency_ln>
-1.50605

> <r_i_glide_ligand_efficiency_sa>
-0.667265

> <r_i_glide_lipo>
-4.15488

> <r_i_glide_metal>
0

> <r_i_glide_rewards>
-0.526577

> <s_i_glide_gridfile>
wee1_glide-grid

> <s_m_Source_File>
wee1_decoys_glide_SP.sdf

> <s_m_Source_Path>
/Users/zhangxujun/Desktop

> <s_m_entry_id>
2335

> <s_m_entry_name>
wee1_decoys_glide_SP.2060

> <s_m_subgroup_title>
wee1_decoys_glide_SP

> <s_m_subgroupid>
wee1_decoys_glide_SP


$$$$
