@<TRIPOS>MOLECULE
ZINC37593614_2122
64   67    1
SMALL
USER_CHARGES


@<TRIPOS>ATOM
      1 C1          6.0145   54.8861   23.0414 C.3       1 UNK         0.0000 
      2 C2          5.0144   53.7365   22.8116 C.3       1 UNK         0.0000 
      3 H3          5.4098   52.8967   23.3791 H         1 UNK         0.0000 
      4 C4          4.9022   53.3955   21.3193 C.3       1 UNK         0.0000 
      5 C5          4.1578   52.0657   21.0751 C.3       1 UNK         0.0000 
      6 C6          2.8995   51.9552   21.9640 C.2       1 UNK         0.0000 
      7 C7          2.6690   52.8965   22.9872 C.2       1 UNK         0.0000 
      8 S8          1.1793   52.6100   23.8183 S.3       1 UNK         0.0000 
      9 C9          0.8915   51.1548   22.8976 C.2       1 UNK         0.0000 
     10 C10         1.8780   50.9471   21.9087 C.2       1 UNK         0.0000 
     11 C11         1.8198   49.7930   21.0048 C.2       1 UNK         0.0000 
     12 O12         0.9807   48.8975   21.1388 O.2       1 UNK         0.0000 
     13 N13         2.6905   49.7860   19.9955 N.am      1 UNK         0.0000 
     14 C14         2.6563   48.8425   18.8965 C.3       1 UNK         0.0000 
     15 N15        -0.2593   50.3697   23.0522 N.am      1 UNK         0.0000 
     16 C16        -1.0595   50.1423   24.1098 C.2       1 UNK         0.0000 
     17 O17        -2.0960   49.4950   23.9766 O.2       1 UNK         0.0000 
     18 C18        -0.6748   50.6589   25.4589 C.ar      1 UNK         0.0000 
     19 C19         0.4817   50.2070   26.0967 C.ar      1 UNK         0.0000 
     20 C20         0.9063   50.8172   27.2771 C.ar      1 UNK         0.0000 
     21 C21         0.1798   51.8647   27.8251 C.ar      1 UNK         0.0000 
     22 C22        -1.0436   52.1966   27.2483 C.ar      1 UNK         0.0000 
     23 C23        -1.4754   51.6126   26.0699 C.ar      1 UNK         0.0000 
     24 S24         0.7975   52.7216   29.2841 S.o2      1 UNK         0.0000 
     25 O25        -0.0992   53.8457   29.5604 O.2       1 UNK         0.0000 
     26 O26         1.0084   51.6971   30.2990 O.2       1 UNK         0.0000 
     27 N27         2.4175   53.3574   28.9018 N.pl3     1 UNK         0.0000 
     28 C28         3.4807   52.3204   28.9599 C.3       1 UNK         0.0000 
     29 C29         4.8795   52.9029   28.8116 C.3       1 UNK         0.0000 
     30 C30         5.0063   53.6850   27.5063 C.3       1 UNK         0.0000 
     31 C31         3.9991   54.8280   27.5477 C.3       1 UNK         0.0000 
     32 C32         2.5407   54.3761   27.8116 C.3       1 UNK         0.0000 
     33 H33         2.1928   53.9101   26.8883 H         1 UNK         0.0000 
     34 C34         1.7238   55.6207   28.1941 C.3       1 UNK         0.0000 
     35 C35         3.5947   54.0647   23.3383 C.3       1 UNK         0.0000 
     36 H36         5.9045   55.6883   22.3091 H         1 UNK         0.0000 
     37 H37         5.9227   55.3068   24.0440 H         1 UNK         0.0000 
     38 H38         7.0399   54.5231   22.9420 H         1 UNK         0.0000 
     39 H39         5.9040   53.3116   20.8941 H         1 UNK         0.0000 
     40 H40         4.4556   54.2271   20.7704 H         1 UNK         0.0000 
     41 H41         3.9117   52.0336   20.0129 H         1 UNK         0.0000 
     42 H42         4.8289   51.2303   21.2754 H         1 UNK         0.0000 
     43 H43         3.3879   50.5123   19.9294 H         1 UNK         0.0000 
     44 H44         2.6975   49.4821   18.0343 H         1 UNK         0.0000 
     45 H45         3.5079   48.1701   18.8813 H         1 UNK         0.0000 
     46 H46         1.7404   48.2535   18.8347 H         1 UNK         0.0000 
     47 H47        -0.4235   49.7482   22.2712 H         1 UNK         0.0000 
     48 H48         1.0742   49.4124   25.6638 H         1 UNK         0.0000 
     49 H49         1.8040   50.4605   27.7500 H         1 UNK         0.0000 
     50 H50        -1.6953   52.9007   27.6817 H         1 UNK         0.0000 
     51 H51        -2.4079   51.9299   25.6251 H         1 UNK         0.0000 
     52 H52         3.4272   51.7710   29.9006 H         1 UNK         0.0000 
     53 H53         3.3831   51.6968   28.0817 H         1 UNK         0.0000 
     54 H54         5.1029   53.5271   29.6812 H         1 UNK         0.0000 
     55 H55         5.5920   52.0924   28.8026 H         1 UNK         0.0000 
     56 H56         6.0198   54.0753   27.3986 H         1 UNK         0.0000 
     57 H57         4.8246   53.0385   26.6474 H         1 UNK         0.0000 
     58 H58         4.3264   55.4634   28.3665 H         1 UNK         0.0000 
     59 H59         4.0705   55.3468   26.5924 H         1 UNK         0.0000 
     60 H60         2.1009   56.4967   27.6833 H         1 UNK         0.0000 
     61 H61         0.6798   55.5154   27.9192 H         1 UNK         0.0000 
     62 H62         1.7763   55.8409   29.2610 H         1 UNK         0.0000 
     63 H63         3.6148   54.2423   24.4130 H         1 UNK         0.0000 
     64 H64         3.2161   54.9738   22.8721 H         1 UNK         0.0000 
@<TRIPOS>BOND
     1    1    2 1    
     2    1   36 1    
     3    1   37 1    
     4    1   38 1    
     5    2    3 1    
     6    2   35 1    
     7    2    4 1    
     8    4    5 1    
     9    4   39 1    
    10    4   40 1    
    11    5    6 1    
    12    5   41 1    
    13    5   42 1    
    14    6   10 1    
    15    6    7 2    
    16    7    8 1    
    17    7   35 1    
    18    8    9 1    
    19    9   10 2    
    20    9   15 am   BACKBONE|DICT|INTERRES
    21   10   11 1    
    22   11   12 2    
    23   11   13 am   BACKBONE|DICT|INTERRES
    24   13   14 1    
    25   13   43 1    
    26   14   44 1    
    27   14   45 1    
    28   14   46 1    
    29   15   16 am   BACKBONE|DICT|INTERRES
    30   15   47 1    
    31   16   17 2    
    32   16   18 1    
    33   18   23 ar   
    34   18   19 ar   
    35   19   20 ar   
    36   19   48 1    
    37   20   21 ar   
    38   20   49 1    
    39   21   22 ar   
    40   21   24 1    
    41   22   23 ar   
    42   22   50 1    
    43   23   51 1    
    44   24   25 2    
    45   24   26 2    
    46   24   27 1    
    47   27   32 1    
    48   27   28 1    
    49   28   29 1    
    50   28   52 1    
    51   28   53 1    
    52   29   30 1    
    53   29   54 1    
    54   29   55 1    
    55   30   31 1    
    56   30   56 1    
    57   30   57 1    
    58   31   32 1    
    59   31   58 1    
    60   31   59 1    
    61   32   33 1    
    62   32   34 1    
    63   34   60 1    
    64   34   61 1    
    65   34   62 1    
    66   35   63 1    
    67   35   64 1    
@<TRIPOS>SUBSTRUCTURE
     1 UNK         1 GROUP             0       ****    0 ROOT    
