@<TRIPOS>MOLECULE
ZINC10246296_3205
58   62    1
SMALL
USER_CHARGES


@<TRIPOS>ATOM
      1 C1          0.4242   53.4722   29.3297 C.3       1 UNK         0.0000 
      2 O2          1.7653   53.9457   29.3891 O.3       1 UNK         0.0000 
      3 C3          2.5119   54.0094   28.2272 C.ar      1 UNK         0.0000 
      4 C4          3.8348   54.4144   28.3619 C.ar      1 UNK         0.0000 
      5 C5          4.6729   54.4961   27.2533 C.ar      1 UNK         0.0000 
      6 C6          4.2037   54.1868   25.9605 C.ar      1 UNK         0.0000 
      7 C7          2.8613   53.7875   25.8364 C.ar      1 UNK         0.0000 
      8 C8          2.0302   53.6918   26.9517 C.ar      1 UNK         0.0000 
      9 N9          5.0366   54.2132   24.7911 N.am      1 UNK         0.0000 
     10 C10         4.5309   53.8511   23.4482 C.3       1 UNK         0.0000 
     11 C11         5.7291   53.7034   22.5162 C.3       1 UNK         0.0000 
     12 H12         5.8261   52.6712   22.1786 H         1 UNK         0.0000 
     13 C13         6.9111   54.1317   23.3785 C.3       1 UNK         0.0000 
     14 C14         6.3746   54.4889   24.7617 C.2       1 UNK         0.0000 
     15 O15         7.1038   54.8977   25.6620 O.2       1 UNK         0.0000 
     16 C16         5.5641   54.5753   21.2469 C.2       1 UNK         0.0000 
     17 O17         5.9043   55.7545   21.2817 O.2       1 UNK         0.0000 
     18 N18         5.0155   53.9790   20.1646 N.am      1 UNK         0.0000 
     19 C19         4.8143   54.5573   18.9060 C.2       1 UNK         0.0000 
     20 C20         5.5305   55.6578   18.2840 C.ar      1 UNK         0.0000 
     21 C21         6.6717   56.4438   18.5503 C.ar      1 UNK         0.0000 
     22 C22         6.9800   57.5084   17.6979 C.ar      1 UNK         0.0000 
     23 C23         6.2008   57.7944   16.5790 C.ar      1 UNK         0.0000 
     24 C24         5.0959   57.0088   16.2501 C.ar      1 UNK         0.0000 
     25 C25         4.7918   55.9494   17.1130 C.ar      1 UNK         0.0000 
     26 O26         3.7616   55.0805   16.9452 O.3       1 UNK         0.0000 
     27 C27         3.8109   54.1992   17.9872 C.2       1 UNK         0.0000 
     28 C28         2.7174   53.2610   18.0814 C.2       1 UNK         0.0000 
     29 O29         1.5971   53.5527   17.6498 O.2       1 UNK         0.0000 
     30 N30         3.0182   52.0963   18.6973 N.am      1 UNK         0.0000 
     31 C31         2.0885   51.1928   19.2441 C.ar      1 UNK         0.0000 
     32 C32         2.4347   49.8401   19.2868 C.ar      1 UNK         0.0000 
     33 C33         1.5666   48.9079   19.8575 C.ar      1 UNK         0.0000 
     34 C34         0.3457   49.3212   20.3926 C.ar      1 UNK         0.0000 
     35 C35        -0.0076   50.6727   20.3602 C.ar      1 UNK         0.0000 
     36 C36         0.8604   51.6065   19.7938 C.ar      1 UNK         0.0000 
     37 F37        -1.1893   51.0814   20.8824 F         1 UNK         0.0000 
     38 F38        -0.4883   48.4069   20.9399 F         1 UNK         0.0000 
     39 H39        -0.0097   53.4939   30.3290 H         1 UNK         0.0000 
     40 H40        -0.1958   54.1003   28.6877 H         1 UNK         0.0000 
     41 H41         0.3771   52.4424   28.9716 H         1 UNK         0.0000 
     42 H42         4.2244   54.6587   29.3375 H         1 UNK         0.0000 
     43 H43         5.6848   54.8061   27.4526 H         1 UNK         0.0000 
     44 H44         2.4361   53.5279   24.8786 H         1 UNK         0.0000 
     45 H45         1.0128   53.3643   26.8041 H         1 UNK         0.0000 
     46 H46         3.8329   54.6202   23.1099 H         1 UNK         0.0000 
     47 H47         4.0061   52.8988   23.4992 H         1 UNK         0.0000 
     48 H48         7.6187   53.3107   23.4952 H         1 UNK         0.0000 
     49 H49         7.5007   54.9648   22.9918 H         1 UNK         0.0000 
     50 H50         4.6422   53.0512   20.2942 H         1 UNK         0.0000 
     51 H51         7.3035   56.2489   19.4029 H         1 UNK         0.0000 
     52 H52         7.8374   58.1298   17.9083 H         1 UNK         0.0000 
     53 H53         6.4593   58.6394   15.9539 H         1 UNK         0.0000 
     54 H54         4.4947   57.2130   15.3770 H         1 UNK         0.0000 
     55 H55         3.9903   51.7982   18.7005 H         1 UNK         0.0000 
     56 H56         3.3796   49.5025   18.8838 H         1 UNK         0.0000 
     57 H57         1.8448   47.8628   19.8858 H         1 UNK         0.0000 
     58 H58         0.5787   52.6488   19.7968 H         1 UNK         0.0000 
@<TRIPOS>BOND
     1    1    2 1    
     2    1   39 1    
     3    1   40 1    
     4    1   41 1    
     5    2    3 1    
     6    3    8 ar   
     7    3    4 ar   
     8    4    5 ar   
     9    4   42 1    
    10    5    6 ar   
    11    5   43 1    
    12    6    7 ar   
    13    6    9 1    
    14    7    8 ar   
    15    7   44 1    
    16    8   45 1    
    17    9   14 am   BACKBONE|DICT|INTERRES
    18    9   10 1    
    19   10   11 1    
    20   10   46 1    
    21   10   47 1    
    22   11   12 1    
    23   11   13 1    
    24   11   16 1    
    25   13   14 1    
    26   13   48 1    
    27   13   49 1    
    28   14   15 2    
    29   16   17 2    
    30   16   18 am   BACKBONE|DICT|INTERRES
    31   18   19 1    
    32   18   50 1    
    33   19   27 2    
    34   19   20 1    
    35   20   25 ar   
    36   20   21 ar   
    37   21   22 ar   
    38   21   51 1    
    39   22   23 ar   
    40   22   52 1    
    41   23   24 ar   
    42   23   53 1    
    43   24   25 ar   
    44   24   54 1    
    45   25   26 1    
    46   26   27 1    
    47   27   28 1    
    48   28   29 2    
    49   28   30 am   BACKBONE|DICT|INTERRES
    50   30   31 1    
    51   30   55 1    
    52   31   36 ar   
    53   31   32 ar   
    54   32   33 ar   
    55   32   56 1    
    56   33   34 ar   
    57   33   57 1    
    58   34   35 ar   
    59   34   38 1    
    60   35   36 ar   
    61   35   37 1    
    62   36   58 1    
@<TRIPOS>SUBSTRUCTURE
     1 UNK         1 GROUP             0       ****    0 ROOT    
