@<TRIPOS>MOLECULE
ZINC21337465_5237
73   77    1
SMALL
USER_CHARGES


@<TRIPOS>ATOM
      1 C1          0.3788   51.4283   14.5269 C.3       1 UNK         0.0000 
      2 N2          0.8756   51.8555   15.8311 N.3       1 UNK         0.0000 
      3 C3          1.8968   50.9177   16.3159 C.3       1 UNK         0.0000 
      4 C4          2.3591   51.3460   17.7204 C.3       1 UNK         0.0000 
      5 N5          2.9703   52.7611   17.6407 N.4       1 UNK         0.0000 
      6 C6          1.8579   53.7155   17.1473 C.3       1 UNK         0.0000 
      7 C7          1.3590   53.2408   15.7641 C.3       1 UNK         0.0000 
      8 C8          3.7124   53.2685   18.8153 C.2       1 UNK         0.0000 
      9 C9          3.4238   53.0738   20.1103 C.2       1 UNK         0.0000 
     10 N10         2.3665   52.3474   20.6513 N.pl3     1 UNK         0.0000 
     11 C11         2.3988   51.3441   21.7162 C.3       1 UNK         0.0000 
     12 C12         1.0526   51.3667   22.4811 C.3       1 UNK         0.0000 
     13 C13        -0.0827   50.6182   21.7568 C.3       1 UNK         0.0000 
     14 C14         0.3288   49.1807   21.4001 C.3       1 UNK         0.0000 
     15 C15         1.5937   49.1595   20.5237 C.3       1 UNK         0.0000 
     16 C16         2.7667   49.9668   21.1281 C.3       1 UNK         0.0000 
     17 N17         4.2682   53.8248   20.9202 N.pl3     1 UNK         0.0000 
     18 C18         5.1982   54.5127   20.1551 C.2       1 UNK         0.0000 
     19 S19         6.3064   55.6905   20.6445 S.2       1 UNK         0.0000 
     20 C20         5.0060   54.0358   18.6986 C.3       1 UNK         0.0000 
     21 C21         6.1427   53.0544   18.2744 C.3       1 UNK         0.0000 
     22 C22         7.4757   53.7012   17.8435 C.3       1 UNK         0.0000 
     23 C23         7.2588   54.7518   16.7412 C.3       1 UNK         0.0000 
     24 C24         6.2349   55.8223   17.1557 C.3       1 UNK         0.0000 
     25 C25         4.9028   55.2145   17.6614 C.3       1 UNK         0.0000 
     26 C26         4.0562   54.0466   22.3204 C.ar      1 UNK         0.0000 
     27 C27         2.7661   54.3212   22.7948 C.ar      1 UNK         0.0000 
     28 C28         2.5211   54.4967   24.1495 C.ar      1 UNK         0.0000 
     29 C29         3.5798   54.4965   25.0540 C.ar      1 UNK         0.0000 
     30 C30         4.8875   54.2888   24.6055 C.ar      1 UNK         0.0000 
     31 C31         5.1107   54.0166   23.2493 C.ar      1 UNK         0.0000 
     32 C32         6.0530   54.3825   25.5829 C.3       1 UNK         0.0000 
     33 F33         7.1043   53.6965   25.1427 F         1 UNK         0.0000 
     34 F34         6.4134   55.6650   25.6974 F         1 UNK         0.0000 
     35 F35         5.7211   53.9208   26.7914 F         1 UNK         0.0000 
     36 H36        -0.4191   52.0865   14.1797 H         1 UNK         0.0000 
     37 H37         1.1675   51.4270   13.7730 H         1 UNK         0.0000 
     38 H38        -0.0373   50.4216   14.5807 H         1 UNK         0.0000 
     39 H39         2.7505   50.9060   15.6351 H         1 UNK         0.0000 
     40 H40         1.4911   49.9065   16.3768 H         1 UNK         0.0000 
     41 H41         3.1044   50.6690   18.1263 H         1 UNK         0.0000 
     42 H42         1.5153   51.3978   18.4034 H         1 UNK         0.0000 
     43 H43         1.0762   53.7067   17.9086 H         1 UNK         0.0000 
     44 H44         2.2690   54.7220   17.1023 H         1 UNK         0.0000 
     45 H45         0.5653   53.9073   15.4185 H         1 UNK         0.0000 
     46 H46         2.1876   53.2797   15.0534 H         1 UNK         0.0000 
     47 H47         3.1980   51.6601   22.3817 H         1 UNK         0.0000 
     48 H48         0.7441   52.3788   22.7438 H         1 UNK         0.0000 
     49 H49         1.2055   50.8296   23.4196 H         1 UNK         0.0000 
     50 H50        -0.3598   51.1570   20.8492 H         1 UNK         0.0000 
     51 H51        -0.9738   50.6029   22.3860 H         1 UNK         0.0000 
     52 H52        -0.4884   48.6735   20.8852 H         1 UNK         0.0000 
     53 H53         0.5057   48.6173   22.3179 H         1 UNK         0.0000 
     54 H54         1.3392   49.5417   19.5390 H         1 UNK         0.0000 
     55 H55         1.9113   48.1280   20.3581 H         1 UNK         0.0000 
     56 H56         3.1043   49.3519   21.9650 H         1 UNK         0.0000 
     57 H57         3.5941   50.0688   20.4256 H         1 UNK         0.0000 
     58 H58         6.3047   52.3026   19.0483 H         1 UNK         0.0000 
     59 H59         5.7937   52.4970   17.4052 H         1 UNK         0.0000 
     60 H60         7.9796   54.1530   18.6972 H         1 UNK         0.0000 
     61 H61         8.1566   52.9297   17.4813 H         1 UNK         0.0000 
     62 H62         8.2082   55.2265   16.4900 H         1 UNK         0.0000 
     63 H63         6.9168   54.2573   15.8312 H         1 UNK         0.0000 
     64 H64         6.6755   56.4769   17.9035 H         1 UNK         0.0000 
     65 H65         6.0348   56.4755   16.3051 H         1 UNK         0.0000 
     66 H66         4.4288   54.8360   16.7575 H         1 UNK         0.0000 
     67 H67         4.2444   56.0036   18.0293 H         1 UNK         0.0000 
     68 H68         1.9343   54.3924   22.1079 H         1 UNK         0.0000 
     69 H69         1.5108   54.6723   24.4831 H         1 UNK         0.0000 
     70 H70         3.3839   54.6816   26.1004 H         1 UNK         0.0000 
     71 H71         6.1166   53.8106   22.9103 H         1 UNK         0.0000 
     72 H72         1.5766   52.1852   20.0482 H         1 UNK         0.0000 
     73 H73         3.6586   52.6925   16.9026 H         1 UNK         0.0000 
@<TRIPOS>BOND
     1    1    2 1    
     2    1   36 1    
     3    1   37 1    
     4    1   38 1    
     5    2    7 1    
     6    2    3 1    
     7    3    4 1    
     8    3   39 1    
     9    3   40 1    
    10    4    5 1    
    11    4   41 1    
    12    4   42 1    
    13    5    6 1    
    14    5    8 1    
    15    5   73 1    
    16    6    7 1    
    17    6   43 1    
    18    6   44 1    
    19    7   45 1    
    20    7   46 1    
    21    8   20 1    
    22    8    9 2    
    23    9   10 1    
    24    9   17 1    
    25   10   11 1    
    26   10   72 1    
    27   11   16 1    
    28   11   12 1    
    29   11   47 1    
    30   12   13 1    
    31   12   48 1    
    32   12   49 1    
    33   13   14 1    
    34   13   50 1    
    35   13   51 1    
    36   14   15 1    
    37   14   52 1    
    38   14   53 1    
    39   15   16 1    
    40   15   54 1    
    41   15   55 1    
    42   16   56 1    
    43   16   57 1    
    44   17   18 1    
    45   17   26 1    
    46   18   19 2    
    47   18   20 1    
    48   20   25 1    
    49   20   21 1    
    50   21   22 1    
    51   21   58 1    
    52   21   59 1    
    53   22   23 1    
    54   22   60 1    
    55   22   61 1    
    56   23   24 1    
    57   23   62 1    
    58   23   63 1    
    59   24   25 1    
    60   24   64 1    
    61   24   65 1    
    62   25   66 1    
    63   25   67 1    
    64   26   31 ar   
    65   26   27 ar   
    66   27   28 ar   
    67   27   68 1    
    68   28   29 ar   
    69   28   69 1    
    70   29   30 ar   
    71   29   70 1    
    72   30   31 ar   
    73   30   32 1    
    74   31   71 1    
    75   32   33 1    
    76   32   34 1    
    77   32   35 1    
@<TRIPOS>SUBSTRUCTURE
     1 UNK         1 GROUP             0       ****    0 ROOT    
