@<TRIPOS>MOLECULE
ZINC12497866_1070
70   73    1
SMALL
USER_CHARGES


@<TRIPOS>ATOM
      1 C1         -3.8448   50.8821   29.1976 C.3       1 UNK         0.0000 
      2 C2         -2.5980   51.3377   28.4378 C.3       1 UNK         0.0000 
      3 O3         -2.9878   51.8641   27.1695 O.3       1 UNK         0.0000 
      4 C4         -2.0724   51.9086   26.1353 C.ar      1 UNK         0.0000 
      5 C5         -0.7340   51.5022   26.2417 C.ar      1 UNK         0.0000 
      6 C6          0.0952   51.5156   25.1261 C.ar      1 UNK         0.0000 
      7 C7         -0.3876   51.9600   23.8903 C.ar      1 UNK         0.0000 
      8 C8         -1.7104   52.4140   23.7934 C.ar      1 UNK         0.0000 
      9 C9         -2.5417   52.3830   24.9099 C.ar      1 UNK         0.0000 
     10 N10         0.4452   51.9077   22.7472 N.am      1 UNK         0.0000 
     11 C11         1.7066   52.4521   22.6810 C.2       1 UNK         0.0000 
     12 O12         2.3671   52.9873   23.5717 O.2       1 UNK         0.0000 
     13 C13         2.0806   52.3776   21.2155 C.3       1 UNK         0.0000 
     14 H14         1.6867   53.2967   20.7954 H         1 UNK         0.0000 
     15 C15         3.4771   52.1746   20.6170 C.3       1 UNK         0.0000 
     16 H16         4.0604   51.4355   21.1727 H         1 UNK         0.0000 
     17 C17         1.5512   51.1930   19.2540 C.3       1 UNK         0.0000 
     18 C18         1.3727   51.1685   20.7910 C.3       1 UNK         0.0000 
     19 H19         1.8329   50.2442   21.1665 H         1 UNK         0.0000 
     20 C20         0.0920   51.2501   21.5937 C.2       1 UNK         0.0000 
     21 O21        -0.9846   50.7359   21.2885 O.2       1 UNK         0.0000 
     22 C22         0.7885   52.2926   18.4204 C.3       1 UNK         0.0000 
     23 C23        -0.7577   52.3567   18.4781 C.3       1 UNK         0.0000 
     24 S24        -1.5181   53.6872   17.5009 S.3       1 UNK         0.0000 
     25 C25        -1.1739   53.1150   15.8134 C.3       1 UNK         0.0000 
     26 C26         1.2883   49.7636   18.6751 C.2       1 UNK         0.0000 
     27 O27         0.2224   49.4694   18.1318 O.2       1 UNK         0.0000 
     28 O28         2.3124   48.9073   18.8249 O.3       1 UNK         0.0000 
     29 C29         2.3108   47.6567   18.1504 C.3       1 UNK         0.0000 
     30 C30         4.3252   53.4410   20.3742 C.ar      1 UNK         0.0000 
     31 C31         4.3061   54.1101   19.1394 C.ar      1 UNK         0.0000 
     32 C32         5.0883   55.2423   18.9238 C.ar      1 UNK         0.0000 
     33 C33         5.9044   55.7491   19.9443 C.ar      1 UNK         0.0000 
     34 C34         5.9136   55.0946   21.1732 C.ar      1 UNK         0.0000 
     35 C35         5.1295   53.9534   21.4085 C.ar      1 UNK         0.0000 
     36 O36         5.1183   53.2957   22.6227 O.3       1 UNK         0.0000 
     37 C37         5.7855   53.8742   23.7399 C.3       1 UNK         0.0000 
     38 O38         6.6929   56.8806   19.8410 O.3       1 UNK         0.0000 
     39 C39         6.6790   57.6256   18.6261 C.3       1 UNK         0.0000 
     40 H40        -3.5756   50.4976   30.1825 H         1 UNK         0.0000 
     41 H41        -4.5549   51.6968   29.3295 H         1 UNK         0.0000 
     42 H42        -4.3465   50.0777   28.6598 H         1 UNK         0.0000 
     43 H43        -1.9287   50.4968   28.3418 H         1 UNK         0.0000 
     44 H44        -2.0479   52.0873   29.0047 H         1 UNK         0.0000 
     45 H45        -0.3178   51.1426   27.1688 H         1 UNK         0.0000 
     46 H46         1.1054   51.1509   25.2245 H         1 UNK         0.0000 
     47 H47        -2.1048   52.7626   22.8498 H         1 UNK         0.0000 
     48 H48        -3.5674   52.7053   24.8229 H         1 UNK         0.0000 
     49 H49         1.1644   53.2829   18.6813 H         1 UNK         0.0000 
     50 H50         1.0785   52.1734   17.3764 H         1 UNK         0.0000 
     51 H51        -1.2165   51.4226   18.1624 H         1 UNK         0.0000 
     52 H52        -1.0888   52.5063   19.5003 H         1 UNK         0.0000 
     53 H53        -1.6698   53.7627   15.0900 H         1 UNK         0.0000 
     54 H54        -0.1033   53.1356   15.6056 H         1 UNK         0.0000 
     55 H55        -1.5384   52.0974   15.6697 H         1 UNK         0.0000 
     56 H56         3.3293   47.2727   18.0876 H         1 UNK         0.0000 
     57 H57         1.6854   46.9301   18.6694 H         1 UNK         0.0000 
     58 H58         1.9517   47.7554   17.1237 H         1 UNK         0.0000 
     59 H59         3.6806   53.7730   18.3267 H         1 UNK         0.0000 
     60 H60         5.0386   55.7252   17.9599 H         1 UNK         0.0000 
     61 H61         6.5499   55.5017   21.9430 H         1 UNK         0.0000 
     62 H62         5.5650   53.2969   24.6376 H         1 UNK         0.0000 
     63 H63         6.8680   53.8717   23.6007 H         1 UNK         0.0000 
     64 H64         5.4484   54.8945   23.9306 H         1 UNK         0.0000 
     65 H65         7.3328   58.4926   18.7228 H         1 UNK         0.0000 
     66 H66         5.6796   57.9952   18.3958 H         1 UNK         0.0000 
     67 H67         7.0415   57.0301   17.7878 H         1 UNK         0.0000 
     68 N68         3.1018   51.4456   19.2821 N.4       1 UNK         0.0000 
     69 H69         3.6245   50.5789   19.1805 H         1 UNK         0.0000 
     70 H70         3.3998   51.9832   18.4822 H         1 UNK         0.0000 
@<TRIPOS>BOND
     1    1    2 1    
     2    1   40 1    
     3    1   41 1    
     4    1   42 1    
     5    2    3 1    
     6    2   43 1    
     7    2   44 1    
     8    3    4 1    
     9    4    9 ar   
    10    4    5 ar   
    11    5    6 ar   
    12    5   45 1    
    13    6    7 ar   
    14    6   46 1    
    15    7    8 ar   
    16    7   10 1    
    17    8    9 ar   
    18    8   47 1    
    19    9   48 1    
    20   10   20 am   BACKBONE|DICT|INTERRES
    21   10   11 am   BACKBONE|DICT|INTERRES
    22   11   12 2    
    23   11   13 1    
    24   13   14 1    
    25   13   18 1    
    26   13   15 1    
    27   15   16 1    
    28   15   30 1    
    29   15   68 1    
    30   17   18 1    
    31   17   22 1    
    32   17   26 1    
    33   17   68 1    
    34   18   19 1    
    35   18   20 1    
    36   20   21 2    
    37   22   23 1    
    38   22   49 1    
    39   22   50 1    
    40   23   24 1    
    41   23   51 1    
    42   23   52 1    
    43   24   25 1    
    44   25   53 1    
    45   25   54 1    
    46   25   55 1    
    47   26   27 2    
    48   26   28 1    
    49   28   29 1    
    50   29   56 1    
    51   29   57 1    
    52   29   58 1    
    53   30   35 ar   
    54   30   31 ar   
    55   31   32 ar   
    56   31   59 1    
    57   32   33 ar   
    58   32   60 1    
    59   33   34 ar   
    60   33   38 1    
    61   34   35 ar   
    62   34   61 1    
    63   35   36 1    
    64   36   37 1    
    65   37   62 1    
    66   37   63 1    
    67   37   64 1    
    68   38   39 1    
    69   39   65 1    
    70   39   66 1    
    71   39   67 1    
    72   68   69 1    
    73   68   70 1    
@<TRIPOS>SUBSTRUCTURE
     1 UNK         1 GROUP             0       ****    0 ROOT    
