@<TRIPOS>MOLECULE
ZINC39037457_6050
54   57    1
SMALL
USER_CHARGES


@<TRIPOS>ATOM
      1 C1          7.7683   56.1422   18.3752 C.3       1 UNK         0.0000 
      2 C2          6.7482   55.1712   18.9552 C.ar      1 UNK         0.0000 
      3 C3          6.1692   54.2102   18.1213 C.ar      1 UNK         0.0000 
      4 C4          5.2445   53.2980   18.6258 C.ar      1 UNK         0.0000 
      5 C5          4.8717   53.3383   19.9714 C.ar      1 UNK         0.0000 
      6 C6          5.4468   54.3079   20.8080 C.ar      1 UNK         0.0000 
      7 C7          6.3838   55.2162   20.3120 C.ar      1 UNK         0.0000 
      8 C8          7.0174   56.2016   21.2741 C.3       1 UNK         0.0000 
      9 N9          3.9781   52.3492   20.4217 N.am      1 UNK         0.0000 
     10 C10         3.1944   52.3900   21.5177 C.2       1 UNK         0.0000 
     11 O11         3.0630   53.3675   22.2566 O.2       1 UNK         0.0000 
     12 N12         2.5685   51.1550   21.6606 N.am      1 UNK         0.0000 
     13 C13         1.7728   50.8083   22.6104 C.2       1 UNK         0.0000 
     14 N14         1.1721   49.5686   22.7280 N.2       1 UNK         0.0000 
     15 N15         0.4195   49.4303   23.7432 N.pl3     1 UNK         0.0000 
     16 C16         0.2744   50.5650   24.6721 C.3       1 UNK         0.0000 
     17 H17         0.7044   50.2492   25.6222 H         1 UNK         0.0000 
     18 S18         1.2853   51.8728   23.9906 S.3       1 UNK         0.0000 
     19 C19        -1.1686   51.0408   24.8772 C.ar      1 UNK         0.0000 
     20 C20        -2.0224   51.1608   23.7706 C.ar      1 UNK         0.0000 
     21 C21        -3.3357   51.5985   23.9222 C.ar      1 UNK         0.0000 
     22 C22        -3.8177   51.9317   25.1845 C.ar      1 UNK         0.0000 
     23 C23        -2.9801   51.8298   26.2948 C.ar      1 UNK         0.0000 
     24 C24        -1.6615   51.3970   26.1496 C.ar      1 UNK         0.0000 
     25 S25        -0.6843   51.2983   27.6241 S.3       1 UNK         0.0000 
     26 C26         0.7616   52.3870   27.4502 C.3       1 UNK         0.0000 
     27 C27         0.8919   53.4522   28.5334 C.ar      1 UNK         0.0000 
     28 C28         0.2981   53.3136   29.7962 C.ar      1 UNK         0.0000 
     29 C29         0.3979   54.3451   30.7248 C.ar      1 UNK         0.0000 
     30 C30         1.1045   55.4970   30.3936 C.ar      1 UNK         0.0000 
     31 C31         1.7356   55.6264   29.1654 C.ar      1 UNK         0.0000 
     32 C32         1.6320   54.5996   28.2371 C.ar      1 UNK         0.0000 
     33 F33         1.1984   56.5002   31.2820 F         1 UNK         0.0000 
     34 H34         7.8677   56.0342   17.2935 H         1 UNK         0.0000 
     35 H35         7.4742   57.1711   18.5787 H         1 UNK         0.0000 
     36 H36         8.7459   55.9770   18.8289 H         1 UNK         0.0000 
     37 H37         6.4454   54.1564   17.0775 H         1 UNK         0.0000 
     38 H38         4.8308   52.5458   17.9652 H         1 UNK         0.0000 
     39 H39         5.2091   54.3427   21.8598 H         1 UNK         0.0000 
     40 H40         6.7453   56.0101   22.3125 H         1 UNK         0.0000 
     41 H41         6.7075   57.2159   21.0148 H         1 UNK         0.0000 
     42 H42         8.1047   56.1201   21.2174 H         1 UNK         0.0000 
     43 H43         3.9130   51.5305   19.8316 H         1 UNK         0.0000 
     44 H44        -1.6691   50.9167   22.7796 H         1 UNK         0.0000 
     45 H45        -3.9858   51.6720   23.0637 H         1 UNK         0.0000 
     46 H46        -4.8354   52.2638   25.3072 H         1 UNK         0.0000 
     47 H47        -3.3611   52.0847   27.2741 H         1 UNK         0.0000 
     48 H48         1.6663   51.7803   27.4162 H         1 UNK         0.0000 
     49 H49         0.6768   52.8953   26.4944 H         1 UNK         0.0000 
     50 H50        -0.2558   52.4247   30.0637 H         1 UNK         0.0000 
     51 H51        -0.0662   54.2508   31.6976 H         1 UNK         0.0000 
     52 H52         2.2925   56.5230   28.9330 H         1 UNK         0.0000 
     53 H53         2.1182   54.7057   27.2791 H         1 UNK         0.0000 
     54 H54        -0.0522   48.5515   23.9338 H         1 UNK         0.0000 
@<TRIPOS>BOND
     1    1    2 1    
     2    1   34 1    
     3    1   35 1    
     4    1   36 1    
     5    2    7 ar   
     6    2    3 ar   
     7    3    4 ar   
     8    3   37 1    
     9    4    5 ar   
    10    4   38 1    
    11    5    6 ar   
    12    5    9 1    
    13    6    7 ar   
    14    6   39 1    
    15    7    8 1    
    16    8   40 1    
    17    8   41 1    
    18    8   42 1    
    19    9   10 am   BACKBONE|DICT|INTERRES
    20    9   43 1    
    21   10   11 2    
    22   10   12 am   BACKBONE|DICT|INTERRES
    23   12   13 2    BACKBONE|DICT|INTERRES
    24   13   18 1    
    25   13   14 1    
    26   14   15 2    
    27   15   16 1    
    28   15   54 1    
    29   16   17 1    
    30   16   18 1    
    31   16   19 1    
    32   19   24 ar   
    33   19   20 ar   
    34   20   21 ar   
    35   20   44 1    
    36   21   22 ar   
    37   21   45 1    
    38   22   23 ar   
    39   22   46 1    
    40   23   24 ar   
    41   23   47 1    
    42   24   25 1    
    43   25   26 1    
    44   26   27 1    
    45   26   48 1    
    46   26   49 1    
    47   27   32 ar   
    48   27   28 ar   
    49   28   29 ar   
    50   28   50 1    
    51   29   30 ar   
    52   29   51 1    
    53   30   31 ar   
    54   30   33 1    
    55   31   32 ar   
    56   31   52 1    
    57   32   53 1    
@<TRIPOS>SUBSTRUCTURE
     1 UNK         1 GROUP             0       ****    0 ROOT    
