@<TRIPOS>MOLECULE
ZINC13392627_524
59   61    1
SMALL
USER_CHARGES


@<TRIPOS>ATOM
      1 C1          1.6417   52.6416   30.0910 C.3       1 UNK         0.0000 
      2 C2          1.4842   52.7213   28.5793 C.ar      1 UNK         0.0000 
      3 C3          0.4372   52.0234   27.9680 C.ar      1 UNK         0.0000 
      4 C4          0.2472   52.0962   26.5894 C.ar      1 UNK         0.0000 
      5 C5          1.1050   52.8705   25.8045 C.ar      1 UNK         0.0000 
      6 C6          2.1670   53.5510   26.4056 C.ar      1 UNK         0.0000 
      7 C7          2.3599   53.4896   27.7904 C.ar      1 UNK         0.0000 
      8 C8          3.5213   54.2562   28.4092 C.3       1 UNK         0.0000 
      9 S9          0.8653   52.9642   24.0304 S.o2      1 UNK         0.0000 
     10 O10         1.4189   54.2523   23.5955 O.2       1 UNK         0.0000 
     11 O11        -0.5331   52.6219   23.7439 O.2       1 UNK         0.0000 
     12 N12         1.9044   51.6846   23.3746 N.pl3     1 UNK         0.0000 
     13 C13         2.4279   51.8737   21.9964 C.3       1 UNK         0.0000 
     14 C14         1.4229   51.3532   20.9445 C.3       1 UNK         0.0000 
     15 C15         1.1496   49.8475   21.2291 C.3       1 UNK         0.0000 
     16 C16         0.5552   49.6879   22.6570 C.3       1 UNK         0.0000 
     17 C17         1.5415   50.2766   23.6880 C.3       1 UNK         0.0000 
     18 C18         0.1292   49.3110   20.2044 C.2       1 UNK         0.0000 
     19 O19        -1.0193   49.7570   20.1739 O.2       1 UNK         0.0000 
     20 N20         0.5615   48.3540   19.3671 N.am      1 UNK         0.0000 
     21 C21        -0.2584   47.7184   18.3393 C.3       1 UNK         0.0000 
     22 C22         0.2421   46.3280   17.9799 C.ar      1 UNK         0.0000 
     23 C23         0.8885   46.1168   16.7660 C.ar      1 UNK         0.0000 
     24 C24         1.3114   44.8418   16.4128 C.ar      1 UNK         0.0000 
     25 C25         1.1045   43.7408   17.2633 C.ar      1 UNK         0.0000 
     26 C26         0.4433   43.9444   18.5020 C.ar      1 UNK         0.0000 
     27 C27         0.0128   45.2443   18.8305 C.ar      1 UNK         0.0000 
     28 C28         0.2154   42.8305   19.4917 C.2       1 UNK         0.0000 
     29 O29         0.7043   41.6968   19.2816 O.co2     1 UNK         0.0000 
     30 O30         1.5296   42.4686   16.9127 O.3       1 UNK         0.0000 
     31 C31         2.2842   42.2600   15.7240 C.3       1 UNK         0.0000 
     32 H32         2.5838   52.1604   30.3521 H         1 UNK         0.0000 
     33 H33         1.6503   53.6444   30.5169 H         1 UNK         0.0000 
     34 H34         0.8255   52.0947   30.5648 H         1 UNK         0.0000 
     35 H35        -0.2385   51.4195   28.5585 H         1 UNK         0.0000 
     36 H36        -0.5691   51.5504   26.1369 H         1 UNK         0.0000 
     37 H37         2.8374   54.1371   25.7927 H         1 UNK         0.0000 
     38 H38         4.1593   53.5800   28.9800 H         1 UNK         0.0000 
     39 H39         4.1441   54.7430   27.6568 H         1 UNK         0.0000 
     40 H40         3.1524   55.0202   29.0944 H         1 UNK         0.0000 
     41 H41         3.3421   51.2846   21.9096 H         1 UNK         0.0000 
     42 H42         2.7151   52.9160   21.8512 H         1 UNK         0.0000 
     43 H43         1.8975   51.4949   19.9713 H         1 UNK         0.0000 
     44 H44         0.5245   51.9685   21.0384 H         1 UNK         0.0000 
     45 H45         2.0649   49.2605   21.1198 H         1 UNK         0.0000 
     46 H46        -0.3814   50.2357   22.7784 H         1 UNK         0.0000 
     47 H47         0.4270   48.6374   22.9234 H         1 UNK         0.0000 
     48 H48         2.4635   49.6962   23.6570 H         1 UNK         0.0000 
     49 H49         1.1645   50.2112   24.7090 H         1 UNK         0.0000 
     50 H50         1.5511   48.1636   19.3246 H         1 UNK         0.0000 
     51 H51        -0.2563   48.3553   17.4524 H         1 UNK         0.0000 
     52 H52        -1.3034   47.6493   18.6517 H         1 UNK         0.0000 
     53 H53         1.0681   46.9404   16.0894 H         1 UNK         0.0000 
     54 H54         1.8083   44.7327   15.4616 H         1 UNK         0.0000 
     55 H55        -0.4955   45.4284   19.7678 H         1 UNK         0.0000 
     56 H56         2.5538   41.2066   15.6514 H         1 UNK         0.0000 
     57 H57         1.7089   42.5148   14.8329 H         1 UNK         0.0000 
     58 H58         3.2101   42.8363   15.7352 H         1 UNK         0.0000 
     59 O59        -0.4956   43.0487   20.5002 O.co2     1 UNK         0.0000 
@<TRIPOS>BOND
     1    1    2 1    
     2    1   32 1    
     3    1   33 1    
     4    1   34 1    
     5    2    7 ar   
     6    2    3 ar   
     7    3    4 ar   
     8    3   35 1    
     9    4    5 ar   
    10    4   36 1    
    11    5    6 ar   
    12    5    9 1    
    13    6    7 ar   
    14    6   37 1    
    15    7    8 1    
    16    8   38 1    
    17    8   39 1    
    18    8   40 1    
    19    9   10 2    
    20    9   11 2    
    21    9   12 1    
    22   12   17 1    
    23   12   13 1    
    24   13   14 1    
    25   13   41 1    
    26   13   42 1    
    27   14   15 1    
    28   14   43 1    
    29   14   44 1    
    30   15   16 1    
    31   15   18 1    
    32   15   45 1    
    33   16   17 1    
    34   16   46 1    
    35   16   47 1    
    36   17   48 1    
    37   17   49 1    
    38   18   19 2    
    39   18   20 am   BACKBONE|DICT|INTERRES
    40   20   21 1    
    41   20   50 1    
    42   21   22 1    
    43   21   51 1    
    44   21   52 1    
    45   22   27 ar   
    46   22   23 ar   
    47   23   24 ar   
    48   23   53 1    
    49   24   25 ar   
    50   24   54 1    
    51   25   26 ar   
    52   25   30 1    
    53   26   27 ar   
    54   26   28 1    
    55   27   55 1    
    56   28   29 2    
    57   28   59 1    
    58   30   31 1    
    59   31   56 1    
    60   31   57 1    
    61   31   58 1    
@<TRIPOS>SUBSTRUCTURE
     1 UNK         1 GROUP             0       ****    0 ROOT    
