ZINC34785235_4494
                    3D
 Schrodinger Suite 2024-2.
 66 70  0  0  1  0            999 V2000
   -5.6350   50.7505   26.5986 C   0  0  0  0  0  0
   -4.6230   50.8726   27.5505 C   0  0  0  0  0  0
   -3.3230   50.4970   27.2234 C   0  0  0  0  0  0
   -3.0339   50.0006   25.9495 C   0  0  0  0  0  0
   -4.0570   49.8696   25.0039 C   0  0  0  0  0  0
   -5.3575   50.2508   25.3283 C   0  0  0  0  0  0
   -1.6032   49.6102   25.5895 C   0  0  0  0  0  0
   -0.9729   50.4928   24.4871 C   0  0  0  0  0  0
   -0.9470   51.9844   24.8651 C   0  0  0  0  0  0
   -0.4490   52.8377   23.6891 C   0  0  0  0  0  0
    0.9175   52.3688   23.3317 N   0  0  0  0  0  0
    1.0809   50.9199   23.0190 C   0  0  0  0  0  0
    0.4869   50.1051   24.1930 C   0  0  0  0  0  0
    1.8834   53.3095   23.1166 C   0  0  0  0  0  0
    1.6664   54.5029   23.2817 O   0  0  0  0  0  0
    3.1046   52.8633   22.7619 N   0  0  0  0  0  0
    4.1774   53.6756   22.4162 C   0  0  0  0  0  0
    5.1537   54.2808   23.2527 C   0  0  0  0  0  0
    6.0617   54.8961   22.5238 N   0  0  0  0  0  0
    5.7036   54.7561   21.2367 N   0  0  0  0  0  0
    4.5839   53.9543   21.1149 C   0  0  0  0  0  0
    4.0624   53.5681   19.9083 N   0  0  0  0  0  0
    6.4569   55.4152   20.2293 C   0  0  0  0  0  0
    7.8558   55.4367   20.2869 C   0  0  0  0  0  0
    8.5830   56.1017   19.3068 C   0  0  0  0  0  0
    7.9264   56.7755   18.2737 C   0  0  0  0  0  0
    6.5290   56.7555   18.2159 C   0  0  0  0  0  0
    5.7988   56.0748   19.1863 C   0  0  0  0  0  0
    8.7475   57.5357   17.2330 C   0  0  0  0  0  0
    9.4412   58.5044   17.8327 F   0  0  0  0  0  0
    7.9860   58.0928   16.2891 F   0  0  0  0  0  0
    9.6025   56.7026   16.6385 F   0  0  0  0  0  0
    5.2813   54.3204   24.7498 C   0  0  0  0  0  0
    4.1549   54.4477   25.5702 C   0  0  0  0  0  0
    4.2871   54.4939   26.9543 C   0  0  0  0  0  0
    5.5520   54.4278   27.5317 C   0  0  0  0  0  0
    6.6869   54.3200   26.7339 C   0  0  0  0  0  0
    6.5512   54.2689   25.3470 C   0  0  0  0  0  0
   -6.6427   51.0414   26.8523 H   0  0  0  0  0  0
   -4.8447   51.2479   28.5385 H   0  0  0  0  0  0
   -2.5408   50.5775   27.9673 H   0  0  0  0  0  0
   -3.8440   49.4803   24.0192 H   0  0  0  0  0  0
   -6.1497   50.1545   24.5996 H   0  0  0  0  0  0
   -1.6061   48.5664   25.2750 H   0  0  0  0  0  0
   -0.9767   49.6388   26.4817 H   0  0  0  0  0  0
   -1.5487   50.3761   23.5687 H   0  0  0  0  0  0
   -0.3593   52.1596   25.7695 H   0  0  0  0  0  0
   -1.9485   52.3191   25.1323 H   0  0  0  0  0  0
   -0.4802   53.8785   24.0191 H   0  0  0  0  0  0
   -1.1049   52.7061   22.8262 H   0  0  0  0  0  0
    0.5348   50.6995   22.1014 H   0  0  0  0  0  0
    2.1229   50.6144   22.9170 H   0  0  0  0  0  0
    0.5433   49.0401   23.9603 H   0  0  0  0  0  0
    1.1020   50.2085   25.0893 H   0  0  0  0  0  0
    3.2160   51.8772   22.5952 H   0  0  0  0  0  0
    3.1677   53.1026   19.8410 H   0  0  0  0  0  0
    4.5657   53.6957   19.0410 H   0  0  0  0  0  0
    8.3837   54.9420   21.0897 H   0  0  0  0  0  0
    9.6624   56.1118   19.3567 H   0  0  0  0  0  0
    5.9969   57.2676   17.4255 H   0  0  0  0  0  0
    4.7183   56.0790   19.1269 H   0  0  0  0  0  0
    3.1694   54.5341   25.1501 H   0  0  0  0  0  0
    3.4110   54.5914   27.5796 H   0  0  0  0  0  0
    5.6574   54.4726   28.6076 H   0  0  0  0  0  0
    7.6632   54.2763   27.1966 H   0  0  0  0  0  0
    7.4364   54.1829   24.7311 H   0  0  0  0  0  0
  1  6  2  0  0  0
  1  2  1  0  0  0
  1 39  1  0  0  0
  2  3  2  0  0  0
  2 40  1  0  0  0
  3  4  1  0  0  0
  3 41  1  0  0  0
  4  5  2  0  0  0
  4  7  1  0  0  0
  5  6  1  0  0  0
  5 42  1  0  0  0
  6 43  1  0  0  0
  7  8  1  0  0  0
  7 44  1  0  0  0
  7 45  1  0  0  0
  8 13  1  0  0  0
  8  9  1  0  0  0
  8 46  1  0  0  0
  9 10  1  0  0  0
  9 47  1  0  0  0
  9 48  1  0  0  0
 10 11  1  0  0  0
 10 49  1  0  0  0
 10 50  1  0  0  0
 11 12  1  0  0  0
 11 14  1  0  0  0
 12 13  1  0  0  0
 12 51  1  0  0  0
 12 52  1  0  0  0
 13 53  1  0  0  0
 13 54  1  0  0  0
 14 15  2  0  0  0
 14 16  1  0  0  0
 16 17  1  0  0  0
 16 55  1  0  0  0
 17 21  2  0  0  0
 17 18  1  0  0  0
 18 19  2  0  0  0
 18 33  1  0  0  0
 19 20  1  0  0  0
 20 21  1  0  0  0
 20 23  1  0  0  0
 21 22  1  0  0  0
 22 56  1  0  0  0
 22 57  1  0  0  0
 23 28  2  0  0  0
 23 24  1  0  0  0
 24 25  2  0  0  0
 24 58  1  0  0  0
 25 26  1  0  0  0
 25 59  1  0  0  0
 26 27  2  0  0  0
 26 29  1  0  0  0
 27 28  1  0  0  0
 27 60  1  0  0  0
 28 61  1  0  0  0
 29 30  1  0  0  0
 29 31  1  0  0  0
 29 32  1  0  0  0
 33 38  2  0  0  0
 33 34  1  0  0  0
 34 35  2  0  0  0
 34 62  1  0  0  0
 35 36  1  0  0  0
 35 63  1  0  0  0
 36 37  2  0  0  0
 36 64  1  0  0  0
 37 38  1  0  0  0
 37 65  1  0  0  0
 38 66  1  0  0  0
M  END
> <i_i_glide_confnum>
107

> <i_i_glide_lignum>
4495

> <i_i_glide_posenum>
283

> <i_i_glide_rotatable_bonds>
8

> <i_m_Source_File_Index>
5510

> <b_m_subgroup_collapsed>
0

> <r_i_docking_score>
-5.53099

> <r_i_glide_ecoul>
-1.40881

> <r_i_glide_eff_state_penalty>
0

> <r_i_glide_einternal>
6.36014

> <r_i_glide_emodel>
-58.4995

> <r_i_glide_energy>
-45.4421

> <r_i_glide_erotb>
0.532775

> <r_i_glide_esite>
-0.0207306

> <r_i_glide_evdw>
-44.0333

> <r_i_glide_gscore>
-5.53099

> <r_i_glide_hbond>
0

> <r_i_glide_ligand_efficiency>
-0.145552

> <r_i_glide_ligand_efficiency_ln>
-1.19264

> <r_i_glide_ligand_efficiency_sa>
-0.489343

> <r_i_glide_lipo>
-2.85094

> <r_i_glide_metal>
0

> <r_i_glide_rewards>
-0.779102

> <s_i_glide_gridfile>
wee1_glide-grid

> <s_m_Source_File>
wee1_decoys_glide_SP.sdf

> <s_m_Source_Path>
/Users/zhangxujun/Desktop

> <s_m_entry_id>
5785

> <s_m_entry_name>
wee1_decoys_glide_SP.5510

> <s_m_subgroup_title>
wee1_decoys_glide_SP

> <s_m_subgroupid>
wee1_decoys_glide_SP


$$$$
