@<TRIPOS>MOLECULE
ZINC63730260_5521
66   70    1
SMALL
USER_CHARGES


@<TRIPOS>ATOM
      1 C1          1.7348   58.2655   15.6773 C.3       1 UNK         0.0000 
      2 C2          1.1988   56.9260   16.1509 C.2       1 UNK         0.0000 
      3 C3          1.8118   55.9470   16.8299 C.2       1 UNK         0.0000 
      4 C4          3.2003   55.7803   17.2356 C.2       1 UNK         0.0000 
      5 C5          3.7399   54.5385   17.3419 C.2       1 UNK         0.0000 
      6 C6          2.8874   53.3931   16.9938 C.2       1 UNK         0.0000 
      7 C7          1.5530   53.5120   16.7981 C.2       1 UNK         0.0000 
      8 C8          0.8294   54.8394   17.0483 C.3       1 UNK         0.0000 
      9 H9          0.4803   54.8198   18.0816 H         1 UNK         0.0000 
     10 N10        -0.2989   55.1873   16.2583 N.2       1 UNK         0.0000 
     11 C11        -0.1033   56.3738   15.8226 C.2       1 UNK         0.0000 
     12 C12        -1.1209   57.1405   15.0049 C.3       1 UNK         0.0000 
     13 C13         5.1903   54.3050   17.7818 C.3       1 UNK         0.0000 
     14 H14         5.7862   54.0054   16.9185 H         1 UNK         0.0000 
     15 N15         5.3402   53.3010   18.8230 N.pl3     1 UNK         0.0000 
     16 N16         5.5045   53.8954   20.0722 N.2       1 UNK         0.0000 
     17 C17         5.8624   55.0806   19.8411 C.2       1 UNK         0.0000 
     18 N18         5.8181   55.4100   18.5023 N.pl3     1 UNK         0.0000 
     19 C19         6.7441   56.3198   17.8198 C.3       1 UNK         0.0000 
     20 C20         8.1887   55.8297   17.6559 C.ar      1 UNK         0.0000 
     21 C21         9.1540   56.7730   17.2911 C.ar      1 UNK         0.0000 
     22 C22        10.4770   56.3881   17.0931 C.ar      1 UNK         0.0000 
     23 C23        10.8364   55.0510   17.2435 C.ar      1 UNK         0.0000 
     24 C24         9.8835   54.0972   17.5875 C.ar      1 UNK         0.0000 
     25 C25         8.5631   54.4854   17.7957 C.ar      1 UNK         0.0000 
     26 S26         6.3045   56.3467   21.0547 S.3       1 UNK         0.0000 
     27 C27         7.1989   55.3662   22.3090 C.3       1 UNK         0.0000 
     28 C28         6.3062   54.6851   23.3546 C.2       1 UNK         0.0000 
     29 O29         5.6642   53.6866   23.0357 O.2       1 UNK         0.0000 
     30 N30         6.3184   55.2027   24.6027 N.am      1 UNK         0.0000 
     31 C31         5.5690   54.7533   25.7055 C.ar      1 UNK         0.0000 
     32 C32         6.1330   54.8920   26.9736 C.ar      1 UNK         0.0000 
     33 C33         5.4450   54.4471   28.0996 C.ar      1 UNK         0.0000 
     34 C34         4.1750   53.8671   27.9765 C.ar      1 UNK         0.0000 
     35 C35         3.5980   53.7601   26.7036 C.ar      1 UNK         0.0000 
     36 C36         4.2856   54.2029   25.5788 C.ar      1 UNK         0.0000 
     37 C37         3.4631   53.3767   29.2022 C.2       1 UNK         0.0000 
     38 O38         3.9020   53.5063   30.3446 O.2       1 UNK         0.0000 
     39 C39         2.1307   52.6477   29.0266 C.3       1 UNK         0.0000 
     40 H40         1.1367   59.0820   16.0813 H         1 UNK         0.0000 
     41 H41         2.7669   58.4136   16.0006 H         1 UNK         0.0000 
     42 H42         1.7099   58.3283   14.5889 H         1 UNK         0.0000 
     43 H43         3.8181   56.6432   17.4343 H         1 UNK         0.0000 
     44 H44         3.3491   52.4277   16.8278 H         1 UNK         0.0000 
     45 H45         0.9834   52.6418   16.5059 H         1 UNK         0.0000 
     46 H46        -1.3778   58.0811   15.4939 H         1 UNK         0.0000 
     47 H47        -0.7257   57.3700   14.0146 H         1 UNK         0.0000 
     48 H48        -2.0434   56.5719   14.8699 H         1 UNK         0.0000 
     49 H49         4.7044   52.5146   18.8651 H         1 UNK         0.0000 
     50 H50         6.3509   56.5222   16.8224 H         1 UNK         0.0000 
     51 H51         6.7468   57.2822   18.3352 H         1 UNK         0.0000 
     52 H52         8.8813   57.8111   17.1613 H         1 UNK         0.0000 
     53 H53        11.2224   57.1211   16.8222 H         1 UNK         0.0000 
     54 H54        11.8641   54.7513   17.0939 H         1 UNK         0.0000 
     55 H55        10.1668   53.0596   17.6935 H         1 UNK         0.0000 
     56 H56         7.8475   53.7254   18.0624 H         1 UNK         0.0000 
     57 H57         7.9035   56.0429   22.7940 H         1 UNK         0.0000 
     58 H58         7.8045   54.6062   21.8204 H         1 UNK         0.0000 
     59 H59         7.0039   55.9151   24.7921 H         1 UNK         0.0000 
     60 H60         7.1102   55.3254   27.1052 H         1 UNK         0.0000 
     61 H61         5.9138   54.5597   29.0675 H         1 UNK         0.0000 
     62 H62         2.6176   53.3293   26.5582 H         1 UNK         0.0000 
     63 H63         3.8101   54.1107   24.6134 H         1 UNK         0.0000 
     64 H64         2.2559   51.7851   28.3712 H         1 UNK         0.0000 
     65 H65         1.3946   53.3093   28.5718 H         1 UNK         0.0000 
     66 H66         1.7457   52.3006   29.9854 H         1 UNK         0.0000 
@<TRIPOS>BOND
     1    1    2 1    
     2    1   40 1    
     3    1   41 1    
     4    1   42 1    
     5    2   11 1    
     6    2    3 2    
     7    3    8 1    
     8    3    4 1    
     9    4    5 2    
    10    4   43 1    
    11    5    6 1    
    12    5   13 1    
    13    6    7 2    
    14    6   44 1    
    15    7    8 1    
    16    7   45 1    
    17    8    9 1    
    18    8   10 1    
    19   10   11 2    
    20   11   12 1    
    21   12   46 1    
    22   12   47 1    
    23   12   48 1    
    24   13   14 1    
    25   13   18 1    
    26   13   15 1    
    27   15   16 1    
    28   15   49 1    
    29   16   17 2    
    30   17   18 1    
    31   17   26 1    
    32   18   19 1    
    33   19   20 1    
    34   19   50 1    
    35   19   51 1    
    36   20   25 ar   
    37   20   21 ar   
    38   21   22 ar   
    39   21   52 1    
    40   22   23 ar   
    41   22   53 1    
    42   23   24 ar   
    43   23   54 1    
    44   24   25 ar   
    45   24   55 1    
    46   25   56 1    
    47   26   27 1    
    48   27   28 1    
    49   27   57 1    
    50   27   58 1    
    51   28   29 2    
    52   28   30 am   BACKBONE|DICT|INTERRES
    53   30   31 1    
    54   30   59 1    
    55   31   36 ar   
    56   31   32 ar   
    57   32   33 ar   
    58   32   60 1    
    59   33   34 ar   
    60   33   61 1    
    61   34   35 ar   
    62   34   37 1    
    63   35   36 ar   
    64   35   62 1    
    65   36   63 1    
    66   37   38 2    
    67   37   39 1    
    68   39   64 1    
    69   39   65 1    
    70   39   66 1    
@<TRIPOS>SUBSTRUCTURE
     1 UNK         1 GROUP             0       ****    0 ROOT    
