@<TRIPOS>MOLECULE
ZINC09523010_5287
48   50    1
SMALL
USER_CHARGES


@<TRIPOS>ATOM
      1 C1          4.9536   54.5722   28.8546 C.3       1 UNK         0.0000 
      2 C2          5.0035   54.4814   27.3390 C.ar      1 UNK         0.0000 
      3 C3          6.2356   54.5093   26.6780 C.ar      1 UNK         0.0000 
      4 C4          6.3191   54.4134   25.2869 C.ar      1 UNK         0.0000 
      5 C5          5.1303   54.2644   24.5588 C.ar      1 UNK         0.0000 
      6 C6          3.8797   54.2636   25.2300 C.ar      1 UNK         0.0000 
      7 C7          3.8067   54.3752   26.6244 C.ar      1 UNK         0.0000 
      8 S8          2.5940   54.0960   24.0402 S.3       1 UNK         0.0000 
      9 C9          3.8267   53.9558   22.8143 C.2       1 UNK         0.0000 
     10 N10         5.0603   54.0954   23.2128 N.2       1 UNK         0.0000 
     11 N11         3.4513   53.6970   21.5263 N.pl3     1 UNK         0.0000 
     12 S12         4.3357   52.5960   20.4648 S.o2      1 UNK         0.0000 
     13 O13         5.1044   51.6966   21.3278 O.2       1 UNK         0.0000 
     14 O14         5.0133   53.4370   19.4745 O.2       1 UNK         0.0000 
     15 C15         3.0312   51.5506   19.5774 C.3       1 UNK         0.0000 
     16 C16         1.5839   51.8428   20.0069 C.3       1 UNK         0.0000 
     17 N17         1.2231   51.3646   21.3446 N.am      1 UNK         0.0000 
     18 C18         0.9819   50.0811   21.6744 C.2       1 UNK         0.0000 
     19 O19         1.1510   49.1460   20.8903 O.2       1 UNK         0.0000 
     20 C20         0.3735   49.8417   23.0371 C.ar      1 UNK         0.0000 
     21 C21         0.6274   50.6903   24.1258 C.ar      1 UNK         0.0000 
     22 C22         0.0160   50.4732   25.3689 C.ar      1 UNK         0.0000 
     23 C23        -0.8382   49.3765   25.5240 C.ar      1 UNK         0.0000 
     24 C24        -1.0974   48.5083   24.4584 C.ar      1 UNK         0.0000 
     25 C25        -0.4873   48.7517   23.2230 C.ar      1 UNK         0.0000 
     26 C26        -2.0578   47.3321   24.6435 C.3       1 UNK         0.0000 
     27 F27        -2.0968   46.5363   23.5718 F         1 UNK         0.0000 
     28 F28        -1.6982   46.5820   25.6820 F         1 UNK         0.0000 
     29 F29        -3.2893   47.7963   24.8557 F         1 UNK         0.0000 
     30 C30         0.2440   51.4298   26.5417 C.3       1 UNK         0.0000 
     31 F31         0.7441   52.5959   26.1362 F         1 UNK         0.0000 
     32 F32         1.1039   50.8965   27.4069 F         1 UNK         0.0000 
     33 F33        -0.9022   51.6812   27.1761 F         1 UNK         0.0000 
     34 H34         5.9036   54.8962   29.2798 H         1 UNK         0.0000 
     35 H35         4.1982   55.2943   29.1664 H         1 UNK         0.0000 
     36 H36         4.6894   53.6051   29.2825 H         1 UNK         0.0000 
     37 H37         7.1439   54.5969   27.2575 H         1 UNK         0.0000 
     38 H38         7.2737   54.4192   24.7810 H         1 UNK         0.0000 
     39 H39         2.8534   54.3567   27.1331 H         1 UNK         0.0000 
     40 H40         2.8294   54.3232   21.0313 H         1 UNK         0.0000 
     41 H41         3.2955   50.5203   19.8148 H         1 UNK         0.0000 
     42 H42         3.1821   51.6172   18.4996 H         1 UNK         0.0000 
     43 H43         0.9238   51.3322   19.3011 H         1 UNK         0.0000 
     44 H44         1.3426   52.8967   19.8840 H         1 UNK         0.0000 
     45 H45         1.1100   52.0707   22.0549 H         1 UNK         0.0000 
     46 H46         1.3016   51.5257   24.0132 H         1 UNK         0.0000 
     47 H47        -1.3129   49.2048   26.4812 H         1 UNK         0.0000 
     48 H48        -0.6954   48.0941   22.3899 H         1 UNK         0.0000 
@<TRIPOS>BOND
     1    1    2 1    
     2    1   34 1    
     3    1   35 1    
     4    1   36 1    
     5    2    7 ar   
     6    2    3 ar   
     7    3    4 ar   
     8    3   37 1    
     9    4    5 ar   
    10    4   38 1    
    11    5   10 1    
    12    5    6 ar   
    13    6    7 ar   
    14    6    8 1    
    15    7   39 1    
    16    8    9 1    
    17    9   10 2    
    18    9   11 1    
    19   11   12 1    
    20   11   40 1    
    21   12   13 2    
    22   12   14 2    
    23   12   15 1    
    24   15   16 1    
    25   15   41 1    
    26   15   42 1    
    27   16   17 1    
    28   16   43 1    
    29   16   44 1    
    30   17   18 am   BACKBONE|DICT|INTERRES
    31   17   45 1    
    32   18   19 2    
    33   18   20 1    
    34   20   25 ar   
    35   20   21 ar   
    36   21   22 ar   
    37   21   46 1    
    38   22   23 ar   
    39   22   30 1    
    40   23   24 ar   
    41   23   47 1    
    42   24   25 ar   
    43   24   26 1    
    44   25   48 1    
    45   26   27 1    
    46   26   28 1    
    47   26   29 1    
    48   30   31 1    
    49   30   32 1    
    50   30   33 1    
@<TRIPOS>SUBSTRUCTURE
     1 UNK         1 GROUP             0       ****    0 ROOT    
