ZINC65993688_1557
                    3D
 Schrodinger Suite 2024-2.
 53 56  0  0  1  0            999 V2000
    8.9091   56.5068   18.0933 C   0  0  0  0  0  0
    7.5854   55.8567   17.7602 C   0  0  0  0  0  0
    6.6131   55.3158   18.6563 C   0  0  0  0  0  0
    6.4620   55.1698   20.0417 C   0  0  0  0  0  0
    5.3054   54.5219   20.5156 C   0  0  0  0  0  0
    4.3484   54.0960   19.5855 C   0  0  0  0  0  0
    4.4552   54.2361   18.2372 N   0  0  0  0  0  0
    5.5815   54.8287   17.8254 C   0  0  0  0  0  0
    5.9903   55.0960   16.5337 N   0  0  0  0  0  0
    7.1903   55.7152   16.5164 N   0  0  0  0  0  0
    5.3058   54.8096   15.2834 C   0  0  0  0  0  0
    5.0297   54.2986   21.8789 N   0  0  0  0  0  0
    5.8929   54.3299   22.9138 C   0  0  0  0  0  0
    7.1044   54.4964   22.8198 O   0  0  0  0  0  0
    5.2694   54.1844   24.0909 N   0  0  0  0  0  0
    5.8925   54.2967   25.4195 C   0  0  1  0  0  0
    6.6391   55.6324   25.6427 C   0  0  0  0  0  0
    4.8879   54.0661   26.5515 C   0  0  0  0  0  0
    3.5306   54.3612   26.3958 C   0  0  0  0  0  0
    2.6324   54.0981   27.4230 C   0  0  0  0  0  0
    3.0611   53.5280   28.6308 C   0  0  0  0  0  0
    4.4282   53.2344   28.7771 C   0  0  0  0  0  0
    5.3292   53.5017   27.7501 C   0  0  0  0  0  0
    2.1014   53.3072   29.6617 N   0  0  0  0  0  0
    0.7570   53.9024   29.6123 C   0  0  0  0  0  0
    0.1214   53.6697   30.9571 C   0  0  0  0  0  0
    0.9924   52.6380   31.6079 C   0  0  0  0  0  0
    2.2503   52.4967   30.7531 C   0  0  0  0  0  0
    3.2119   51.7998   31.0759 O   0  0  0  0  0  0
    9.5715   55.8143   18.6148 H   0  0  0  0  0  0
    9.4428   56.8515   17.2073 H   0  0  0  0  0  0
    8.7774   57.3731   18.7417 H   0  0  0  0  0  0
    7.2293   55.5444   20.7006 H   0  0  0  0  0  0
    3.4403   53.6125   19.9165 H   0  0  0  0  0  0
    5.0766   53.7445   15.2368 H   0  0  0  0  0  0
    4.3768   55.3794   15.2461 H   0  0  0  0  0  0
    5.9279   55.0802   14.4273 H   0  0  0  0  0  0
    4.0750   54.0512   22.0871 H   0  0  0  0  0  0
    4.3679   53.7339   24.0828 H   0  0  0  0  0  0
    6.6222   53.4844   25.4764 H   0  0  0  0  0  0
    7.0163   55.6968   26.6641 H   0  0  0  0  0  0
    7.4939   55.7390   24.9743 H   0  0  0  0  0  0
    5.9862   56.4866   25.4603 H   0  0  0  0  0  0
    3.1610   54.8020   25.4819 H   0  0  0  0  0  0
    1.5949   54.3426   27.2527 H   0  0  0  0  0  0
    4.8298   52.8089   29.6809 H   0  0  0  0  0  0
    6.3732   53.2581   27.8876 H   0  0  0  0  0  0
    0.8051   54.9702   29.3923 H   0  0  0  0  0  0
    0.1646   53.4314   28.8259 H   0  0  0  0  0  0
   -0.8955   53.2968   30.8514 H   0  0  0  0  0  0
    0.1064   54.5886   31.5460 H   0  0  0  0  0  0
    0.4595   51.6968   31.6360 H   0  0  0  0  0  0
    1.2283   52.8964   32.6380 H   0  0  0  0  0  0
  1  2  1  0  0  0
  1 30  1  0  0  0
  1 31  1  0  0  0
  1 32  1  0  0  0
  2 10  2  0  0  0
  2  3  1  0  0  0
  3  8  2  0  0  0
  3  4  1  0  0  0
  4  5  2  0  0  0
  4 33  1  0  0  0
  5  6  1  0  0  0
  5 12  1  0  0  0
  6  7  2  0  0  0
  6 34  1  0  0  0
  7  8  1  0  0  0
  8  9  1  0  0  0
  9 10  1  0  0  0
  9 11  1  0  0  0
 11 35  1  0  0  0
 11 36  1  0  0  0
 11 37  1  0  0  0
 12 13  1  0  0  0
 12 38  1  0  0  0
 13 14  2  0  0  0
 13 15  1  0  0  0
 15 16  1  0  0  0
 15 39  1  0  0  0
 16 17  1  0  0  0
 16 18  1  0  0  0
 16 40  1  0  0  0
 17 41  1  0  0  0
 17 42  1  0  0  0
 17 43  1  0  0  0
 18 23  2  0  0  0
 18 19  1  0  0  0
 19 20  2  0  0  0
 19 44  1  0  0  0
 20 21  1  0  0  0
 20 45  1  0  0  0
 21 22  2  0  0  0
 21 24  1  0  0  0
 22 23  1  0  0  0
 22 46  1  0  0  0
 23 47  1  0  0  0
 24 28  1  0  0  0
 24 25  1  0  0  0
 25 26  1  0  0  0
 25 48  1  0  0  0
 25 49  1  0  0  0
 26 27  1  0  0  0
 26 50  1  0  0  0
 26 51  1  0  0  0
 27 28  1  0  0  0
 27 52  1  0  0  0
 27 53  1  0  0  0
 28 29  2  0  0  0
M  END
> <i_i_glide_confnum>
104

> <i_i_glide_lignum>
1558

> <i_i_glide_posenum>
65

> <i_i_glide_rotatable_bonds>
6

> <i_m_Source_File_Index>
4218

> <b_m_subgroup_collapsed>
0

> <r_i_docking_score>
-5.86617

> <r_i_glide_ecoul>
-3.15512

> <r_i_glide_eff_state_penalty>
0

> <r_i_glide_einternal>
3.043

> <r_i_glide_emodel>
-60.8698

> <r_i_glide_energy>
-44.4288

> <r_i_glide_erotb>
0.760611

> <r_i_glide_esite>
-0.0439807

> <r_i_glide_evdw>
-41.2737

> <r_i_glide_gscore>
-5.86617

> <r_i_glide_hbond>
-0.32

> <r_i_glide_ligand_efficiency>
-0.202282

> <r_i_glide_ligand_efficiency_ln>
-1.3432

> <r_i_glide_ligand_efficiency_sa>
-0.621474

> <r_i_glide_lipo>
-2.45694

> <r_i_glide_metal>
0

> <r_i_glide_rewards>
-1.2689

> <s_i_glide_gridfile>
wee1_glide-grid

> <s_m_Source_File>
wee1_decoys_glide_SP.sdf

> <s_m_Source_Path>
/Users/zhangxujun/Desktop

> <s_m_entry_id>
4493

> <s_m_entry_name>
wee1_decoys_glide_SP.4218

> <s_m_subgroup_title>
wee1_decoys_glide_SP

> <s_m_subgroupid>
wee1_decoys_glide_SP


$$$$
