@<TRIPOS>MOLECULE
ZINC34933283_3431
66   70    1
SMALL
USER_CHARGES


@<TRIPOS>ATOM
      1 C1          3.7812   53.6818   28.9302 C.3       1 UNK         0.0000 
      2 C2          4.4621   54.0924   27.6413 C.ar      1 UNK         0.0000 
      3 C3          5.8549   54.0863   27.5630 C.ar      1 UNK         0.0000 
      4 C4          6.4797   54.4445   26.3717 C.ar      1 UNK         0.0000 
      5 C5          5.7298   54.8361   25.2623 C.ar      1 UNK         0.0000 
      6 C6          4.3391   54.8903   25.3649 C.ar      1 UNK         0.0000 
      7 C7          3.7033   54.4965   26.5419 C.ar      1 UNK         0.0000 
      8 C8          6.4370   55.1766   23.9440 C.3       1 UNK         0.0000 
      9 N9          5.9098   54.5854   22.6844 N.am      1 UNK         0.0000 
     10 C10         5.4861   53.1662   22.7873 C.3       1 UNK         0.0000 
     11 C11         4.2133   52.7675   22.0398 C.ar      1 UNK         0.0000 
     12 C12         2.9606   53.1481   22.5252 C.ar      1 UNK         0.0000 
     13 C13         1.8074   52.7943   21.8366 C.ar      1 UNK         0.0000 
     14 C14         1.9032   52.0578   20.6564 C.ar      1 UNK         0.0000 
     15 C15         3.1474   51.6208   20.1945 C.ar      1 UNK         0.0000 
     16 C16         4.3005   51.9644   20.8952 C.ar      1 UNK         0.0000 
     17 S17         0.4370   51.7296   19.6935 S.o2      1 UNK         0.0000 
     18 O18         0.5699   50.3948   19.1096 O.2       1 UNK         0.0000 
     19 O19        -0.7304   52.0954   20.5050 O.2       1 UNK         0.0000 
     20 N20         0.5499   52.8912   18.4025 N.pl3     1 UNK         0.0000 
     21 C21         6.2131   55.2133   21.5022 C.2       1 UNK         0.0000 
     22 O22         6.8122   56.2873   21.4384 O.2       1 UNK         0.0000 
     23 N23         5.7792   54.5997   20.3826 N.am      1 UNK         0.0000 
     24 C24         6.0061   54.9454   18.9734 C.3       1 UNK         0.0000 
     25 C25         5.4097   53.8084   18.0861 C.3       1 UNK         0.0000 
     26 C26         5.5969   54.0987   16.5755 C.3       1 UNK         0.0000 
     27 C27         7.1079   54.2236   16.2634 C.3       1 UNK         0.0000 
     28 C28         7.7166   55.3750   17.1009 C.3       1 UNK         0.0000 
     29 C29         7.5238   55.0720   18.6086 C.3       1 UNK         0.0000 
     30 C30         6.9992   56.7068   16.7493 C.3       1 UNK         0.0000 
     31 C31         5.4858   56.5814   17.0574 C.3       1 UNK         0.0000 
     32 C32         4.8793   55.4260   16.2206 C.3       1 UNK         0.0000 
     33 C33         5.2884   56.2731   18.5661 C.3       1 UNK         0.0000 
     34 H34         4.3276   54.0640   29.7935 H         1 UNK         0.0000 
     35 H35         2.7667   54.0834   28.9952 H         1 UNK         0.0000 
     36 H36         3.7410   52.5931   29.0027 H         1 UNK         0.0000 
     37 H37         6.4516   53.7828   28.4132 H         1 UNK         0.0000 
     38 H38         7.5479   54.4000   26.3168 H         1 UNK         0.0000 
     39 H39         3.7514   55.2372   24.5300 H         1 UNK         0.0000 
     40 H40         2.6244   54.5024   26.5997 H         1 UNK         0.0000 
     41 H41         6.4364   56.2672   23.8761 H         1 UNK         0.0000 
     42 H42         7.4902   54.8940   24.0187 H         1 UNK         0.0000 
     43 H43         6.3041   52.5187   22.4815 H         1 UNK         0.0000 
     44 H44         5.3203   52.8968   23.8257 H         1 UNK         0.0000 
     45 H45         2.8623   53.7202   23.4301 H         1 UNK         0.0000 
     46 H46         0.8480   53.1234   22.2079 H         1 UNK         0.0000 
     47 H47         3.2300   51.0410   19.2825 H         1 UNK         0.0000 
     48 H48         5.2616   51.6390   20.5213 H         1 UNK         0.0000 
     49 H49         0.6688   53.8442   18.7619 H         1 UNK         0.0000 
     50 H50         1.2896   52.6625   17.7361 H         1 UNK         0.0000 
     51 H51         5.2173   53.7740   20.5196 H         1 UNK         0.0000 
     52 H52         5.8770   52.8530   18.3323 H         1 UNK         0.0000 
     53 H53         4.3462   53.6816   18.3018 H         1 UNK         0.0000 
     54 H54         5.1669   53.2809   15.9943 H         1 UNK         0.0000 
     55 H55         7.6180   53.2832   16.4858 H         1 UNK         0.0000 
     56 H56         7.2600   54.4043   15.1980 H         1 UNK         0.0000 
     57 H57         8.7807   55.4662   16.8779 H         1 UNK         0.0000 
     58 H58         7.9975   55.8629   19.1918 H         1 UNK         0.0000 
     59 H59         8.0527   54.1547   18.8735 H         1 UNK         0.0000 
     60 H60         7.4327   57.5337   17.3136 H         1 UNK         0.0000 
     61 H61         7.1496   56.9512   15.6978 H         1 UNK         0.0000 
     62 H62         4.9828   57.5172   16.8092 H         1 UNK         0.0000 
     63 H63         4.9748   55.6366   15.1552 H         1 UNK         0.0000 
     64 H64         3.8086   55.3408   16.4155 H         1 UNK         0.0000 
     65 H65         4.2215   56.2045   18.7914 H         1 UNK         0.0000 
     66 H66         5.6632   57.1103   19.1604 H         1 UNK         0.0000 
@<TRIPOS>BOND
     1    1    2 1    
     2    1   34 1    
     3    1   35 1    
     4    1   36 1    
     5    2    7 ar   
     6    2    3 ar   
     7    3    4 ar   
     8    3   37 1    
     9    4    5 ar   
    10    4   38 1    
    11    5    6 ar   
    12    5    8 1    
    13    6    7 ar   
    14    6   39 1    
    15    7   40 1    
    16    8    9 1    
    17    8   41 1    
    18    8   42 1    
    19    9   10 1    
    20    9   21 am   BACKBONE|DICT|INTERRES
    21   10   11 1    
    22   10   43 1    
    23   10   44 1    
    24   11   16 ar   
    25   11   12 ar   
    26   12   13 ar   
    27   12   45 1    
    28   13   14 ar   
    29   13   46 1    
    30   14   15 ar   
    31   14   17 1    
    32   15   16 ar   
    33   15   47 1    
    34   16   48 1    
    35   17   18 2    
    36   17   19 2    
    37   17   20 1    
    38   20   49 1    
    39   20   50 1    
    40   21   22 2    
    41   21   23 am   BACKBONE|DICT|INTERRES
    42   23   24 1    
    43   23   51 1    
    44   24   29 1    
    45   24   33 1    
    46   24   25 1    
    47   25   26 1    
    48   25   52 1    
    49   25   53 1    
    50   26   32 1    
    51   26   27 1    
    52   26   54 1    
    53   27   28 1    
    54   27   55 1    
    55   27   56 1    
    56   28   29 1    
    57   28   30 1    
    58   28   57 1    
    59   29   58 1    
    60   29   59 1    
    61   30   31 1    
    62   30   60 1    
    63   30   61 1    
    64   31   32 1    
    65   31   33 1    
    66   31   62 1    
    67   32   63 1    
    68   32   64 1    
    69   33   65 1    
    70   33   66 1    
@<TRIPOS>SUBSTRUCTURE
     1 UNK         1 GROUP             0       ****    0 ROOT    
