ZINC39327242_3885
                    3D
 Schrodinger Suite 2024-2.
 34 37  0  0  1  0            999 V2000
    4.5446   53.1030   20.8169 C   0  0  0  0  0  0
    3.9524   51.8809   20.5339 C   0  0  0  0  0  0
    2.9326   51.3819   21.3361 C   0  0  0  0  0  0
    2.4810   52.1021   22.4809 C   0  0  0  0  0  0
    3.1162   53.3541   22.7757 C   0  0  0  0  0  0
    4.1370   53.8429   21.9203 C   0  0  0  0  0  0
    2.7339   54.0752   23.9284 C   0  0  0  0  0  0
    1.7654   53.5686   24.7804 C   0  0  0  0  0  0
    1.1330   52.3706   24.4948 C   0  0  0  0  0  0
    1.4537   51.6111   23.3599 C   0  0  0  0  0  0
    0.7225   50.2780   23.0916 C   0  0  1  0  0  0
    1.4829   49.5106   22.9384 H   0  0  0  0  0  0
   -0.0797   49.8549   24.3267 C   0  0  0  0  0  0
   -0.2885   50.7055   25.3521 C   0  0  0  0  0  0
    0.1835   51.9713   25.4116 O   0  0  0  0  0  0
   -1.0241   50.4860   26.4810 N   0  0  0  0  0  0
   -0.6249   48.5350   24.3580 C   0  0  0  0  0  0
   -1.0572   47.4612   24.3468 N   0  0  0  0  0  0
   -0.1918   50.3549   21.8761 C   0  0  0  0  0  0
   -0.2272   49.5341   20.7478 C   0  0  0  0  0  0
   -1.1913   49.8935   19.8004 C   0  0  0  0  0  0
   -1.9257   51.0020   20.1832 C   0  0  0  0  0  0
   -1.4145   51.5979   21.7229 S   0  0  0  0  0  0
   -3.2040   51.7741   19.3289 Cl  0  0  0  0  0  0
    5.3278   53.4768   20.1724 H   0  0  0  0  0  0
    4.2983   51.3130   19.6851 H   0  0  0  0  0  0
    2.4995   50.4280   21.0866 H   0  0  0  0  0  0
    4.6104   54.7893   22.1372 H   0  0  0  0  0  0
    3.2237   55.0101   24.1570 H   0  0  0  0  0  0
    1.5048   54.0988   25.6831 H   0  0  0  0  0  0
   -1.2959   49.5489   26.7718 H   0  0  0  0  0  0
   -1.1652   51.2252   27.1534 H   0  0  0  0  0  0
    0.4369   48.6925   20.6170 H   0  0  0  0  0  0
   -1.3454   49.3656   18.8695 H   0  0  0  0  0  0
  1  6  2  0  0  0
  1  2  1  0  0  0
  1 25  1  0  0  0
  2  3  2  0  0  0
  2 26  1  0  0  0
  3  4  1  0  0  0
  3 27  1  0  0  0
  4 10  2  0  0  0
  4  5  1  0  0  0
  5  6  1  0  0  0
  5  7  2  0  0  0
  6 28  1  0  0  0
  7  8  1  0  0  0
  7 29  1  0  0  0
  8  9  2  0  0  0
  8 30  1  0  0  0
  9 15  1  0  0  0
  9 10  1  0  0  0
 10 11  1  0  0  0
 11 12  1  0  0  0
 11 13  1  0  0  0
 11 19  1  0  0  0
 13 14  2  0  0  0
 13 17  1  0  0  0
 14 15  1  0  0  0
 14 16  1  0  0  0
 16 31  1  0  0  0
 16 32  1  0  0  0
 17 18  3  0  0  0
 19 23  1  0  0  0
 19 20  2  0  0  0
 20 21  1  0  0  0
 20 33  1  0  0  0
 21 22  2  0  0  0
 21 34  1  0  0  0
 22 23  1  0  0  0
 22 24  1  0  0  0
M  END
> <i_i_glide_confnum>
2

> <i_i_glide_lignum>
3886

> <i_i_glide_posenum>
392

> <i_i_glide_rotatable_bonds>
2

> <i_m_Source_File_Index>
4350

> <b_m_subgroup_collapsed>
0

> <r_i_docking_score>
-4.26103

> <r_i_glide_ecoul>
-3.15916

> <r_i_glide_eff_state_penalty>
0

> <r_i_glide_einternal>
0.354704

> <r_i_glide_emodel>
-41.1495

> <r_i_glide_energy>
-30.1538

> <r_i_glide_erotb>
0.16479

> <r_i_glide_esite>
-0.127031

> <r_i_glide_evdw>
-26.9946

> <r_i_glide_gscore>
-4.26103

> <r_i_glide_hbond>
-0.136683

> <r_i_glide_ligand_efficiency>
-0.185262

> <r_i_glide_ligand_efficiency_ln>
-1.03036

> <r_i_glide_ligand_efficiency_sa>
-0.526861

> <r_i_glide_lipo>
-1.23949

> <r_i_glide_metal>
0

> <r_i_glide_rewards>
-1.09901

> <s_i_glide_gridfile>
wee1_glide-grid

> <s_m_Source_File>
wee1_decoys_glide_SP.sdf

> <s_m_Source_Path>
/Users/zhangxujun/Desktop

> <s_m_entry_id>
4625

> <s_m_entry_name>
wee1_decoys_glide_SP.4350

> <s_m_subgroup_title>
wee1_decoys_glide_SP

> <s_m_subgroupid>
wee1_decoys_glide_SP


$$$$
