@<TRIPOS>MOLECULE
ZINC39685465_1245
67   71    1
SMALL
USER_CHARGES


@<TRIPOS>ATOM
      1 C1          0.9003   47.1906   16.2302 C.ar      1 UNK         0.0000 
      2 C2          1.6232   47.2934   17.4188 C.ar      1 UNK         0.0000 
      3 C3          1.1176   48.0097   18.5056 C.ar      1 UNK         0.0000 
      4 C4         -0.1451   48.6140   18.3886 C.ar      1 UNK         0.0000 
      5 C5         -0.8706   48.5100   17.2022 C.ar      1 UNK         0.0000 
      6 C6         -0.3486   47.8005   16.1228 C.ar      1 UNK         0.0000 
      7 F7         -2.0834   49.0986   17.1004 F         1 UNK         0.0000 
      8 O8          1.9051   48.0555   19.6386 O.3       1 UNK         0.0000 
      9 C9          1.5968   48.9607   20.6962 C.3       1 UNK         0.0000 
     10 C10         1.8483   50.4392   20.3174 C.3       1 UNK         0.0000 
     11 N11         1.7306   51.3230   21.4771 N.am      1 UNK         0.0000 
     12 C12         0.5798   51.8086   21.9834 C.2       1 UNK         0.0000 
     13 O13        -0.5053   51.6388   21.4282 O.2       1 UNK         0.0000 
     14 C14         0.6005   52.5464   23.3542 C.3       1 UNK         0.0000 
     15 H15        -0.0674   53.4043   23.2812 H         1 UNK         0.0000 
     16 C16         2.0004   53.1313   23.6379 C.3       1 UNK         0.0000 
     17 N17         2.0971   53.1702   25.0982 N.am      1 UNK         0.0000 
     18 C18         0.9549   52.4951   25.7202 C.3       1 UNK         0.0000 
     19 C19         0.2719   51.6699   24.5932 C.3       1 UNK         0.0000 
     20 C20         0.8391   50.2129   24.4855 C.3       1 UNK         0.0000 
     21 C21         0.6342   49.3970   25.7799 C.3       1 UNK         0.0000 
     22 N22        -0.8790   49.3496   26.0816 N.4       1 UNK         0.0000 
     23 C23        -1.5628   50.7355   26.1135 C.3       1 UNK         0.0000 
     24 C24        -1.2510   51.4727   24.7932 C.3       1 UNK         0.0000 
     25 C25         3.1051   53.6966   25.8543 C.2       1 UNK         0.0000 
     26 O26         3.0247   53.7727   27.0825 O.2       1 UNK         0.0000 
     27 C27         4.3481   54.0975   25.2139 C.2       1 UNK         0.0000 
     28 C28         5.5639   54.4984   25.7635 C.2       1 UNK         0.0000 
     29 C29         6.4405   54.7315   24.6979 C.2       1 UNK         0.0000 
     30 C30         5.7258   54.4969   23.5305 C.2       1 UNK         0.0000 
     31 O31         4.4694   54.1087   23.8611 O.3       1 UNK         0.0000 
     32 C32         6.0142   54.6666   22.0782 C.ar      1 UNK         0.0000 
     33 C33         5.1033   54.2350   21.1055 C.ar      1 UNK         0.0000 
     34 C34         5.3714   54.4430   19.7549 C.ar      1 UNK         0.0000 
     35 C35         6.5461   55.0863   19.3734 C.ar      1 UNK         0.0000 
     36 C36         7.4584   55.5197   20.3329 C.ar      1 UNK         0.0000 
     37 C37         7.1940   55.3039   21.6835 C.ar      1 UNK         0.0000 
     38 F38         6.8044   55.2887   18.0624 F         1 UNK         0.0000 
     39 H39         1.3141   46.6478   15.3933 H         1 UNK         0.0000 
     40 H40         2.5989   46.8351   17.4894 H         1 UNK         0.0000 
     41 H41        -0.5822   49.1666   19.2046 H         1 UNK         0.0000 
     42 H42        -0.9125   47.7282   15.2046 H         1 UNK         0.0000 
     43 H43         0.5836   48.8054   21.0711 H         1 UNK         0.0000 
     44 H44         2.2502   48.6908   21.5275 H         1 UNK         0.0000 
     45 H45         2.8547   50.5327   19.9027 H         1 UNK         0.0000 
     46 H46         1.1838   50.7642   19.5140 H         1 UNK         0.0000 
     47 H47         2.5941   51.5383   21.9507 H         1 UNK         0.0000 
     48 H48         2.7903   52.4441   23.3405 H         1 UNK         0.0000 
     49 H49         2.1195   54.1127   23.1725 H         1 UNK         0.0000 
     50 H50         0.2797   53.2957   26.0141 H         1 UNK         0.0000 
     51 H51         1.1716   51.9205   26.6190 H         1 UNK         0.0000 
     52 H52         0.4039   49.6716   23.6442 H         1 UNK         0.0000 
     53 H53         1.9044   50.2442   24.2653 H         1 UNK         0.0000 
     54 H54         0.9590   48.3602   25.6781 H         1 UNK         0.0000 
     55 H55         1.1046   49.8186   26.6675 H         1 UNK         0.0000 
     56 H56        -1.3379   48.7614   25.4017 H         1 UNK         0.0000 
     57 H57        -2.6283   50.5415   26.2491 H         1 UNK         0.0000 
     58 H58        -1.1830   51.2450   27.0010 H         1 UNK         0.0000 
     59 H59        -1.7358   52.4494   24.8368 H         1 UNK         0.0000 
     60 H60        -1.7023   50.9682   23.9360 H         1 UNK         0.0000 
     61 H61         5.7871   54.5923   26.8174 H         1 UNK         0.0000 
     62 H62         7.4716   55.0543   24.7595 H         1 UNK         0.0000 
     63 H63         4.1821   53.7478   21.3883 H         1 UNK         0.0000 
     64 H64         4.6702   54.1081   19.0046 H         1 UNK         0.0000 
     65 H65         8.3728   56.0086   20.0278 H         1 UNK         0.0000 
     66 H66         7.9039   55.6512   22.4200 H         1 UNK         0.0000 
     67 H67        -1.0417   48.8965   26.9961 H         1 UNK         0.0000 
@<TRIPOS>BOND
     1    1    6 ar   
     2    1    2 ar   
     3    1   39 1    
     4    2    3 ar   
     5    2   40 1    
     6    3    4 ar   
     7    3    8 1    
     8    4    5 ar   
     9    4   41 1    
    10    5    6 ar   
    11    5    7 1    
    12    6   42 1    
    13    8    9 1    
    14    9   10 1    
    15    9   43 1    
    16    9   44 1    
    17   10   11 1    
    18   10   45 1    
    19   10   46 1    
    20   11   12 am   BACKBONE|DICT|INTERRES
    21   11   47 1    
    22   12   13 2    
    23   12   14 1    
    24   14   15 1    
    25   14   19 1    
    26   14   16 1    
    27   16   17 1    
    28   16   48 1    
    29   16   49 1    
    30   17   18 1    
    31   17   25 am   BACKBONE|DICT|INTERRES
    32   18   19 1    
    33   18   50 1    
    34   18   51 1    
    35   19   24 1    
    36   19   20 1    
    37   20   21 1    
    38   20   52 1    
    39   20   53 1    
    40   21   22 1    
    41   21   54 1    
    42   21   55 1    
    43   22   23 1    
    44   22   56 1    
    45   22   67 1    
    46   23   24 1    
    47   23   57 1    
    48   23   58 1    
    49   24   59 1    
    50   24   60 1    
    51   25   26 2    
    52   25   27 1    
    53   27   31 1    
    54   27   28 2    
    55   28   29 1    
    56   28   61 1    
    57   29   30 2    
    58   29   62 1    
    59   30   31 1    
    60   30   32 1    
    61   32   37 ar   
    62   32   33 ar   
    63   33   34 ar   
    64   33   63 1    
    65   34   35 ar   
    66   34   64 1    
    67   35   36 ar   
    68   35   38 1    
    69   36   37 ar   
    70   36   65 1    
    71   37   66 1    
@<TRIPOS>SUBSTRUCTURE
     1 UNK         1 GROUP             0       ****    0 ROOT    
