ZINC03832692_3198
                    3D
 Schrodinger Suite 2024-2.
 43 45  0  0  1  0            999 V2000
    6.6482   54.8942   26.7826 C   0  0  0  0  0  0
    6.7043   55.0479   25.4012 C   0  0  0  0  0  0
    5.5819   54.7813   24.6289 C   0  0  0  0  0  0
    4.3732   54.3670   25.2106 C   0  0  0  0  0  0
    4.3213   54.2297   26.6231 C   0  0  0  0  0  0
    5.4672   54.4905   27.3902 C   0  0  0  0  0  0
    3.1315   53.7878   27.2198 N   0  0  0  0  0  0
    2.6813   53.8709   28.4911 C   0  0  0  0  0  0
    3.2660   54.4439   29.4140 O   0  0  0  0  0  0
    1.3712   53.1557   28.7374 C   0  0  0  0  0  0
    0.9643   52.8490   30.0447 C   0  0  0  0  0  0
   -0.2044   52.1233   30.2712 C   0  0  0  0  0  0
   -0.9877   51.6967   29.2015 C   0  0  0  0  0  0
   -0.6165   52.0221   27.8979 C   0  0  0  0  0  0
    0.5480   52.7490   27.6734 C   0  0  0  0  0  0
   -1.5465   51.4280   26.4940 S   0  0  0  0  0  0
   -2.8919   51.0701   26.9558 O   0  0  0  0  0  0
   -1.3447   52.3755   25.3901 O   0  0  0  0  0  0
   -0.7153   49.9231   26.0818 N   0  0  0  0  0  0
   -0.9447   49.3034   24.8554 C   0  0  0  0  0  0
   -0.5409   49.9054   23.6620 C   0  0  0  0  0  0
   -0.7356   49.2409   22.4540 C   0  0  0  0  0  0
   -1.3289   47.9800   22.4484 C   0  0  0  0  0  0
   -1.7294   47.3778   23.6401 C   0  0  0  0  0  0
   -1.5309   48.0387   24.8488 C   0  0  0  0  0  0
   -1.5736   47.0565   20.8030 Br  0  0  0  0  0  0
    3.2212   54.0764   24.3054 N   0  3  0  0  0  0
    3.2676   54.4939   23.1516 O   0  0  0  0  0  0
    2.2738   53.4128   24.7147 O   0  5  0  0  0  0
    7.5069   55.0897   27.4037 H   0  0  0  0  0  0
    7.6114   55.3616   24.9074 H   0  0  0  0  0  0
    5.6639   54.8937   23.5567 H   0  0  0  0  0  0
    5.4723   54.3703   28.4625 H   0  0  0  0  0  0
    2.5006   53.3622   26.5546 H   0  0  0  0  0  0
    1.5600   53.1448   30.8965 H   0  0  0  0  0  0
   -0.4958   51.8681   31.2796 H   0  0  0  0  0  0
   -1.8678   51.0955   29.3896 H   0  0  0  0  0  0
    0.8030   52.9639   26.6480 H   0  0  0  0  0  0
   -0.8968   49.2638   26.8350 H   0  0  0  0  0  0
   -0.0658   50.8760   23.6718 H   0  0  0  0  0  0
   -0.4185   49.6970   21.5277 H   0  0  0  0  0  0
   -2.1872   46.4012   23.6256 H   0  0  0  0  0  0
   -1.8235   47.5709   25.7801 H   0  0  0  0  0  0
  1  6  2  0  0  0
  1  2  1  0  0  0
  1 30  1  0  0  0
  2  3  2  0  0  0
  2 31  1  0  0  0
  3  4  1  0  0  0
  3 32  1  0  0  0
  4  5  2  0  0  0
  4 27  1  0  0  0
  5  6  1  0  0  0
  5  7  1  0  0  0
  6 33  1  0  0  0
  7  8  1  0  0  0
  7 34  1  0  0  0
  8  9  2  0  0  0
  8 10  1  0  0  0
 10 15  2  0  0  0
 10 11  1  0  0  0
 11 12  2  0  0  0
 11 35  1  0  0  0
 12 13  1  0  0  0
 12 36  1  0  0  0
 13 14  2  0  0  0
 13 37  1  0  0  0
 14 15  1  0  0  0
 14 16  1  0  0  0
 15 38  1  0  0  0
 16 17  2  0  0  0
 16 18  2  0  0  0
 16 19  1  0  0  0
 19 20  1  0  0  0
 19 39  1  0  0  0
 20 25  2  0  0  0
 20 21  1  0  0  0
 21 22  2  0  0  0
 21 40  1  0  0  0
 22 23  1  0  0  0
 22 41  1  0  0  0
 23 24  2  0  0  0
 23 26  1  0  0  0
 24 25  1  0  0  0
 24 42  1  0  0  0
 25 43  1  0  0  0
 27 28  2  0  0  0
 27 29  1  0  0  0
M  CHG  2  27   1  29  -1
M  END
> <i_i_glide_confnum>
42

> <i_i_glide_lignum>
3199

> <i_i_glide_posenum>
266

> <i_i_glide_rotatable_bonds>
7

> <i_m_Source_File_Index>
4725

> <b_m_subgroup_collapsed>
0

> <r_i_docking_score>
-3.14003

> <r_i_glide_ecoul>
-4.2638

> <r_i_glide_eff_state_penalty>
0

> <r_i_glide_einternal>
7.1026

> <r_i_glide_emodel>
-47.2472

> <r_i_glide_energy>
-48.1613

> <r_i_glide_erotb>
0.535532

> <r_i_glide_esite>
-0.204399

> <r_i_glide_evdw>
-43.8975

> <r_i_glide_gscore>
-3.14003

> <r_i_glide_hbond>
-0.18444

> <r_i_glide_ligand_efficiency>
-0.108277

> <r_i_glide_ligand_efficiency_ln>
-0.718986

> <r_i_glide_ligand_efficiency_sa>
-0.33266

> <r_i_glide_lipo>
-2.08334

> <r_i_glide_metal>
0

> <r_i_glide_rewards>
1.63107

> <s_i_glide_gridfile>
wee1_glide-grid

> <s_m_Source_File>
wee1_decoys_glide_SP.sdf

> <s_m_Source_Path>
/Users/zhangxujun/Desktop

> <s_m_entry_id>
5000

> <s_m_entry_name>
wee1_decoys_glide_SP.4725

> <s_m_subgroup_title>
wee1_decoys_glide_SP

> <s_m_subgroupid>
wee1_decoys_glide_SP


$$$$
