@<TRIPOS>MOLECULE
ZINC30958514_3268
57   60    1
SMALL
USER_CHARGES


@<TRIPOS>ATOM
      1 C1         -5.3838   51.2349   27.3079 C.ar      1 UNK         0.0000 
      2 C2         -4.6212   50.7330   28.3593 C.ar      1 UNK         0.0000 
      3 C3         -3.2390   50.8968   28.3475 C.ar      1 UNK         0.0000 
      4 C4         -2.6129   51.5476   27.2817 C.ar      1 UNK         0.0000 
      5 C5         -3.3920   52.0599   26.2310 C.ar      1 UNK         0.0000 
      6 C6         -4.7754   51.8987   26.2456 C.ar      1 UNK         0.0000 
      7 N7         -1.2155   51.7057   27.3795 N.am      1 UNK         0.0000 
      8 C8         -0.3485   52.0965   26.4243 C.2       1 UNK         0.0000 
      9 O9         -0.6051   52.1131   25.2202 O.2       1 UNK         0.0000 
     10 N10         0.8101   52.5237   26.9722 N.am      1 UNK         0.0000 
     11 C11         1.9044   53.1638   26.3481 C.ar      1 UNK         0.0000 
     12 C12         3.0704   53.2967   27.1061 C.ar      1 UNK         0.0000 
     13 C13         4.2302   53.8159   26.5325 C.ar      1 UNK         0.0000 
     14 C14         4.2402   54.2278   25.1929 C.ar      1 UNK         0.0000 
     15 C15         3.0324   54.2171   24.4817 C.ar      1 UNK         0.0000 
     16 C16         1.8828   53.6726   25.0412 C.ar      1 UNK         0.0000 
     17 C17         5.5344   54.7124   24.5614 C.2       1 UNK         0.0000 
     18 O18         6.3395   55.3184   25.2779 O.2       1 UNK         0.0000 
     19 N19         5.7687   54.4968   23.2305 N.am      1 UNK         0.0000 
     20 C20         6.9704   55.1004   22.5903 C.3       1 UNK         0.0000 
     21 C21         6.5754   55.6288   21.1843 C.3       1 UNK         0.0000 
     22 N22         5.9075   54.5580   20.4196 N.pl3     1 UNK         0.0000 
     23 C23         4.6894   54.0519   21.0715 C.3       1 UNK         0.0000 
     24 C24         5.1038   53.4347   22.4253 C.3       1 UNK         0.0000 
     25 S25         6.1282   54.4395   18.6675 S.o2      1 UNK         0.0000 
     26 O26         5.3358   53.3015   18.1923 O.2       1 UNK         0.0000 
     27 O27         7.5676   54.5161   18.3939 O.2       1 UNK         0.0000 
     28 C28         5.3816   55.9163   17.9715 C.ar      1 UNK         0.0000 
     29 C29         4.0771   55.8526   17.4679 C.ar      1 UNK         0.0000 
     30 C30         3.4952   56.9761   16.8807 C.ar      1 UNK         0.0000 
     31 C31         4.2102   58.1695   16.7960 C.ar      1 UNK         0.0000 
     32 C32         5.5046   58.2415   17.3078 C.ar      1 UNK         0.0000 
     33 C33         6.0876   57.1264   17.9096 C.ar      1 UNK         0.0000 
     34 F34         7.3322   57.2416   18.4269 F         1 UNK         0.0000 
     35 H35        -6.4564   51.1056   27.3156 H         1 UNK         0.0000 
     36 H36        -5.0950   50.2121   29.1788 H         1 UNK         0.0000 
     37 H37        -2.6556   50.4953   29.1661 H         1 UNK         0.0000 
     38 H38        -2.9500   52.5963   25.4063 H         1 UNK         0.0000 
     39 H39        -5.3741   52.2892   25.4361 H         1 UNK         0.0000 
     40 H40        -0.8326   51.4732   28.2827 H         1 UNK         0.0000 
     41 H41         0.9326   52.3449   27.9561 H         1 UNK         0.0000 
     42 H42         3.1061   52.9427   28.1262 H         1 UNK         0.0000 
     43 H43         5.1341   53.8528   27.1251 H         1 UNK         0.0000 
     44 H44         2.9733   54.6082   23.4762 H         1 UNK         0.0000 
     45 H45         0.9906   53.6579   24.4362 H         1 UNK         0.0000 
     46 H46         7.6999   54.2972   22.4814 H         1 UNK         0.0000 
     47 H47         7.4207   55.8979   23.1840 H         1 UNK         0.0000 
     48 H48         7.4580   55.9615   20.6378 H         1 UNK         0.0000 
     49 H49         5.8705   56.4545   21.2825 H         1 UNK         0.0000 
     50 H50         4.0226   54.8967   21.2410 H         1 UNK         0.0000 
     51 H51         4.1745   53.3358   20.4303 H         1 UNK         0.0000 
     52 H52         4.2945   52.8943   22.9065 H         1 UNK         0.0000 
     53 H53         5.8727   52.6830   22.2393 H         1 UNK         0.0000 
     54 H54         3.5132   54.9313   17.5180 H         1 UNK         0.0000 
     55 H55         2.4886   56.9236   16.4917 H         1 UNK         0.0000 
     56 H56         3.7623   59.0481   16.3508 H         1 UNK         0.0000 
     57 H57         6.0454   59.1770   17.2568 H         1 UNK         0.0000 
@<TRIPOS>BOND
     1    1    6 ar   
     2    1    2 ar   
     3    1   35 1    
     4    2    3 ar   
     5    2   36 1    
     6    3    4 ar   
     7    3   37 1    
     8    4    5 ar   
     9    4    7 1    
    10    5    6 ar   
    11    5   38 1    
    12    6   39 1    
    13    7    8 am   BACKBONE|DICT|INTERRES
    14    7   40 1    
    15    8    9 2    
    16    8   10 am   BACKBONE|DICT|INTERRES
    17   10   11 1    
    18   10   41 1    
    19   11   16 ar   
    20   11   12 ar   
    21   12   13 ar   
    22   12   42 1    
    23   13   14 ar   
    24   13   43 1    
    25   14   15 ar   
    26   14   17 1    
    27   15   16 ar   
    28   15   44 1    
    29   16   45 1    
    30   17   18 2    
    31   17   19 am   BACKBONE|DICT|INTERRES
    32   19   24 1    
    33   19   20 1    
    34   20   21 1    
    35   20   46 1    
    36   20   47 1    
    37   21   22 1    
    38   21   48 1    
    39   21   49 1    
    40   22   23 1    
    41   22   25 1    
    42   23   24 1    
    43   23   50 1    
    44   23   51 1    
    45   24   52 1    
    46   24   53 1    
    47   25   26 2    
    48   25   27 2    
    49   25   28 1    
    50   28   33 ar   
    51   28   29 ar   
    52   29   30 ar   
    53   29   54 1    
    54   30   31 ar   
    55   30   55 1    
    56   31   32 ar   
    57   31   56 1    
    58   32   33 ar   
    59   32   57 1    
    60   33   34 1    
@<TRIPOS>SUBSTRUCTURE
     1 UNK         1 GROUP             0       ****    0 ROOT    
