@<TRIPOS>MOLECULE
ZINC13038806_2904
70   72    1
SMALL
USER_CHARGES


@<TRIPOS>ATOM
      1 C1          4.7679   54.6912   29.2821 C.3       1 UNK         0.0000 
      2 C2          5.1794   53.4304   28.5120 C.3       1 UNK         0.0000 
      3 O3          4.7870   53.5120   27.1458 O.3       1 UNK         0.0000 
      4 C4          5.5282   54.1563   26.2072 C.2       1 UNK         0.0000 
      5 O5          6.5993   54.7208   26.4435 O.2       1 UNK         0.0000 
      6 C6          4.8938   54.0967   24.8617 C.2       1 UNK         0.0000 
      7 C7          5.5971   54.3538   23.6385 C.2       1 UNK         0.0000 
      8 C8          4.7696   54.2348   22.4984 C.2       1 UNK         0.0000 
      9 S9          3.1269   53.9036   22.9154 S.3       1 UNK         0.0000 
     10 C10         3.5392   53.7671   24.5977 C.2       1 UNK         0.0000 
     11 N11         2.6101   53.3118   25.5372 N.am      1 UNK         0.0000 
     12 C12         1.3160   52.9733   25.3722 C.2       1 UNK         0.0000 
     13 O13         0.6348   53.2280   24.3768 O.2       1 UNK         0.0000 
     14 C14         0.7084   52.2182   26.5722 C.3       1 UNK         0.0000 
     15 C15        -1.3181   51.1461   27.5543 C.3       1 UNK         0.0000 
     16 C16        -0.5539   50.4757   25.1389 C.3       1 UNK         0.0000 
     17 C17         0.1145   49.1740   25.6398 C.3       1 UNK         0.0000 
     18 C18         0.1664   48.1299   24.5086 C.3       1 UNK         0.0000 
     19 C19        -1.2321   47.8430   23.9228 C.3       1 UNK         0.0000 
     20 C20        -1.9330   49.1347   23.4472 C.3       1 UNK         0.0000 
     21 C21        -1.9644   50.2136   24.5511 C.3       1 UNK         0.0000 
     22 C22         5.1054   54.4966   21.1130 C.2       1 UNK         0.0000 
     23 O23         6.0178   55.2693   20.8314 O.2       1 UNK         0.0000 
     24 N24         4.3288   53.8535   20.2078 N.am      1 UNK         0.0000 
     25 C25         4.3058   53.9473   18.8006 C.ar      1 UNK         0.0000 
     26 C26         4.9494   54.9705   18.0833 C.ar      1 UNK         0.0000 
     27 C27         4.8808   55.0153   16.6919 C.ar      1 UNK         0.0000 
     28 C28         4.1619   54.0463   15.9928 C.ar      1 UNK         0.0000 
     29 C29         3.5168   53.0286   16.6952 C.ar      1 UNK         0.0000 
     30 C30         3.5716   52.9762   18.0901 C.ar      1 UNK         0.0000 
     31 C31         2.8439   51.8372   18.7969 C.3       1 UNK         0.0000 
     32 C32         4.0997   54.0853   14.4777 C.3       1 UNK         0.0000 
     33 C33         7.1000   54.6035   23.5570 C.3       1 UNK         0.0000 
     34 H34         4.7041   54.5019   30.3520 H         1 UNK         0.0000 
     35 H35         5.5058   55.4757   29.1329 H         1 UNK         0.0000 
     36 H36         3.7950   55.0625   28.9584 H         1 UNK         0.0000 
     37 H37         4.6700   52.5657   28.9407 H         1 UNK         0.0000 
     38 H38         6.2513   53.2386   28.6064 H         1 UNK         0.0000 
     39 H39         3.0161   53.1416   26.4476 H         1 UNK         0.0000 
     40 H40         0.5039   52.9358   27.3697 H         1 UNK         0.0000 
     41 H41         1.3620   51.4380   26.9610 H         1 UNK         0.0000 
     42 H42        -0.6241   50.4982   28.0942 H         1 UNK         0.0000 
     43 H43        -1.5364   52.0436   28.1329 H         1 UNK         0.0000 
     44 H44        -2.2403   50.6109   27.3273 H         1 UNK         0.0000 
     45 H45         0.0429   50.8391   24.3026 H         1 UNK         0.0000 
     46 H46        -0.4393   48.7628   26.4815 H         1 UNK         0.0000 
     47 H47         1.1042   49.3615   26.0484 H         1 UNK         0.0000 
     48 H48         0.6133   47.2119   24.8817 H         1 UNK         0.0000 
     49 H49         0.8265   48.4904   23.7167 H         1 UNK         0.0000 
     50 H50        -1.8462   47.3563   24.6833 H         1 UNK         0.0000 
     51 H51        -1.1527   47.1365   23.0954 H         1 UNK         0.0000 
     52 H52        -2.9482   48.9098   23.1210 H         1 UNK         0.0000 
     53 H53        -1.4120   49.5258   22.5723 H         1 UNK         0.0000 
     54 H54        -2.4151   51.1432   24.1987 H         1 UNK         0.0000 
     55 H55        -2.6375   49.8691   25.3363 H         1 UNK         0.0000 
     56 H56         3.6516   53.2096   20.5776 H         1 UNK         0.0000 
     57 H57         5.5016   55.7539   18.5754 H         1 UNK         0.0000 
     58 H58         5.3828   55.8130   16.1610 H         1 UNK         0.0000 
     59 H59         2.9731   52.2695   16.1516 H         1 UNK         0.0000 
     60 H60         2.5042   51.0708   18.1004 H         1 UNK         0.0000 
     61 H61         3.5069   51.3376   19.5040 H         1 UNK         0.0000 
     62 H62         1.9859   52.2165   19.3537 H         1 UNK         0.0000 
     63 H63         4.0355   53.0768   14.0671 H         1 UNK         0.0000 
     64 H64         3.2321   54.6541   14.1426 H         1 UNK         0.0000 
     65 H65         4.9990   54.5356   14.0567 H         1 UNK         0.0000 
     66 H66         7.3521   55.6320   23.8185 H         1 UNK         0.0000 
     67 H67         7.6405   53.9597   24.2492 H         1 UNK         0.0000 
     68 H68         7.5398   54.3788   22.5871 H         1 UNK         0.0000 
     69 N69        -0.6263   51.5856   26.2386 N.4       1 UNK         0.0000 
     70 H70        -1.1934   52.3139   25.8267 H         1 UNK         0.0000 
@<TRIPOS>BOND
     1    1    2 1    
     2    1   34 1    
     3    1   35 1    
     4    1   36 1    
     5    2    3 1    
     6    2   37 1    
     7    2   38 1    
     8    3    4 1    
     9    4    5 2    
    10    4    6 1    
    11    6   10 2    
    12    6    7 1    
    13    7    8 2    
    14    7   33 1    
    15    8    9 1    
    16    8   22 1    
    17    9   10 1    
    18   10   11 am   BACKBONE|DICT|INTERRES
    19   11   12 am   BACKBONE|DICT|INTERRES
    20   11   39 1    
    21   12   13 2    
    22   12   14 1    
    23   14   40 1    
    24   14   41 1    
    25   14   69 1    
    26   15   42 1    
    27   15   43 1    
    28   15   44 1    
    29   15   69 1    
    30   16   21 1    
    31   16   17 1    
    32   16   45 1    
    33   16   69 1    
    34   17   18 1    
    35   17   46 1    
    36   17   47 1    
    37   18   19 1    
    38   18   48 1    
    39   18   49 1    
    40   19   20 1    
    41   19   50 1    
    42   19   51 1    
    43   20   21 1    
    44   20   52 1    
    45   20   53 1    
    46   21   54 1    
    47   21   55 1    
    48   22   23 2    
    49   22   24 am   BACKBONE|DICT|INTERRES
    50   24   25 1    
    51   24   56 1    
    52   25   30 ar   
    53   25   26 ar   
    54   26   27 ar   
    55   26   57 1    
    56   27   28 ar   
    57   27   58 1    
    58   28   29 ar   
    59   28   32 1    
    60   29   30 ar   
    61   29   59 1    
    62   30   31 1    
    63   31   60 1    
    64   31   61 1    
    65   31   62 1    
    66   32   63 1    
    67   32   64 1    
    68   32   65 1    
    69   33   66 1    
    70   33   67 1    
    71   33   68 1    
    72   69   70 1    
@<TRIPOS>SUBSTRUCTURE
     1 UNK         1 GROUP             0       ****    0 ROOT    
