ZINC24352171_2309
                    3D
 Schrodinger Suite 2024-2.
 61 64  0  0  1  0            999 V2000
    0.8835   54.4460   29.6663 C   0  0  0  0  0  0
    1.5402   53.0875   29.3094 C   0  0  0  0  0  0
    1.8624   52.3354   30.6228 C   0  0  0  0  0  0
    0.4945   52.2259   28.5544 C   0  0  0  0  0  0
    2.8540   53.2656   28.4517 C   0  0  2  0  0  0
    3.3383   52.2856   28.4429 H   0  0  0  0  0  0
    3.8670   54.2702   29.0763 C   0  0  0  0  0  0
    5.2585   54.1773   28.4226 C   0  0  0  0  0  0
    5.0741   54.2543   26.9162 C   0  0  0  0  0  0
    3.8650   54.0375   26.2441 C   0  0  0  0  0  0
    4.0261   54.0852   24.8513 C   0  0  0  0  0  0
    5.3419   54.3098   24.4436 C   0  0  0  0  0  0
    6.3907   54.4991   25.8183 S   0  0  0  0  0  0
    5.9049   54.2844   23.1153 C   0  0  0  0  0  0
    7.1052   54.0947   22.9347 O   0  0  0  0  0  0
    5.0152   54.4954   22.1176 N   0  0  0  0  0  0
    5.4226   54.7082   20.7788 N   0  0  0  0  0  0
    6.1579   55.7984   20.4400 C   0  0  0  0  0  0
    6.6900   56.5485   21.2630 O   0  0  0  0  0  0
    6.2175   56.1489   18.9729 C   0  0  0  0  0  0
    6.1373   55.1781   17.9646 C   0  0  0  0  0  0
    6.1207   55.5632   16.6244 C   0  0  0  0  0  0
    6.1640   56.9154   16.2755 C   0  0  0  0  0  0
    6.2629   57.8818   17.2789 C   0  0  0  0  0  0
    6.3043   57.4995   18.6115 C   0  0  0  0  0  0
    6.1171   57.2648   14.9137 N   0  0  0  0  0  0
    5.3127   58.4114   14.4973 C   0  0  0  0  0  0
    6.2098   59.6658   14.3936 C   0  0  0  0  0  0
    7.6915   59.2344   14.4241 C   0  0  0  0  0  0
    7.6350   57.4066   14.0175 S   0  0  0  0  0  0
    8.7367   56.6979   14.6778 O   0  0  0  0  0  0
    7.4240   57.3041   12.5679 O   0  0  0  0  0  0
    2.5706   53.6702   26.9696 C   0  0  0  0  0  0
   -0.0811   54.3076   30.1593 H   0  0  0  0  0  0
    0.7047   55.0566   28.7827 H   0  0  0  0  0  0
    1.5008   55.0353   30.3454 H   0  0  0  0  0  0
    2.3547   51.3890   30.4063 H   0  0  0  0  0  0
    2.5213   52.8958   31.2827 H   0  0  0  0  0  0
    0.9600   52.1108   31.1951 H   0  0  0  0  0  0
    0.9200   51.2784   28.2205 H   0  0  0  0  0  0
   -0.3629   51.9809   29.1849 H   0  0  0  0  0  0
    0.0949   52.7370   27.6786 H   0  0  0  0  0  0
    3.4734   55.2882   29.0628 H   0  0  0  0  0  0
    4.0104   54.0499   30.1329 H   0  0  0  0  0  0
    5.9055   54.9728   28.7925 H   0  0  0  0  0  0
    5.7282   53.2296   28.6897 H   0  0  0  0  0  0
    3.2082   53.9054   24.1684 H   0  0  0  0  0  0
    4.0722   54.8142   22.2860 H   0  0  0  0  0  0
    5.3308   53.8875   20.1984 H   0  0  0  0  0  0
    6.0817   54.1248   18.2011 H   0  0  0  0  0  0
    6.0524   54.8081   15.8541 H   0  0  0  0  0  0
    6.3010   58.9339   17.0402 H   0  0  0  0  0  0
    6.3543   58.2762   19.3619 H   0  0  0  0  0  0
    4.7046   58.2293   13.6122 H   0  0  0  0  0  0
    4.5520   58.6398   15.2476 H   0  0  0  0  0  0
    5.9731   60.2014   13.4738 H   0  0  0  0  0  0
    5.9913   60.3734   15.1971 H   0  0  0  0  0  0
    8.2971   59.7397   13.6734 H   0  0  0  0  0  0
    8.1588   59.3661   15.3987 H   0  0  0  0  0  0
    2.0926   52.8456   26.4386 H   0  0  0  0  0  0
    1.8674   54.4963   26.9195 H   0  0  0  0  0  0
  1  2  1  0  0  0
  1 34  1  0  0  0
  1 35  1  0  0  0
  1 36  1  0  0  0
  2  3  1  0  0  0
  2  4  1  0  0  0
  2  5  1  0  0  0
  3 37  1  0  0  0
  3 38  1  0  0  0
  3 39  1  0  0  0
  4 40  1  0  0  0
  4 41  1  0  0  0
  4 42  1  0  0  0
  5  6  1  0  0  0
  5 33  1  0  0  0
  5  7  1  0  0  0
  7  8  1  0  0  0
  7 43  1  0  0  0
  7 44  1  0  0  0
  8  9  1  0  0  0
  8 45  1  0  0  0
  8 46  1  0  0  0
  9 13  1  0  0  0
  9 10  2  0  0  0
 10 11  1  0  0  0
 10 33  1  0  0  0
 11 12  2  0  0  0
 11 47  1  0  0  0
 12 13  1  0  0  0
 12 14  1  0  0  0
 14 15  2  0  0  0
 14 16  1  0  0  0
 16 17  1  0  0  0
 16 48  1  0  0  0
 17 18  1  0  0  0
 17 49  1  0  0  0
 18 19  2  0  0  0
 18 20  1  0  0  0
 20 25  2  0  0  0
 20 21  1  0  0  0
 21 22  2  0  0  0
 21 50  1  0  0  0
 22 23  1  0  0  0
 22 51  1  0  0  0
 23 24  2  0  0  0
 23 26  1  0  0  0
 24 25  1  0  0  0
 24 52  1  0  0  0
 25 53  1  0  0  0
 26 30  1  0  0  0
 26 27  1  0  0  0
 27 28  1  0  0  0
 27 54  1  0  0  0
 27 55  1  0  0  0
 28 29  1  0  0  0
 28 56  1  0  0  0
 28 57  1  0  0  0
 29 30  1  0  0  0
 29 58  1  0  0  0
 29 59  1  0  0  0
 30 31  2  0  0  0
 30 32  2  0  0  0
 33 60  1  0  0  0
 33 61  1  0  0  0
M  END
> <i_i_glide_confnum>
90

> <i_i_glide_lignum>
2310

> <i_i_glide_posenum>
335

> <i_i_glide_rotatable_bonds>
7

> <i_m_Source_File_Index>
1412

> <b_m_subgroup_collapsed>
0

> <r_i_docking_score>
-5.83655

> <r_i_glide_ecoul>
-3.00224

> <r_i_glide_eff_state_penalty>
0

> <r_i_glide_einternal>
4.57124

> <r_i_glide_emodel>
-59.3396

> <r_i_glide_energy>
-43.5715

> <r_i_glide_erotb>
0.536922

> <r_i_glide_esite>
-0.00157601

> <r_i_glide_evdw>
-40.5693

> <r_i_glide_gscore>
-5.83655

> <r_i_glide_hbond>
-0.236388

> <r_i_glide_ligand_efficiency>
-0.182392

> <r_i_glide_ligand_efficiency_ln>
-1.30696

> <r_i_glide_ligand_efficiency_sa>
-0.579059

> <r_i_glide_lipo>
-2.82667

> <r_i_glide_metal>
0

> <r_i_glide_rewards>
-0.830031

> <s_i_glide_gridfile>
wee1_glide-grid

> <s_m_Source_File>
wee1_decoys_glide_SP.sdf

> <s_m_Source_Path>
/Users/zhangxujun/Desktop

> <s_m_entry_id>
1687

> <s_m_entry_name>
wee1_decoys_glide_SP.1412

> <s_m_subgroup_title>
wee1_decoys_glide_SP

> <s_m_subgroupid>
wee1_decoys_glide_SP


$$$$
