ZINC01631335_1824
                    3D
 Schrodinger Suite 2024-2.
 32 34  0  0  1  0            999 V2000
    6.2110   55.0680   20.1054 C   0  0  0  0  0  0
    7.1046   55.2976   21.6711 S   0  0  0  0  0  0
    6.0550   54.7321   22.9711 C   0  0  0  0  0  0
    4.8053   54.3284   22.6331 N   0  0  0  0  0  0
    3.9701   54.0321   23.6495 C   0  0  0  0  0  0
    4.3620   54.0970   25.0097 C   0  0  0  0  0  0
    5.7074   54.5079   25.2388 C   0  0  0  0  0  0
    6.5542   54.8317   24.2274 N   0  0  0  0  0  0
    6.2036   54.6216   26.4970 N   0  0  0  0  0  0
    5.3688   54.3165   27.5181 C   0  0  0  0  0  0
    4.0381   53.9010   27.3143 C   0  0  0  0  0  0
    3.5344   53.7997   26.0529 N   0  0  0  0  0  0
    3.0778   53.5707   28.4161 C   0  0  0  0  0  0
    1.7595   54.0464   28.3820 C   0  0  0  0  0  0
    0.8625   53.7436   29.4028 C   0  0  0  0  0  0
    1.2816   52.9690   30.4783 C   0  0  0  0  0  0
    2.5880   52.4933   30.5349 C   0  0  0  0  0  0
    3.4768   52.7805   29.5024 C   0  0  0  0  0  0
    5.8975   54.4938   28.7871 N   0  0  0  0  0  0
    2.6885   53.6574   23.2626 N   0  0  0  0  0  0
    6.8487   55.3447   19.2655 H   0  0  0  0  0  0
    5.9070   54.0289   19.9812 H   0  0  0  0  0  0
    5.3189   55.6956   20.0816 H   0  0  0  0  0  0
    1.4256   54.6579   27.5562 H   0  0  0  0  0  0
   -0.1533   54.1067   29.3585 H   0  0  0  0  0  0
    0.5877   52.7294   31.2723 H   0  0  0  0  0  0
    2.9086   51.8984   31.3778 H   0  0  0  0  0  0
    4.4804   52.3812   29.5469 H   0  0  0  0  0  0
    5.2756   54.3994   29.5733 H   0  0  0  0  0  0
    6.7638   55.0208   28.8826 H   0  0  0  0  0  0
    2.0122   53.3976   23.9648 H   0  0  0  0  0  0
    2.4769   53.6377   22.2757 H   0  0  0  0  0  0
  1  2  1  0  0  0
  1 21  1  0  0  0
  1 22  1  0  0  0
  1 23  1  0  0  0
  2  3  1  0  0  0
  3  8  2  0  0  0
  3  4  1  0  0  0
  4  5  2  0  0  0
  5  6  1  0  0  0
  5 20  1  0  0  0
  6 12  2  0  0  0
  6  7  1  0  0  0
  7  8  1  0  0  0
  7  9  2  0  0  0
  9 10  1  0  0  0
 10 11  2  0  0  0
 10 19  1  0  0  0
 11 12  1  0  0  0
 11 13  1  0  0  0
 13 18  2  0  0  0
 13 14  1  0  0  0
 14 15  2  0  0  0
 14 24  1  0  0  0
 15 16  1  0  0  0
 15 25  1  0  0  0
 16 17  2  0  0  0
 16 26  1  0  0  0
 17 18  1  0  0  0
 17 27  1  0  0  0
 18 28  1  0  0  0
 19 29  1  0  0  0
 19 30  1  0  0  0
 20 31  1  0  0  0
 20 32  1  0  0  0
M  END
> <i_i_glide_confnum>
4

> <i_i_glide_lignum>
1825

> <i_i_glide_posenum>
163

> <i_i_glide_rotatable_bonds>
2

> <i_m_Source_File_Index>
4173

> <b_m_subgroup_collapsed>
0

> <r_i_docking_score>
-6.90216

> <r_i_glide_ecoul>
-4.16761

> <r_i_glide_eff_state_penalty>
0

> <r_i_glide_einternal>
0.394411

> <r_i_glide_emodel>
-57.8096

> <r_i_glide_energy>
-41.2146

> <r_i_glide_erotb>
0.224187

> <r_i_glide_esite>
0

> <r_i_glide_evdw>
-37.047

> <r_i_glide_gscore>
-6.90216

> <r_i_glide_hbond>
-0.32

> <r_i_glide_ligand_efficiency>
-0.345108

> <r_i_glide_ligand_efficiency_ln>
-1.72738

> <r_i_glide_ligand_efficiency_sa>
-0.936767

> <r_i_glide_lipo>
-2.10345

> <r_i_glide_metal>
0

> <r_i_glide_rewards>
-2.2254

> <s_i_glide_gridfile>
wee1_glide-grid

> <s_m_Source_File>
wee1_decoys_glide_SP.sdf

> <s_m_Source_Path>
/Users/zhangxujun/Desktop

> <s_m_entry_id>
4448

> <s_m_entry_name>
wee1_decoys_glide_SP.4173

> <s_m_subgroup_title>
wee1_decoys_glide_SP

> <s_m_subgroupid>
wee1_decoys_glide_SP


$$$$
