ZINC10800983_822
                    3D
 Schrodinger Suite 2024-2.
 64 68  0  0  1  0            999 V2000
    0.8096   52.2019   31.9770 C   0  0  0  0  0  0
    2.1721   52.0957   31.5687 O   0  0  0  0  0  0
    2.5476   52.5819   30.3357 C   0  0  0  0  0  0
    1.6712   53.1350   29.3897 C   0  0  0  0  0  0
    2.1585   53.5862   28.1675 C   0  0  0  0  0  0
    3.5220   53.5036   27.8782 C   0  0  0  0  0  0
    4.3984   52.9554   28.8230 C   0  0  0  0  0  0
    3.9042   52.4992   30.0402 C   0  0  0  0  0  0
    3.9211   53.9183   26.5966 N   0  0  0  0  0  0
    5.1565   54.2441   26.1517 C   0  0  0  0  0  0
    6.1297   54.4319   26.8884 O   0  0  0  0  0  0
    5.3023   54.3835   24.6478 C   0  0  0  0  0  0
    4.2450   54.0820   23.7665 C   0  0  0  0  0  0
    4.4140   54.1820   22.3907 C   0  0  0  0  0  0
    5.6264   54.6397   21.8766 C   0  0  0  0  0  0
    6.6990   54.9069   22.7347 C   0  0  0  0  0  0
    6.5309   54.7828   24.1100 C   0  0  0  0  0  0
    5.7237   54.8163   20.4922 N   0  0  0  0  0  0
    6.3046   55.8680   19.8777 C   0  0  0  0  0  0
    6.7044   56.8778   20.4713 O   0  0  0  0  0  0
    6.3764   55.7925   18.3455 C   0  0  0  0  0  0
    7.5627   56.4504   17.8862 O   0  0  0  0  0  0
    8.7359   55.7820   17.7029 C   0  0  0  0  0  0
    8.8873   54.5656   17.8549 O   0  0  0  0  0  0
    9.9043   56.7230   17.3115 C   0  0  0  0  0  0
   10.1021   57.7988   18.4300 C   0  0  0  0  0  0
   11.2581   58.7601   18.0518 C   0  0  2  0  0  0
   10.9202   59.4645   16.7106 C   0  0  0  0  0  0
   10.7465   58.4062   15.5878 C   0  0  2  0  0  0
    9.5891   57.4427   15.9612 C   0  0  0  0  0  0
   12.0631   57.5988   15.4367 C   0  0  0  0  0  0
   12.4003   56.8891   16.7735 C   0  0  1  0  0  0
   12.5713   57.9514   17.8916 C   0  0  0  0  0  0
   11.2425   55.9275   17.1434 C   0  0  0  0  0  0
    0.7038   51.7243   32.9516 H   0  0  0  0  0  0
    0.5062   53.2473   32.0831 H   0  0  0  0  0  0
    0.1302   51.7019   31.2838 H   0  0  0  0  0  0
    0.6144   53.2156   29.5835 H   0  0  0  0  0  0
    1.4632   53.9933   27.4449 H   0  0  0  0  0  0
    5.4549   52.8452   28.6196 H   0  0  0  0  0  0
    4.5885   52.0856   30.7630 H   0  0  0  0  0  0
    3.1854   53.9221   25.9088 H   0  0  0  0  0  0
    3.2822   53.7466   24.1224 H   0  0  0  0  0  0
    3.5864   53.9554   21.7334 H   0  0  0  0  0  0
    7.6536   55.2315   22.3471 H   0  0  0  0  0  0
    7.3736   55.0039   24.7483 H   0  0  0  0  0  0
    5.2167   54.1580   19.9164 H   0  0  0  0  0  0
    5.4910   56.2496   17.9008 H   0  0  0  0  0  0
    6.3582   54.7443   18.0298 H   0  0  0  0  0  0
   10.3051   57.3173   19.3895 H   0  0  0  0  0  0
    9.1911   58.3805   18.5826 H   0  0  0  0  0  0
   11.3826   59.5046   18.8384 H   0  0  0  0  0  0
   11.7094   60.1683   16.4432 H   0  0  0  0  0  0
   10.0103   60.0574   16.8119 H   0  0  0  0  0  0
   10.5124   58.9048   14.6458 H   0  0  0  0  0  0
    8.6575   58.0084   16.0253 H   0  0  0  0  0  0
    9.4433   56.7133   15.1620 H   0  0  0  0  0  0
   12.8798   58.2611   15.1433 H   0  0  0  0  0  0
   11.9665   56.8661   14.6339 H   0  0  0  0  0  0
   13.3250   56.3204   16.6656 H   0  0  0  0  0  0
   12.8398   57.4723   18.8350 H   0  0  0  0  0  0
   13.3985   58.6215   17.6494 H   0  0  0  0  0  0
   11.1411   55.1647   16.3692 H   0  0  0  0  0  0
   11.4877   55.3853   18.0580 H   0  0  0  0  0  0
  1  2  1  0  0  0
  1 35  1  0  0  0
  1 36  1  0  0  0
  1 37  1  0  0  0
  2  3  1  0  0  0
  3  8  2  0  0  0
  3  4  1  0  0  0
  4  5  2  0  0  0
  4 38  1  0  0  0
  5  6  1  0  0  0
  5 39  1  0  0  0
  6  7  2  0  0  0
  6  9  1  0  0  0
  7  8  1  0  0  0
  7 40  1  0  0  0
  8 41  1  0  0  0
  9 10  1  0  0  0
  9 42  1  0  0  0
 10 11  2  0  0  0
 10 12  1  0  0  0
 12 17  2  0  0  0
 12 13  1  0  0  0
 13 14  2  0  0  0
 13 43  1  0  0  0
 14 15  1  0  0  0
 14 44  1  0  0  0
 15 16  2  0  0  0
 15 18  1  0  0  0
 16 17  1  0  0  0
 16 45  1  0  0  0
 17 46  1  0  0  0
 18 19  1  0  0  0
 18 47  1  0  0  0
 19 20  2  0  0  0
 19 21  1  0  0  0
 21 22  1  0  0  0
 21 48  1  0  0  0
 21 49  1  0  0  0
 22 23  1  0  0  0
 23 24  2  0  0  0
 23 25  1  0  0  0
 25 30  1  0  0  0
 25 34  1  0  0  0
 25 26  1  0  0  0
 26 27  1  0  0  0
 26 50  1  0  0  0
 26 51  1  0  0  0
 27 33  1  0  0  0
 27 28  1  0  0  0
 27 52  1  0  0  0
 28 29  1  0  0  0
 28 53  1  0  0  0
 28 54  1  0  0  0
 29 30  1  0  0  0
 29 31  1  0  0  0
 29 55  1  0  0  0
 30 56  1  0  0  0
 30 57  1  0  0  0
 31 32  1  0  0  0
 31 58  1  0  0  0
 31 59  1  0  0  0
 32 33  1  0  0  0
 32 34  1  0  0  0
 32 60  1  0  0  0
 33 61  1  0  0  0
 33 62  1  0  0  0
 34 63  1  0  0  0
 34 64  1  0  0  0
M  END
> <i_i_glide_confnum>
51

> <i_i_glide_lignum>
823

> <i_i_glide_posenum>
248

> <i_i_glide_rotatable_bonds>
10

> <i_m_Source_File_Index>
4314

> <b_m_subgroup_collapsed>
0

> <r_i_docking_score>
-5.96969

> <r_i_glide_ecoul>
-6.65916

> <r_i_glide_eff_state_penalty>
0

> <r_i_glide_einternal>
8.56564

> <r_i_glide_emodel>
-65.5258

> <r_i_glide_energy>
-51.2967

> <r_i_glide_erotb>
0.753282

> <r_i_glide_esite>
0

> <r_i_glide_evdw>
-44.6375

> <r_i_glide_gscore>
-5.96969

> <r_i_glide_hbond>
-0.483798

> <r_i_glide_ligand_efficiency>
-0.175579

> <r_i_glide_ligand_efficiency_ln>
-1.31887

> <r_i_glide_ligand_efficiency_sa>
-0.568808

> <r_i_glide_lipo>
-2.39954

> <r_i_glide_metal>
0

> <r_i_glide_rewards>
-0.608882

> <s_i_glide_gridfile>
wee1_glide-grid

> <s_m_Source_File>
wee1_decoys_glide_SP.sdf

> <s_m_Source_Path>
/Users/zhangxujun/Desktop

> <s_m_entry_id>
4589

> <s_m_entry_name>
wee1_decoys_glide_SP.4314

> <s_m_subgroup_title>
wee1_decoys_glide_SP

> <s_m_subgroupid>
wee1_decoys_glide_SP


$$$$
