@<TRIPOS>MOLECULE
ZINC00685870_52
51   53    1
SMALL
USER_CHARGES


@<TRIPOS>ATOM
      1 C1          2.1094   52.0604   14.8683 C.3       1 UNK         0.0000 
      2 C2          2.5368   52.3593   16.2938 C.ar      1 UNK         0.0000 
      3 C3          3.5360   53.2970   16.5485 C.ar      1 UNK         0.0000 
      4 C4          3.9358   53.5616   17.8574 C.ar      1 UNK         0.0000 
      5 C5          3.3324   52.8963   18.9389 C.ar      1 UNK         0.0000 
      6 C6          2.3148   51.9562   18.6799 C.ar      1 UNK         0.0000 
      7 C7          1.9270   51.6986   17.3608 C.ar      1 UNK         0.0000 
      8 C8          1.6201   51.1962   19.8053 C.3       1 UNK         0.0000 
      9 N9          3.6865   53.1149   20.2858 N.am      1 UNK         0.0000 
     10 C10         4.4758   54.0606   20.8425 C.2       1 UNK         0.0000 
     11 O11         5.1297   54.8976   20.2242 O.2       1 UNK         0.0000 
     12 C12         4.4851   54.0441   22.2901 C.2       1 UNK         0.0000 
     13 C13         5.5332   54.3926   23.1639 C.2       1 UNK         0.0000 
     14 C14         5.1407   54.3378   24.5418 C.2       1 UNK         0.0000 
     15 C15         3.7890   53.9350   24.6705 C.2       1 UNK         0.0000 
     16 S16         3.0139   53.6977   23.1344 S.3       1 UNK         0.0000 
     17 N17         3.1037   53.7565   25.8758 N.am      1 UNK         0.0000 
     18 C18         1.8552   53.2966   26.0961 C.2       1 UNK         0.0000 
     19 O19         1.0705   52.9164   25.2281 O.2       1 UNK         0.0000 
     20 C20         1.4415   53.2728   27.5468 C.ar      1 UNK         0.0000 
     21 C21         1.5809   54.4244   28.3415 C.ar      1 UNK         0.0000 
     22 C22         1.1787   54.4066   29.6777 C.ar      1 UNK         0.0000 
     23 C23         0.6517   53.2256   30.1967 C.ar      1 UNK         0.0000 
     24 N24         0.5214   52.0969   29.4585 N.ar      1 UNK         0.0000 
     25 C25         0.9079   52.1180   28.1552 C.ar      1 UNK         0.0000 
     26 Cl26        0.7027   50.6361   27.2816 Cl        1 UNK         0.0000 
     27 C27         6.0443   54.6793   25.6647 C.2       1 UNK         0.0000 
     28 O28         7.1039   55.2954   25.5339 O.2       1 UNK         0.0000 
     29 O29         5.5711   54.2583   26.8591 O.3       1 UNK         0.0000 
     30 C30         6.2407   54.6071   28.0567 C.3       1 UNK         0.0000 
     31 C31         6.9419   54.7465   22.6941 C.3       1 UNK         0.0000 
     32 H32         2.3654   52.8768   14.1913 H         1 UNK         0.0000 
     33 H33         1.0278   51.9279   14.8144 H         1 UNK         0.0000 
     34 H34         2.5828   51.1423   14.5181 H         1 UNK         0.0000 
     35 H35         4.0226   53.8135   15.7342 H         1 UNK         0.0000 
     36 H36         4.7300   54.2772   17.9960 H         1 UNK         0.0000 
     37 H37         1.1602   50.9649   17.1588 H         1 UNK         0.0000 
     38 H38         2.3482   50.6053   20.3650 H         1 UNK         0.0000 
     39 H39         1.1520   51.8963   20.4979 H         1 UNK         0.0000 
     40 H40         0.8469   50.5194   19.4348 H         1 UNK         0.0000 
     41 H41         3.2152   52.5032   20.9316 H         1 UNK         0.0000 
     42 H42         3.6668   53.9329   26.6958 H         1 UNK         0.0000 
     43 H43         1.9819   55.3400   27.9282 H         1 UNK         0.0000 
     44 H44         1.2617   55.2927   30.2905 H         1 UNK         0.0000 
     45 H45         0.3163   53.1655   31.2236 H         1 UNK         0.0000 
     46 H46         5.6780   54.2616   28.9239 H         1 UNK         0.0000 
     47 H47         7.2434   54.1794   28.0937 H         1 UNK         0.0000 
     48 H48         6.3157   55.6937   28.0951 H         1 UNK         0.0000 
     49 H49         7.2187   55.7603   22.9834 H         1 UNK         0.0000 
     50 H50         7.6723   54.0961   23.1755 H         1 UNK         0.0000 
     51 H51         7.1195   54.6602   21.6254 H         1 UNK         0.0000 
@<TRIPOS>BOND
     1    1    2 1    
     2    1   32 1    
     3    1   33 1    
     4    1   34 1    
     5    2    7 ar   
     6    2    3 ar   
     7    3    4 ar   
     8    3   35 1    
     9    4    5 ar   
    10    4   36 1    
    11    5    6 ar   
    12    5    9 1    
    13    6    7 ar   
    14    6    8 1    
    15    7   37 1    
    16    8   38 1    
    17    8   39 1    
    18    8   40 1    
    19    9   10 am   BACKBONE|DICT|INTERRES
    20    9   41 1    
    21   10   11 2    
    22   10   12 1    
    23   12   16 1    
    24   12   13 2    
    25   13   14 1    
    26   13   31 1    
    27   14   15 2    
    28   14   27 1    
    29   15   16 1    
    30   15   17 am   BACKBONE|DICT|INTERRES
    31   17   18 am   BACKBONE|DICT|INTERRES
    32   17   42 1    
    33   18   19 2    
    34   18   20 1    
    35   20   25 ar   
    36   20   21 ar   
    37   21   22 ar   
    38   21   43 1    
    39   22   23 ar   
    40   22   44 1    
    41   23   24 ar   
    42   23   45 1    
    43   24   25 ar   
    44   25   26 1    
    45   27   28 2    
    46   27   29 1    
    47   29   30 1    
    48   30   46 1    
    49   30   47 1    
    50   30   48 1    
    51   31   49 1    
    52   31   50 1    
    53   31   51 1    
@<TRIPOS>SUBSTRUCTURE
     1 UNK         1 GROUP             0       ****    0 ROOT    
