ZINC33069412_2313
                    3D
 Schrodinger Suite 2024-2.
 64 67  0  0  1  0            999 V2000
    6.7087   55.3371   26.0656 C   0  0  0  0  0  0
    5.8421   54.8001   24.9513 C   0  0  0  0  0  0
    4.5401   54.2627   24.9697 C   0  0  0  0  0  0
    4.1928   54.0964   23.6264 C   0  0  0  0  0  0
    5.3133   54.4954   22.8993 N   0  0  0  0  0  0
    6.3043   54.8723   23.7274 N   0  0  0  0  0  0
    5.5459   54.6260   21.4946 C   0  0  0  0  0  0
    5.1053   53.6620   20.5771 C   0  0  0  0  0  0
    5.3604   53.8062   19.2170 C   0  0  0  0  0  0
    6.0589   54.9187   18.7594 C   0  0  0  0  0  0
    6.5183   55.8817   19.6516 C   0  0  0  0  0  0
    6.2735   55.7309   21.0133 C   0  0  0  0  0  0
    2.9920   53.7253   23.0782 N   0  0  0  0  0  0
    1.7516   54.4549   23.3892 C   0  0  0  0  0  0
    0.6590   53.6107   24.0815 C   0  0  0  0  0  0
    0.3916   52.3108   23.3020 C   0  0  0  0  0  0
    1.7101   51.5334   23.1349 C   0  0  0  0  0  0
    2.7532   52.4209   22.4426 C   0  0  0  0  0  0
   -0.6526   51.3992   23.9843 C   0  0  0  0  0  0
   -1.2379   51.7712   25.0045 O   0  0  0  0  0  0
   -0.9382   50.2442   23.3482 N   0  0  0  0  0  0
   -1.6927   49.2029   23.8976 C   0  0  0  0  0  0
   -2.8396   48.7695   23.2272 C   0  0  0  0  0  0
   -3.5911   47.7119   23.7427 C   0  0  0  0  0  0
   -3.1915   47.0761   24.9178 C   0  0  0  0  0  0
   -2.0270   47.4830   25.5687 C   0  0  0  0  0  0
   -1.2696   48.5383   25.0597 C   0  0  0  0  0  0
   -0.1209   48.8959   25.6808 F   0  0  0  0  0  0
   -4.7070   47.2999   23.1010 F   0  0  0  0  0  0
    3.6670   54.0807   26.0338 N   0  0  0  0  0  0
    3.9859   53.6965   27.2878 C   0  0  0  0  0  0
    5.1232   53.4120   27.6680 O   0  0  0  0  0  0
    2.8065   53.6186   28.2804 C   0  0  0  0  0  0
    2.8831   52.3721   29.1904 C   0  0  0  0  0  0
    2.7178   54.9139   29.1143 C   0  0  0  0  0  0
    6.1349   55.6517   26.9367 H   0  0  0  0  0  0
    7.4308   54.5940   26.4036 H   0  0  0  0  0  0
    7.2544   56.2179   25.7344 H   0  0  0  0  0  0
    4.6233   52.7563   20.8817 H   0  0  0  0  0  0
    5.0351   53.0445   18.5214 H   0  0  0  0  0  0
    6.2560   55.0275   17.7031 H   0  0  0  0  0  0
    7.0654   56.7387   19.2848 H   0  0  0  0  0  0
    6.6370   56.4896   21.6912 H   0  0  0  0  0  0
    1.9955   55.2965   24.0394 H   0  0  0  0  0  0
    1.3671   54.8970   22.4803 H   0  0  0  0  0  0
    0.9916   53.4264   25.1044 H   0  0  0  0  0  0
   -0.2388   54.2285   24.0816 H   0  0  0  0  0  0
    0.0035   52.4950   22.2972 H   0  0  0  0  0  0
    1.5951   50.6618   22.4872 H   0  0  0  0  0  0
    2.1538   51.2365   24.0846 H   0  0  0  0  0  0
    2.4838   52.5928   21.3979 H   0  0  0  0  0  0
    3.6837   51.8603   22.4363 H   0  0  0  0  0  0
   -0.5767   50.1053   22.4175 H   0  0  0  0  0  0
   -3.1589   49.2575   22.3191 H   0  0  0  0  0  0
   -3.7849   46.2725   25.3257 H   0  0  0  0  0  0
   -1.7048   46.9967   26.4796 H   0  0  0  0  0  0
    2.6874   54.0900   25.7963 H   0  0  0  0  0  0
    1.8790   53.5314   27.7107 H   0  0  0  0  0  0
    2.8931   51.4512   28.6050 H   0  0  0  0  0  0
    3.7832   52.3792   29.8089 H   0  0  0  0  0  0
    2.0233   52.3186   29.8590 H   0  0  0  0  0  0
    2.5558   55.7878   28.4820 H   0  0  0  0  0  0
    1.8892   54.8714   29.8207 H   0  0  0  0  0  0
    3.6317   55.0914   29.6832 H   0  0  0  0  0  0
  1  2  1  0  0  0
  1 36  1  0  0  0
  1 37  1  0  0  0
  1 38  1  0  0  0
  2  6  2  0  0  0
  2  3  1  0  0  0
  3  4  2  0  0  0
  3 30  1  0  0  0
  4  5  1  0  0  0
  4 13  1  0  0  0
  5  6  1  0  0  0
  5  7  1  0  0  0
  7 12  2  0  0  0
  7  8  1  0  0  0
  8  9  2  0  0  0
  8 39  1  0  0  0
  9 10  1  0  0  0
  9 40  1  0  0  0
 10 11  2  0  0  0
 10 41  1  0  0  0
 11 12  1  0  0  0
 11 42  1  0  0  0
 12 43  1  0  0  0
 13 18  1  0  0  0
 13 14  1  0  0  0
 14 15  1  0  0  0
 14 44  1  0  0  0
 14 45  1  0  0  0
 15 16  1  0  0  0
 15 46  1  0  0  0
 15 47  1  0  0  0
 16 17  1  0  0  0
 16 19  1  0  0  0
 16 48  1  0  0  0
 17 18  1  0  0  0
 17 49  1  0  0  0
 17 50  1  0  0  0
 18 51  1  0  0  0
 18 52  1  0  0  0
 19 20  2  0  0  0
 19 21  1  0  0  0
 21 22  1  0  0  0
 21 53  1  0  0  0
 22 27  2  0  0  0
 22 23  1  0  0  0
 23 24  2  0  0  0
 23 54  1  0  0  0
 24 25  1  0  0  0
 24 29  1  0  0  0
 25 26  2  0  0  0
 25 55  1  0  0  0
 26 27  1  0  0  0
 26 56  1  0  0  0
 27 28  1  0  0  0
 30 31  1  0  0  0
 30 57  1  0  0  0
 31 32  2  0  0  0
 31 33  1  0  0  0
 33 34  1  0  0  0
 33 35  1  0  0  0
 33 58  1  0  0  0
 34 59  1  0  0  0
 34 60  1  0  0  0
 34 61  1  0  0  0
 35 62  1  0  0  0
 35 63  1  0  0  0
 35 64  1  0  0  0
M  END
> <i_i_glide_confnum>
211

> <i_i_glide_lignum>
2314

> <i_i_glide_posenum>
337

> <i_i_glide_rotatable_bonds>
8

> <i_m_Source_File_Index>
1232

> <b_m_subgroup_collapsed>
0

> <r_i_docking_score>
-5.01579

> <r_i_glide_ecoul>
2.00281

> <r_i_glide_eff_state_penalty>
0

> <r_i_glide_einternal>
7.67409

> <r_i_glide_emodel>
-54.2873

> <r_i_glide_energy>
-44.043

> <r_i_glide_erotb>
0.61243

> <r_i_glide_esite>
-0.0983369

> <r_i_glide_evdw>
-46.0458

> <r_i_glide_gscore>
-5.01579

> <r_i_glide_hbond>
0

> <r_i_glide_ligand_efficiency>
-0.143308

> <r_i_glide_ligand_efficiency_ln>
-1.10108

> <r_i_glide_ligand_efficiency_sa>
-0.468771

> <r_i_glide_lipo>
-2.69391

> <r_i_glide_metal>
0

> <r_i_glide_rewards>
-0.83411

> <s_i_glide_gridfile>
wee1_glide-grid

> <s_m_Source_File>
wee1_decoys_glide_SP.sdf

> <s_m_Source_Path>
/Users/zhangxujun/Desktop

> <s_m_entry_id>
1507

> <s_m_entry_name>
wee1_decoys_glide_SP.1232

> <s_m_subgroup_title>
wee1_decoys_glide_SP

> <s_m_subgroupid>
wee1_decoys_glide_SP


$$$$
