@<TRIPOS>MOLECULE
ZINC19317396_5146
65   68    1
SMALL
USER_CHARGES


@<TRIPOS>ATOM
      1 C1          1.9562   52.4260   29.6832 C.3       1 UNK         0.0000 
      2 C2          2.9017   53.4790   29.0475 C.3       1 UNK         0.0000 
      3 C3          2.3722   54.8959   29.4068 C.3       1 UNK         0.0000 
      4 C4          4.2924   53.3025   29.7072 C.3       1 UNK         0.0000 
      5 C5          2.9974   53.2633   27.4882 C.3       1 UNK         0.0000 
      6 H6          3.2832   52.2203   27.3499 H         1 UNK         0.0000 
      7 C7          1.6416   53.4701   26.7559 C.3       1 UNK         0.0000 
      8 C8          1.6574   53.0712   25.2670 C.3       1 UNK         0.0000 
      9 C9          2.9055   53.6405   24.6190 C.2       1 UNK         0.0000 
     10 C10         4.0282   54.0967   25.3111 C.2       1 UNK         0.0000 
     11 C11         5.0794   54.4115   24.4429 C.2       1 UNK         0.0000 
     12 C12         4.7788   54.2538   23.0914 C.2       1 UNK         0.0000 
     13 S13         3.1396   53.6978   22.9027 S.3       1 UNK         0.0000 
     14 C14         5.6479   54.6057   21.9562 C.ar      1 UNK         0.0000 
     15 N15         6.7046   55.3667   22.1075 N.2       1 UNK         0.0000 
     16 N16         7.2576   55.5941   20.8564 N.2       1 UNK         0.0000 
     17 C17         6.5344   54.9297   19.9908 C.ar      1 UNK         0.0000 
     18 N18         5.5044   54.2608   20.6238 N.pl3     1 UNK         0.0000 
     19 C19         4.5336   53.3562   20.0196 C.3       1 UNK         0.0000 
     20 S20         6.8593   54.9316   18.2619 S.3       1 UNK         0.0000 
     21 C21         6.1326   56.5654   17.8812 C.3       1 UNK         0.0000 
     22 C22         4.6325   56.5371   17.5543 C.2       1 UNK         0.0000 
     23 O23         3.9070   55.6959   18.0813 O.2       1 UNK         0.0000 
     24 N24         4.1900   57.5036   16.7221 N.am      1 UNK         0.0000 
     25 C25         2.8882   57.7056   16.2248 C.ar      1 UNK         0.0000 
     26 C26         1.8717   56.7361   16.2307 C.ar      1 UNK         0.0000 
     27 C27         0.6109   57.0405   15.7259 C.ar      1 UNK         0.0000 
     28 C28         0.3482   58.3065   15.2101 C.ar      1 UNK         0.0000 
     29 C29         1.3467   59.2938   15.1847 C.ar      1 UNK         0.0000 
     30 C30         2.6207   58.9663   15.6827 C.ar      1 UNK         0.0000 
     31 C31         1.0178   60.6712   14.6440 C.2       1 UNK         0.0000 
     32 O32        -0.0328   60.8714   14.0302 O.2       1 UNK         0.0000 
     33 N33         1.9055   61.6535   14.8841 N.am      1 UNK         0.0000 
     34 C34         1.7407   63.0308   14.4434 C.3       1 UNK         0.0000 
     35 C35         4.1098   54.1414   26.8316 C.3       1 UNK         0.0000 
     36 H36         1.9934   52.4546   30.7735 H         1 UNK         0.0000 
     37 H37         2.2195   51.4135   29.3775 H         1 UNK         0.0000 
     38 H38         0.9124   52.5862   29.4117 H         1 UNK         0.0000 
     39 H39         3.0066   55.6917   29.0199 H         1 UNK         0.0000 
     40 H40         1.3649   55.0681   29.0314 H         1 UNK         0.0000 
     41 H41         2.3173   55.0421   30.4820 H         1 UNK         0.0000 
     42 H42         4.9919   54.0856   29.4081 H         1 UNK         0.0000 
     43 H43         4.2265   53.3416   30.7933 H         1 UNK         0.0000 
     44 H44         4.7403   52.3420   29.4475 H         1 UNK         0.0000 
     45 H45         0.8601   52.8815   27.2304 H         1 UNK         0.0000 
     46 H46         1.3200   54.4967   26.8829 H         1 UNK         0.0000 
     47 H47         1.6538   51.9840   25.1765 H         1 UNK         0.0000 
     48 H48         0.7559   53.4308   24.7701 H         1 UNK         0.0000 
     49 H49         6.0380   54.7671   24.7939 H         1 UNK         0.0000 
     50 H50         4.8660   53.0342   19.0304 H         1 UNK         0.0000 
     51 H51         4.4077   52.4704   20.6476 H         1 UNK         0.0000 
     52 H52         3.5762   53.8745   19.9159 H         1 UNK         0.0000 
     53 H53         6.3062   57.2604   18.7022 H         1 UNK         0.0000 
     54 H54         6.6771   56.9499   17.0182 H         1 UNK         0.0000 
     55 H55         4.8483   58.2264   16.4739 H         1 UNK         0.0000 
     56 H56         2.0325   55.7425   16.6172 H         1 UNK         0.0000 
     57 H57        -0.1681   56.2920   15.7377 H         1 UNK         0.0000 
     58 H58        -0.6445   58.5158   14.8371 H         1 UNK         0.0000 
     59 H59         3.4179   59.6971   15.6760 H         1 UNK         0.0000 
     60 H60         2.7334   61.4646   15.4492 H         1 UNK         0.0000 
     61 H61         2.6172   63.6146   14.7228 H         1 UNK         0.0000 
     62 H62         1.6271   63.0829   13.3584 H         1 UNK         0.0000 
     63 H63         0.8654   63.4862   14.9086 H         1 UNK         0.0000 
     64 H64         4.0315   55.1830   27.1367 H         1 UNK         0.0000 
     65 H65         5.0975   53.7994   27.1444 H         1 UNK         0.0000 
@<TRIPOS>BOND
     1    1    2 1    
     2    1   36 1    
     3    1   37 1    
     4    1   38 1    
     5    2    3 1    
     6    2    4 1    
     7    2    5 1    
     8    3   39 1    
     9    3   40 1    
    10    3   41 1    
    11    4   42 1    
    12    4   43 1    
    13    4   44 1    
    14    5    6 1    
    15    5   35 1    
    16    5    7 1    
    17    7    8 1    
    18    7   45 1    
    19    7   46 1    
    20    8    9 1    
    21    8   47 1    
    22    8   48 1    
    23    9   13 1    
    24    9   10 2    
    25   10   11 1    
    26   10   35 1    
    27   11   12 2    
    28   11   49 1    
    29   12   13 1    
    30   12   14 1    
    31   14   18 ar   
    32   14   15 ar   
    33   15   16 ar   
    34   16   17 ar   
    35   17   18 ar   
    36   17   20 1    
    37   18   19 1    
    38   19   50 1    
    39   19   51 1    
    40   19   52 1    
    41   20   21 1    
    42   21   22 1    
    43   21   53 1    
    44   21   54 1    
    45   22   23 2    
    46   22   24 am   BACKBONE|DICT|INTERRES
    47   24   25 1    
    48   24   55 1    
    49   25   30 ar   
    50   25   26 ar   
    51   26   27 ar   
    52   26   56 1    
    53   27   28 ar   
    54   27   57 1    
    55   28   29 ar   
    56   28   58 1    
    57   29   30 ar   
    58   29   31 1    
    59   30   59 1    
    60   31   32 2    
    61   31   33 am   BACKBONE|DICT|INTERRES
    62   33   34 1    
    63   33   60 1    
    64   34   61 1    
    65   34   62 1    
    66   34   63 1    
    67   35   64 1    
    68   35   65 1    
@<TRIPOS>SUBSTRUCTURE
     1 UNK         1 GROUP             0       ****    0 ROOT    
