@<TRIPOS>MOLECULE
ZINC39963244_3583
38   40    1
SMALL
USER_CHARGES


@<TRIPOS>ATOM
      1 C1          4.4524   52.9370   28.8075 C.3       1 UNK         0.0000 
      2 C2          4.1381   53.3989   27.3788 C.3       1 UNK         0.0000 
      3 C3          2.6680   53.1552   26.9720 C.3       1 UNK         0.0000 
      4 C4          2.3253   53.4376   25.5146 C.2       1 UNK         0.0000 
      5 C5          1.4838   52.8317   24.6695 C.2       1 UNK         0.0000 
      6 C6          0.5932   51.5954   24.7145 C.3       1 UNK         0.0000 
      7 H7          1.1031   50.8564   25.3308 H         1 UNK         0.0000 
      8 C8          0.5800   50.9702   23.3133 C.2       1 UNK         0.0000 
      9 C9          1.2160   51.5344   22.2587 C.2       1 UNK         0.0000 
     10 O10         1.8980   52.7126   22.2690 O.3       1 UNK         0.0000 
     11 C11         1.6083   53.5745   23.3792 C.3       1 UNK         0.0000 
     12 H12         0.7053   54.1330   23.1348 H         1 UNK         0.0000 
     13 N13         2.6616   54.4967   23.6431 N.2       1 UNK         0.0000 
     14 N14         3.0208   54.4003   24.8584 N.2       1 UNK         0.0000 
     15 N15         1.3109   51.0221   20.9938 N.pl3     1 UNK         0.0000 
     16 C16        -0.1097   49.7308   23.1459 C.1       1 UNK         0.0000 
     17 N17        -0.6721   48.7337   22.9792 N.1       1 UNK         0.0000 
     18 C18        -0.7882   51.8309   25.3478 C.ar      1 UNK         0.0000 
     19 C19        -1.7480   52.6209   24.6985 C.ar      1 UNK         0.0000 
     20 C20        -3.0053   52.8255   25.2763 C.ar      1 UNK         0.0000 
     21 C21        -3.3392   52.1943   26.4711 C.ar      1 UNK         0.0000 
     22 C22        -2.4015   51.3991   27.1198 C.ar      1 UNK         0.0000 
     23 C23        -1.1284   51.2424   26.5778 C.ar      1 UNK         0.0000 
     24 O24        -0.2309   50.4967   27.2817 O.3       1 UNK         0.0000 
     25 Br25       -4.2626   54.0079   24.4817 Br        1 UNK         0.0000 
     26 H26         5.5046   53.1012   29.0390 H         1 UNK         0.0000 
     27 H27         3.8596   53.4834   29.5416 H         1 UNK         0.0000 
     28 H28         4.2491   51.8737   28.9354 H         1 UNK         0.0000 
     29 H29         4.3707   54.4615   27.2918 H         1 UNK         0.0000 
     30 H30         4.8076   52.8950   26.6817 H         1 UNK         0.0000 
     31 H31         2.3777   52.1278   27.1973 H         1 UNK         0.0000 
     32 H32         2.0229   53.7867   27.5839 H         1 UNK         0.0000 
     33 H33         0.8633   50.1486   20.7575 H         1 UNK         0.0000 
     34 H34         2.0286   51.3566   20.3664 H         1 UNK         0.0000 
     35 H35        -1.5103   53.1003   23.7607 H         1 UNK         0.0000 
     36 H36        -4.3161   52.3408   26.9075 H         1 UNK         0.0000 
     37 H37        -2.6554   50.9222   28.0566 H         1 UNK         0.0000 
     38 H38        -0.6846   49.7800   27.7598 H         1 UNK         0.0000 
@<TRIPOS>BOND
     1    1    2 1    
     2    1   26 1    
     3    1   27 1    
     4    1   28 1    
     5    2    3 1    
     6    2   29 1    
     7    2   30 1    
     8    3    4 1    
     9    3   31 1    
    10    3   32 1    
    11    4   14 1    
    12    4    5 2    
    13    5   11 1    
    14    5    6 1    
    15    6    7 1    
    16    6    8 1    
    17    6   18 1    
    18    8    9 2    
    19    8   16 1    
    20    9   10 1    
    21    9   15 1    
    22   10   11 1    
    23   11   12 1    
    24   11   13 1    
    25   13   14 2    
    26   15   33 1    
    27   15   34 1    
    28   16   17 3    
    29   18   23 ar   
    30   18   19 ar   
    31   19   20 ar   
    32   19   35 1    
    33   20   21 ar   
    34   20   25 1    
    35   21   22 ar   
    36   21   36 1    
    37   22   23 ar   
    38   22   37 1    
    39   23   24 1    
    40   24   38 1    
@<TRIPOS>SUBSTRUCTURE
     1 UNK         1 GROUP             0       ****    0 ROOT    
