@<TRIPOS>MOLECULE
ZINC13389883_5943
64   66    1
SMALL
USER_CHARGES


@<TRIPOS>ATOM
      1 C1          2.5122   54.0747   22.9989 C.3       1 UNK         0.0000 
      2 C2          2.6014   53.8851   24.5058 C.ar      1 UNK         0.0000 
      3 C3          3.6746   54.4938   25.1623 C.ar      1 UNK         0.0000 
      4 C4          3.8187   54.4026   26.5430 C.ar      1 UNK         0.0000 
      5 C5          2.8889   53.6948   27.3160 C.ar      1 UNK         0.0000 
      6 C6          1.8259   53.0675   26.6482 C.ar      1 UNK         0.0000 
      7 C7          1.6650   53.1430   25.2567 C.ar      1 UNK         0.0000 
      8 S8          0.2158   52.3182   24.5357 S.o2      1 UNK         0.0000 
      9 O9         -0.5074   51.6857   25.6450 O.2       1 UNK         0.0000 
     10 O10        -0.4597   53.2967   23.6818 O.2       1 UNK         0.0000 
     11 N11         0.8637   51.0367   23.4962 N.pl3     1 UNK         0.0000 
     12 C12         1.0060   51.2255   22.0308 C.3       1 UNK         0.0000 
     13 C13        -0.0131   50.3720   21.2512 C.3       1 UNK         0.0000 
     14 C14         0.0428   48.8965   21.7365 C.3       1 UNK         0.0000 
     15 C15        -0.1304   48.7610   23.2814 C.3       1 UNK         0.0000 
     16 C16         0.9318   49.6425   23.9832 C.3       1 UNK         0.0000 
     17 C17        -0.8957   48.0251   20.8652 C.2       1 UNK         0.0000 
     18 O18        -0.7711   48.0670   19.6411 O.2       1 UNK         0.0000 
     19 N19        -1.8516   47.2821   21.4572 N.am      1 UNK         0.0000 
     20 C20        -2.8613   46.4568   20.7603 C.3       1 UNK         0.0000 
     21 H21        -3.4821   46.0663   21.5688 H         1 UNK         0.0000 
     22 C22        -2.2608   45.2297   19.9871 C.3       1 UNK         0.0000 
     23 C23        -1.6938   44.1286   20.8990 C.2       1 UNK         0.0000 
     24 O24        -2.0957   44.0853   22.0817 O.co2     1 UNK         0.0000 
     25 C25        -3.8535   47.2962   19.9410 C.2       1 UNK         0.0000 
     26 C26        -4.0771   48.6799   19.9525 C.2       1 UNK         0.0000 
     27 C27        -5.0892   49.1256   19.0990 C.2       1 UNK         0.0000 
     28 C28        -5.6893   48.0905   18.4118 C.2       1 UNK         0.0000 
     29 S29        -4.9948   46.5643   18.8334 S.3       1 UNK         0.0000 
     30 C30         2.9939   53.5948   28.8600 C.3       1 UNK         0.0000 
     31 C31         4.2114   54.3595   29.4440 C.3       1 UNK         0.0000 
     32 C32         3.1463   52.1148   29.2822 C.3       1 UNK         0.0000 
     33 C33         1.7137   54.1823   29.5045 C.3       1 UNK         0.0000 
     34 H34         3.1418   54.8965   22.6564 H         1 UNK         0.0000 
     35 H35         2.8337   53.1724   22.4823 H         1 UNK         0.0000 
     36 H36         1.5045   54.3300   22.6793 H         1 UNK         0.0000 
     37 H37         4.4085   55.0528   24.6006 H         1 UNK         0.0000 
     38 H38         4.6623   54.9023   26.9919 H         1 UNK         0.0000 
     39 H39         1.1061   52.5138   27.2320 H         1 UNK         0.0000 
     40 H40         0.8460   52.2748   21.7864 H         1 UNK         0.0000 
     41 H41         2.0333   50.9880   21.7511 H         1 UNK         0.0000 
     42 H42        -0.9919   50.8119   21.4530 H         1 UNK         0.0000 
     43 H43         0.2486   50.4700   20.1955 H         1 UNK         0.0000 
     44 H44         1.0211   48.5118   21.4417 H         1 UNK         0.0000 
     45 H45         0.0343   47.7442   23.6429 H         1 UNK         0.0000 
     46 H46        -1.1038   49.1321   23.6082 H         1 UNK         0.0000 
     47 H47         1.9480   49.2967   23.8081 H         1 UNK         0.0000 
     48 H48         0.7784   49.6288   25.0629 H         1 UNK         0.0000 
     49 H49        -1.9251   47.3205   22.4622 H         1 UNK         0.0000 
     50 H50        -3.0260   44.7337   19.3935 H         1 UNK         0.0000 
     51 H51        -1.4922   45.5498   19.2838 H         1 UNK         0.0000 
     52 H52        -3.5075   49.3557   20.5725 H         1 UNK         0.0000 
     53 H53        -5.3727   50.1627   18.9924 H         1 UNK         0.0000 
     54 H54        -6.4946   48.1473   17.6944 H         1 UNK         0.0000 
     55 H55         4.3027   54.2193   30.5204 H         1 UNK         0.0000 
     56 H56         4.1324   55.4318   29.2721 H         1 UNK         0.0000 
     57 H57         5.1533   54.0163   29.0137 H         1 UNK         0.0000 
     58 H58         2.3213   51.4917   28.9340 H         1 UNK         0.0000 
     59 H59         4.0693   51.6963   28.8817 H         1 UNK         0.0000 
     60 H60         3.1897   52.0113   30.3670 H         1 UNK         0.0000 
     61 H61         0.8143   53.6439   29.2040 H         1 UNK         0.0000 
     62 H62         1.7496   54.1367   30.5922 H         1 UNK         0.0000 
     63 H63         1.5725   55.2283   29.2272 H         1 UNK         0.0000 
     64 O64        -0.9019   43.2968   20.3986 O.co2     1 UNK         0.0000 
@<TRIPOS>BOND
     1    1    2 1    
     2    1   34 1    
     3    1   35 1    
     4    1   36 1    
     5    2    7 ar   
     6    2    3 ar   
     7    3    4 ar   
     8    3   37 1    
     9    4    5 ar   
    10    4   38 1    
    11    5    6 ar   
    12    5   30 1    
    13    6    7 ar   
    14    6   39 1    
    15    7    8 1    
    16    8    9 2    
    17    8   10 2    
    18    8   11 1    
    19   11   16 1    
    20   11   12 1    
    21   12   13 1    
    22   12   40 1    
    23   12   41 1    
    24   13   14 1    
    25   13   42 1    
    26   13   43 1    
    27   14   15 1    
    28   14   17 1    
    29   14   44 1    
    30   15   16 1    
    31   15   45 1    
    32   15   46 1    
    33   16   47 1    
    34   16   48 1    
    35   17   18 2    
    36   17   19 am   BACKBONE|DICT|INTERRES
    37   19   20 1    
    38   19   49 1    
    39   20   21 1    
    40   20   22 1    
    41   20   25 1    
    42   22   23 1    
    43   22   50 1    
    44   22   51 1    
    45   23   24 2    
    46   23   64 1    
    47   25   29 1    
    48   25   26 2    
    49   26   27 1    
    50   26   52 1    
    51   27   28 2    
    52   27   53 1    
    53   28   29 1    
    54   28   54 1    
    55   30   31 1    
    56   30   32 1    
    57   30   33 1    
    58   31   55 1    
    59   31   56 1    
    60   31   57 1    
    61   32   58 1    
    62   32   59 1    
    63   32   60 1    
    64   33   61 1    
    65   33   62 1    
    66   33   63 1    
@<TRIPOS>SUBSTRUCTURE
     1 UNK         1 GROUP             0       ****    0 ROOT    
