@<TRIPOS>MOLECULE
ZINC40302529_3585
36   37    1
SMALL
USER_CHARGES


@<TRIPOS>ATOM
      1 C1          7.1571   56.7889   17.8529 C.3       1 UNK         0.0000 
      2 N2          7.7815   55.7151   18.6212 N.pl3     1 UNK         0.0000 
      3 C3          9.2298   55.8287   18.7623 C.3       1 UNK         0.0000 
      4 C4          7.0254   55.2963   19.7448 C.ar      1 UNK         0.0000 
      5 C5          7.4472   55.6093   21.0458 C.ar      1 UNK         0.0000 
      6 C6          6.7044   55.2207   22.1571 C.ar      1 UNK         0.0000 
      7 C7          5.5077   54.4967   22.0089 C.ar      1 UNK         0.0000 
      8 C8          5.0999   54.1596   20.7104 C.ar      1 UNK         0.0000 
      9 C9          5.8435   54.5383   19.5911 C.ar      1 UNK         0.0000 
     10 N10         5.3923   54.1023   18.3402 N.pl3     1 UNK         0.0000 
     11 C11         4.6505   54.0967   23.1956 C.2       1 UNK         0.0000 
     12 O12         3.5789   53.5161   23.0173 O.2       1 UNK         0.0000 
     13 N13         5.1404   54.4298   24.4107 N.am      1 UNK         0.0000 
     14 C14         4.5946   54.2401   25.6960 C.ar      1 UNK         0.0000 
     15 C15         3.2553   53.8838   25.9330 C.ar      1 UNK         0.0000 
     16 C16         2.7954   53.6913   27.2346 C.ar      1 UNK         0.0000 
     17 C17         3.6621   53.8530   28.3120 C.ar      1 UNK         0.0000 
     18 C18         4.9867   54.2218   28.0933 C.ar      1 UNK         0.0000 
     19 C19         5.4533   54.4203   26.7943 C.ar      1 UNK         0.0000 
     20 Cl20        7.1044   54.8925   26.5860 Cl        1 UNK         0.0000 
     21 Br21        3.0353   53.5676   30.0817 Br        1 UNK         0.0000 
     22 H22         6.1036   56.5914   17.6532 H         1 UNK         0.0000 
     23 H23         7.6537   56.9158   16.8899 H         1 UNK         0.0000 
     24 H24         7.2099   57.7325   18.3976 H         1 UNK         0.0000 
     25 H25         9.6330   54.9495   19.2666 H         1 UNK         0.0000 
     26 H26         9.7101   55.8894   17.7855 H         1 UNK         0.0000 
     27 H27         9.5080   56.7095   19.3410 H         1 UNK         0.0000 
     28 H28         8.3636   56.1540   21.2138 H         1 UNK         0.0000 
     29 H29         7.0870   55.5035   23.1269 H         1 UNK         0.0000 
     30 H30         4.1912   53.5909   20.5611 H         1 UNK         0.0000 
     31 H31         4.6035   53.4732   18.2802 H         1 UNK         0.0000 
     32 H32         5.9560   54.3046   17.5267 H         1 UNK         0.0000 
     33 H33         6.0615   54.8372   24.4140 H         1 UNK         0.0000 
     34 H34         2.5487   53.7526   25.1293 H         1 UNK         0.0000 
     35 H35         1.7666   53.4098   27.4058 H         1 UNK         0.0000 
     36 H36         5.6551   54.3580   28.9314 H         1 UNK         0.0000 
@<TRIPOS>BOND
     1    1    2 1    
     2    1   22 1    
     3    1   23 1    
     4    1   24 1    
     5    2    3 1    
     6    2    4 1    
     7    3   25 1    
     8    3   26 1    
     9    3   27 1    
    10    4    9 ar   
    11    4    5 ar   
    12    5    6 ar   
    13    5   28 1    
    14    6    7 ar   
    15    6   29 1    
    16    7    8 ar   
    17    7   11 1    
    18    8    9 ar   
    19    8   30 1    
    20    9   10 1    
    21   10   31 1    
    22   10   32 1    
    23   11   12 2    
    24   11   13 am   BACKBONE|DICT|INTERRES
    25   13   14 1    
    26   13   33 1    
    27   14   19 ar   
    28   14   15 ar   
    29   15   16 ar   
    30   15   34 1    
    31   16   17 ar   
    32   16   35 1    
    33   17   18 ar   
    34   17   21 1    
    35   18   19 ar   
    36   18   36 1    
    37   19   20 1    
@<TRIPOS>SUBSTRUCTURE
     1 UNK         1 GROUP             0       ****    0 ROOT    
