@<TRIPOS>MOLECULE
ZINC34667795_883
60   64    1
SMALL
USER_CHARGES


@<TRIPOS>ATOM
      1 C1         -0.2371   44.3056   16.5402 C.ar      1 UNK         0.0000 
      2 C2          0.1845   45.5037   17.1055 C.ar      1 UNK         0.0000 
      3 C3          1.3884   46.0972   16.6899 C.ar      1 UNK         0.0000 
      4 C4          2.1404   45.4884   15.6819 C.ar      1 UNK         0.0000 
      5 C5          1.7112   44.2917   15.1139 C.ar      1 UNK         0.0000 
      6 C6          0.5266   43.6890   15.5482 C.ar      1 UNK         0.0000 
      7 C7          0.0455   42.3643   14.9556 C.3       1 UNK         0.0000 
      8 F8          0.8211   41.9325   13.9597 F         1 UNK         0.0000 
      9 F9          0.0346   41.4337   15.9125 F         1 UNK         0.0000 
     10 F10        -1.1965   42.5034   14.4880 F         1 UNK         0.0000 
     11 N11         1.9052   47.2969   17.2186 N.am      1 UNK         0.0000 
     12 C12         1.5420   47.9557   18.3344 C.2       1 UNK         0.0000 
     13 O13         0.6461   47.5997   19.1031 O.2       1 UNK         0.0000 
     14 N14         2.3044   49.0527   18.5182 N.am      1 UNK         0.0000 
     15 C15         2.2872   49.9124   19.6297 C.ar      1 UNK         0.0000 
     16 C16         1.9049   49.4984   20.9157 C.ar      1 UNK         0.0000 
     17 C17         1.9002   50.4102   21.9665 C.ar      1 UNK         0.0000 
     18 C18         2.2828   51.7421   21.7464 C.ar      1 UNK         0.0000 
     19 N19         2.6712   52.0917   20.4967 N.pl3     1 UNK         0.0000 
     20 C20         2.7026   51.2356   19.4504 C.ar      1 UNK         0.0000 
     21 N21         2.2616   52.7110   22.8078 N.pl3     1 UNK         0.0000 
     22 C22         1.6901   52.3572   24.1252 C.3       1 UNK         0.0000 
     23 C23         1.7871   53.4641   25.1908 C.3       1 UNK         0.0000 
     24 N24         3.1803   53.9523   25.2387 N.am      1 UNK         0.0000 
     25 C25         3.8632   54.2495   23.9566 C.3       1 UNK         0.0000 
     26 C26         2.9204   54.0326   22.7468 C.3       1 UNK         0.0000 
     27 C27         3.9216   54.0968   26.3806 C.2       1 UNK         0.0000 
     28 O28         5.0935   54.4837   26.3501 O.2       1 UNK         0.0000 
     29 C29         3.3560   53.7023   27.7335 C.ar      1 UNK         0.0000 
     30 C30         4.1592   52.9294   28.6001 C.ar      1 UNK         0.0000 
     31 C31         3.6819   52.4802   29.8376 C.ar      1 UNK         0.0000 
     32 C32         2.3805   52.8218   30.1792 C.ar      1 UNK         0.0000 
     33 C33         1.6071   53.6159   29.3832 C.ar      1 UNK         0.0000 
     34 C34         2.0723   54.1004   28.1668 C.ar      1 UNK         0.0000 
     35 O35         0.4065   53.8277   29.9915 O.3       1 UNK         0.0000 
     36 C36         0.3792   52.9519   31.0907 C.3       1 UNK         0.0000 
     37 O37         1.6901   52.4965   31.3023 O.3       1 UNK         0.0000 
     38 H38        -1.1623   43.8588   16.8749 H         1 UNK         0.0000 
     39 H39        -0.4469   45.9496   17.8575 H         1 UNK         0.0000 
     40 H40         3.0647   45.9351   15.3466 H         1 UNK         0.0000 
     41 H41         2.3042   43.8341   14.3373 H         1 UNK         0.0000 
     42 H42         2.7205   47.6664   16.7437 H         1 UNK         0.0000 
     43 H43         2.9698   49.2938   17.7809 H         1 UNK         0.0000 
     44 H44         1.6161   48.4790   21.1196 H         1 UNK         0.0000 
     45 H45         1.5927   50.0540   22.9391 H         1 UNK         0.0000 
     46 H46         3.0493   51.6391   18.5069 H         1 UNK         0.0000 
     47 H47         0.6391   52.1293   23.9503 H         1 UNK         0.0000 
     48 H48         2.1686   51.4495   24.4820 H         1 UNK         0.0000 
     49 H49         1.4839   52.9849   26.1163 H         1 UNK         0.0000 
     50 H50         1.1260   54.2920   24.9277 H         1 UNK         0.0000 
     51 H51         4.1623   55.2964   23.9742 H         1 UNK         0.0000 
     52 H52         4.7287   53.5910   23.8511 H         1 UNK         0.0000 
     53 H53         2.1608   54.8119   22.6654 H         1 UNK         0.0000 
     54 H54         3.5226   54.0829   21.8396 H         1 UNK         0.0000 
     55 H55         5.1619   52.6453   28.3033 H         1 UNK         0.0000 
     56 H56         4.3067   51.8830   30.4851 H         1 UNK         0.0000 
     57 H57         1.4438   54.7415   27.5641 H         1 UNK         0.0000 
     58 H58         0.0056   53.4577   31.9844 H         1 UNK         0.0000 
     59 H59        -0.2687   52.0976   30.8739 H         1 UNK         0.0000 
     60 H60         2.9291   53.0554   20.3348 H         1 UNK         0.0000 
@<TRIPOS>BOND
     1    1    6 ar   
     2    1    2 ar   
     3    1   38 1    
     4    2    3 ar   
     5    2   39 1    
     6    3    4 ar   
     7    3   11 1    
     8    4    5 ar   
     9    4   40 1    
    10    5    6 ar   
    11    5   41 1    
    12    6    7 1    
    13    7    8 1    
    14    7    9 1    
    15    7   10 1    
    16   11   12 am   BACKBONE|DICT|INTERRES
    17   11   42 1    
    18   12   13 2    
    19   12   14 am   BACKBONE|DICT|INTERRES
    20   14   15 1    
    21   14   43 1    
    22   15   20 ar   
    23   15   16 ar   
    24   16   17 ar   
    25   16   44 1    
    26   17   18 ar   
    27   17   45 1    
    28   18   19 ar   
    29   18   21 1    
    30   19   20 ar   
    31   19   60 1    
    32   20   46 1    
    33   21   26 1    
    34   21   22 1    
    35   22   23 1    
    36   22   47 1    
    37   22   48 1    
    38   23   24 1    
    39   23   49 1    
    40   23   50 1    
    41   24   25 1    
    42   24   27 am   BACKBONE|DICT|INTERRES
    43   25   26 1    
    44   25   51 1    
    45   25   52 1    
    46   26   53 1    
    47   26   54 1    
    48   27   28 2    
    49   27   29 1    
    50   29   34 ar   
    51   29   30 ar   
    52   30   31 ar   
    53   30   55 1    
    54   31   32 ar   
    55   31   56 1    
    56   32   37 1    
    57   32   33 ar   
    58   33   34 ar   
    59   33   35 1    
    60   34   57 1    
    61   35   36 1    
    62   36   37 1    
    63   36   58 1    
    64   36   59 1    
@<TRIPOS>SUBSTRUCTURE
     1 UNK         1 GROUP             0       ****    0 ROOT    
