@<TRIPOS>MOLECULE
ZINC36071907_5811
67   70    1
SMALL
USER_CHARGES


@<TRIPOS>ATOM
      1 C1         -4.3799   53.0737   25.3036 C.3       1 UNK         0.0000 
      2 C2         -2.9624   52.6535   24.9660 C.ar      1 UNK         0.0000 
      3 C3         -2.4628   52.8649   23.6835 C.ar      1 UNK         0.0000 
      4 C4         -1.1562   52.4968   23.3728 C.ar      1 UNK         0.0000 
      5 C5         -0.3202   51.9201   24.3362 C.ar      1 UNK         0.0000 
      6 C6         -0.8329   51.6843   25.6309 C.ar      1 UNK         0.0000 
      7 C7         -2.1465   52.0635   25.9326 C.ar      1 UNK         0.0000 
      8 C8         -0.0174   51.0086   26.7298 C.3       1 UNK         0.0000 
      9 C9          1.1078   51.5197   23.9175 C.3       1 UNK         0.0000 
     10 H10         1.5043   50.8981   24.7132 H         1 UNK         0.0000 
     11 C11         2.0955   52.7102   23.6756 C.2       1 UNK         0.0000 
     12 C12         2.6581   52.8989   22.4375 C.2       1 UNK         0.0000 
     13 N13         2.3387   52.1389   21.3502 N.2       1 UNK         0.0000 
     14 C14         1.6530   51.0795   21.5264 C.2       1 UNK         0.0000 
     15 N15         1.1078   50.6226   22.7237 N.pl3     1 UNK         0.0000 
     16 C16         0.4605   49.3999   22.6488 C.2       1 UNK         0.0000 
     17 C17         0.3288   48.9809   21.3769 C.2       1 UNK         0.0000 
     18 S18         1.1332   50.0191   20.2055 S.3       1 UNK         0.0000 
     19 C19        -0.0971   48.6888   23.7893 C.2       1 UNK         0.0000 
     20 C20        -1.2796   48.0491   23.8420 C.2       1 UNK         0.0000 
     21 O21        -2.1778   47.9027   22.9311 O.co2     1 UNK         0.0000 
     22 N22        -1.6640   47.4310   25.0111 N.pl3     1 UNK         0.0000 
     23 C23        -2.5528   46.2948   25.2153 C.3       1 UNK         0.0000 
     24 C24        -3.9880   46.7141   25.5838 C.3       1 UNK         0.0000 
     25 C25        -4.9430   45.5370   25.7432 C.ar      1 UNK         0.0000 
     26 C26        -6.2128   45.5435   25.1533 C.ar      1 UNK         0.0000 
     27 C27        -7.0427   44.4337   25.3390 C.ar      1 UNK         0.0000 
     28 C28        -6.5914   43.3563   26.1046 C.ar      1 UNK         0.0000 
     29 C29        -5.3124   43.4254   26.6632 C.ar      1 UNK         0.0000 
     30 N30        -4.4957   44.4946   26.4896 N.ar      1 UNK         0.0000 
     31 C31         3.6379   53.9979   22.0183 C.3       1 UNK         0.0000 
     32 C32         2.5107   53.4714   24.8701 C.2       1 UNK         0.0000 
     33 O33         1.7618   53.6857   25.8212 O.2       1 UNK         0.0000 
     34 O34         3.8238   53.8249   24.8608 O.3       1 UNK         0.0000 
     35 C35         4.4427   54.5449   25.9252 C.3       1 UNK         0.0000 
     36 C36         4.6785   53.6568   27.1624 C.3       1 UNK         0.0000 
     37 C37         5.7696   55.0844   25.3719 C.3       1 UNK         0.0000 
     38 H38        -4.5512   53.0887   26.3811 H         1 UNK         0.0000 
     39 H39        -4.5732   54.0808   24.9297 H         1 UNK         0.0000 
     40 H40        -5.0983   52.4005   24.8360 H         1 UNK         0.0000 
     41 H41        -3.0876   53.3066   22.9221 H         1 UNK         0.0000 
     42 H42        -0.7876   52.6576   22.3702 H         1 UNK         0.0000 
     43 H43        -2.5400   51.8848   26.9224 H         1 UNK         0.0000 
     44 H44        -0.5046   51.0796   27.7022 H         1 UNK         0.0000 
     45 H45         0.1254   49.9517   26.5097 H         1 UNK         0.0000 
     46 H46         0.9667   51.4636   26.8336 H         1 UNK         0.0000 
     47 H47        -0.1805   48.0857   21.0542 H         1 UNK         0.0000 
     48 H48         0.5161   48.6737   24.6773 H         1 UNK         0.0000 
     49 H49        -1.3016   47.8053   25.8780 H         1 UNK         0.0000 
     50 H50        -2.5536   45.6973   24.3025 H         1 UNK         0.0000 
     51 H51        -2.1112   45.6994   26.0154 H         1 UNK         0.0000 
     52 H52        -3.9759   47.2770   26.5196 H         1 UNK         0.0000 
     53 H53        -4.3696   47.3989   24.8246 H         1 UNK         0.0000 
     54 H54        -6.5498   46.3850   24.5663 H         1 UNK         0.0000 
     55 H55        -8.0290   44.4119   24.8982 H         1 UNK         0.0000 
     56 H56        -7.2175   42.4899   26.2657 H         1 UNK         0.0000 
     57 H57        -4.9232   42.6195   27.2708 H         1 UNK         0.0000 
     58 H58         4.6576   53.6305   22.1069 H         1 UNK         0.0000 
     59 H59         3.4978   54.3128   20.9843 H         1 UNK         0.0000 
     60 H60         3.5354   54.8944   22.6246 H         1 UNK         0.0000 
     61 H61         3.8074   55.3899   26.1963 H         1 UNK         0.0000 
     62 H62         5.1592   54.2222   27.9616 H         1 UNK         0.0000 
     63 H63         5.3223   52.8108   26.9210 H         1 UNK         0.0000 
     64 H64         3.7447   53.2612   27.5595 H         1 UNK         0.0000 
     65 H65         6.2892   55.6912   26.1129 H         1 UNK         0.0000 
     66 H66         6.4395   54.2713   25.0851 H         1 UNK         0.0000 
     67 H67         5.6069   55.6986   24.4869 H         1 UNK         0.0000 
@<TRIPOS>BOND
     1    1    2 1    
     2    1   38 1    
     3    1   39 1    
     4    1   40 1    
     5    2    7 ar   
     6    2    3 ar   
     7    3    4 ar   
     8    3   41 1    
     9    4    5 ar   
    10    4   42 1    
    11    5    6 ar   
    12    5    9 1    
    13    6    7 ar   
    14    6    8 1    
    15    7   43 1    
    16    8   44 1    
    17    8   45 1    
    18    8   46 1    
    19    9   10 1    
    20    9   15 1    
    21    9   11 1    
    22   11   12 2    
    23   11   32 1    
    24   12   13 1    
    25   12   31 1    
    26   13   14 2    
    27   14   18 1    
    28   14   15 1    
    29   15   16 1    
    30   16   17 2    
    31   16   19 1    
    32   17   18 1    
    33   17   47 1    
    34   19   20 2    
    35   19   48 1    
    36   20   21 1    
    37   20   22 1    
    38   22   23 1    
    39   22   49 1    
    40   23   24 1    
    41   23   50 1    
    42   23   51 1    
    43   24   25 1    
    44   24   52 1    
    45   24   53 1    
    46   25   30 ar   
    47   25   26 ar   
    48   26   27 ar   
    49   26   54 1    
    50   27   28 ar   
    51   27   55 1    
    52   28   29 ar   
    53   28   56 1    
    54   29   30 ar   
    55   29   57 1    
    56   31   58 1    
    57   31   59 1    
    58   31   60 1    
    59   32   33 2    
    60   32   34 1    
    61   34   35 1    
    62   35   36 1    
    63   35   37 1    
    64   35   61 1    
    65   36   62 1    
    66   36   63 1    
    67   36   64 1    
    68   37   65 1    
    69   37   66 1    
    70   37   67 1    
@<TRIPOS>SUBSTRUCTURE
     1 UNK         1 GROUP             0       ****    0 ROOT    
