@<TRIPOS>MOLECULE
ZINC49491760_2831
55   58    1
SMALL
USER_CHARGES


@<TRIPOS>ATOM
      1 C1          7.0602   56.1637   16.0550 C.3       1 UNK         0.0000 
      2 C2          6.3027   55.7859   17.3225 C.2       1 UNK         0.0000 
      3 O3          5.0769   55.6982   17.2785 O.2       1 UNK         0.0000 
      4 N4          7.0550   55.5995   18.4260 N.am      1 UNK         0.0000 
      5 C5          6.6256   55.2384   19.7140 C.ar      1 UNK         0.0000 
      6 C6          7.4481   55.6135   20.7748 C.ar      1 UNK         0.0000 
      7 C7          7.0808   55.3093   22.0815 C.ar      1 UNK         0.0000 
      8 C8          5.8980   54.6094   22.3548 C.ar      1 UNK         0.0000 
      9 C9          5.0990   54.1935   21.2769 C.ar      1 UNK         0.0000 
     10 C10         5.4577   54.5061   19.9684 C.ar      1 UNK         0.0000 
     11 C11         5.4945   54.3596   23.7946 C.2       1 UNK         0.0000 
     12 O12         6.3361   54.4273   24.6942 O.2       1 UNK         0.0000 
     13 N13         4.1791   54.1117   24.0002 N.am      1 UNK         0.0000 
     14 C14         3.4977   53.9461   25.2200 C.ar      1 UNK         0.0000 
     15 C15         3.9286   54.4966   26.4302 C.ar      1 UNK         0.0000 
     16 C16         3.2226   54.2429   27.6007 C.ar      1 UNK         0.0000 
     17 C17         2.0807   53.4358   27.6048 C.ar      1 UNK         0.0000 
     18 C18         1.6045   52.9157   26.3748 C.ar      1 UNK         0.0000 
     19 C19         2.3246   53.1886   25.1998 C.ar      1 UNK         0.0000 
     20 N20         0.4771   52.0447   26.3502 N.pl3     1 UNK         0.0000 
     21 C21         0.2317   51.2968   27.5887 C.3       1 UNK         0.0000 
     22 C22         0.1403   52.2707   28.7701 C.3       1 UNK         0.0000 
     23 C23         1.4277   53.0854   28.9389 C.3       1 UNK         0.0000 
     24 S24        -0.4893   51.6467   24.8840 S.o2      1 UNK         0.0000 
     25 O25        -0.2853   52.7038   23.8849 O.2       1 UNK         0.0000 
     26 O26        -0.2098   50.2431   24.5630 O.2       1 UNK         0.0000 
     27 C27        -2.2135   51.7429   25.3779 C.ar      1 UNK         0.0000 
     28 C28        -2.9676   52.8752   25.0568 C.ar      1 UNK         0.0000 
     29 C29        -4.2945   52.9631   25.4676 C.ar      1 UNK         0.0000 
     30 C30        -4.8640   51.9192   26.1926 C.ar      1 UNK         0.0000 
     31 C31        -4.1230   50.7796   26.4966 C.ar      1 UNK         0.0000 
     32 C32        -2.7978   50.6846   26.0812 C.ar      1 UNK         0.0000 
     33 F33        -6.1489   52.0130   26.6013 F         1 UNK         0.0000 
     34 H34         8.1403   56.1344   16.1990 H         1 UNK         0.0000 
     35 H35         6.7820   57.1701   15.7427 H         1 UNK         0.0000 
     36 H36         6.8052   55.4740   15.2506 H         1 UNK         0.0000 
     37 H37         8.0334   55.8286   18.3463 H         1 UNK         0.0000 
     38 H38         8.3709   56.1474   20.5983 H         1 UNK         0.0000 
     39 H39         7.7184   55.6507   22.8823 H         1 UNK         0.0000 
     40 H40         4.1876   53.6329   21.4265 H         1 UNK         0.0000 
     41 H41         4.8211   54.1664   19.1647 H         1 UNK         0.0000 
     42 H42         3.6080   54.0166   23.1756 H         1 UNK         0.0000 
     43 H43         4.8130   55.1130   26.4845 H         1 UNK         0.0000 
     44 H44         3.5931   54.6532   28.5288 H         1 UNK         0.0000 
     45 H45         2.0295   52.7435   24.2632 H         1 UNK         0.0000 
     46 H46        -0.6447   50.6548   27.5418 H         1 UNK         0.0000 
     47 H47         1.0788   50.6167   27.6901 H         1 UNK         0.0000 
     48 H48        -0.7013   52.9440   28.6035 H         1 UNK         0.0000 
     49 H49        -0.0943   51.7310   29.6894 H         1 UNK         0.0000 
     50 H50         2.1419   52.4938   29.5138 H         1 UNK         0.0000 
     51 H51         1.2312   53.9859   29.5226 H         1 UNK         0.0000 
     52 H52        -2.5342   53.6827   24.4839 H         1 UNK         0.0000 
     53 H53        -4.8833   53.8348   25.2251 H         1 UNK         0.0000 
     54 H54        -4.5733   49.9716   27.0546 H         1 UNK         0.0000 
     55 H55        -2.2317   49.7929   26.3190 H         1 UNK         0.0000 
@<TRIPOS>BOND
     1    1    2 1    
     2    1   34 1    
     3    1   35 1    
     4    1   36 1    
     5    2    3 2    
     6    2    4 am   BACKBONE|DICT|INTERRES
     7    4    5 1    
     8    4   37 1    
     9    5   10 ar   
    10    5    6 ar   
    11    6    7 ar   
    12    6   38 1    
    13    7    8 ar   
    14    7   39 1    
    15    8    9 ar   
    16    8   11 1    
    17    9   10 ar   
    18    9   40 1    
    19   10   41 1    
    20   11   12 2    
    21   11   13 am   BACKBONE|DICT|INTERRES
    22   13   14 1    
    23   13   42 1    
    24   14   19 ar   
    25   14   15 ar   
    26   15   16 ar   
    27   15   43 1    
    28   16   17 ar   
    29   16   44 1    
    30   17   23 1    
    31   17   18 ar   
    32   18   19 ar   
    33   18   20 1    
    34   19   45 1    
    35   20   21 1    
    36   20   24 1    
    37   21   22 1    
    38   21   46 1    
    39   21   47 1    
    40   22   23 1    
    41   22   48 1    
    42   22   49 1    
    43   23   50 1    
    44   23   51 1    
    45   24   25 2    
    46   24   26 2    
    47   24   27 1    
    48   27   32 ar   
    49   27   28 ar   
    50   28   29 ar   
    51   28   52 1    
    52   29   30 ar   
    53   29   53 1    
    54   30   31 ar   
    55   30   33 1    
    56   31   32 ar   
    57   31   54 1    
    58   32   55 1    
@<TRIPOS>SUBSTRUCTURE
     1 UNK         1 GROUP             0       ****    0 ROOT    
