@<TRIPOS>MOLECULE
ZINC06038236_4310
57   60    1
SMALL
USER_CHARGES


@<TRIPOS>ATOM
      1 C1          0.1966   53.3532   31.5564 C.3       1 UNK         0.0000 
      2 C2          1.1040   53.4921   30.3524 C.ar      1 UNK         0.0000 
      3 C3          1.3167   52.3965   29.5165 C.ar      1 UNK         0.0000 
      4 C4          2.1614   52.5114   28.4172 C.ar      1 UNK         0.0000 
      5 C5          2.8052   53.7222   28.1486 C.ar      1 UNK         0.0000 
      6 C6          2.5820   54.8225   28.9851 C.ar      1 UNK         0.0000 
      7 C7          1.7199   54.7123   30.0743 C.ar      1 UNK         0.0000 
      8 C8          3.6823   53.8094   26.9680 C.2       1 UNK         0.0000 
      9 C9          4.7221   54.6622   26.8119 C.2       1 UNK         0.0000 
     10 C10         5.5156   54.7978   25.6081 C.2       1 UNK         0.0000 
     11 O11         6.6696   55.2252   25.6592 O.2       1 UNK         0.0000 
     12 N12         4.8565   54.4474   24.4823 N.am      1 UNK         0.0000 
     13 C13         5.2454   54.4956   23.1464 C.2       1 UNK         0.0000 
     14 C14         4.5203   53.9474   22.0677 C.2       1 UNK         0.0000 
     15 C15         5.1332   54.2435   20.8129 C.2       1 UNK         0.0000 
     16 C16         6.3142   54.9865   20.9699 C.2       1 UNK         0.0000 
     17 S17         6.7051   55.2769   22.6239 S.3       1 UNK         0.0000 
     18 C18         7.2310   55.4445   19.8450 C.3       1 UNK         0.0000 
     19 C19         6.4461   55.4250   18.5197 C.3       1 UNK         0.0000 
     20 C20         5.7091   54.0923   18.3325 C.3       1 UNK         0.0000 
     21 C21         4.6287   53.8513   19.4113 C.3       1 UNK         0.0000 
     22 C22         3.2382   53.2860   22.2484 C.2       1 UNK         0.0000 
     23 O23         2.4687   53.6172   23.1543 O.2       1 UNK         0.0000 
     24 N24         2.9971   52.2679   21.3995 N.am      1 UNK         0.0000 
     25 C25         1.8016   51.4267   21.2924 C.3       1 UNK         0.0000 
     26 H26         1.9821   50.6442   20.5501 H         1 UNK         0.0000 
     27 C27         1.4385   50.6938   22.6134 C.3       1 UNK         0.0000 
     28 C28         0.0536   50.0457   22.4632 C.3       1 UNK         0.0000 
     29 S29        -0.9208   51.2353   21.3881 S.o2      1 UNK         0.0000 
     30 O30        -1.4767   50.4943   20.2488 O.2       1 UNK         0.0000 
     31 O31        -1.7869   52.0966   22.2041 O.2       1 UNK         0.0000 
     32 C32         0.5678   52.2245   20.8417 C.3       1 UNK         0.0000 
     33 H33        -0.7046   52.8054   31.2817 H         1 UNK         0.0000 
     34 H34         0.6954   52.7906   32.3477 H         1 UNK         0.0000 
     35 H35        -0.1143   54.3223   31.9485 H         1 UNK         0.0000 
     36 H36         0.8216   51.4550   29.7070 H         1 UNK         0.0000 
     37 H37         2.3104   51.6531   27.7772 H         1 UNK         0.0000 
     38 H38         3.0563   55.7714   28.7890 H         1 UNK         0.0000 
     39 H39         1.5413   55.5754   30.7010 H         1 UNK         0.0000 
     40 H40         3.4124   53.1383   26.1631 H         1 UNK         0.0000 
     41 H41         5.0317   55.2998   27.6249 H         1 UNK         0.0000 
     42 H42         3.9245   54.0755   24.6051 H         1 UNK         0.0000 
     43 H43         7.6278   56.4433   20.0319 H         1 UNK         0.0000 
     44 H44         8.0923   54.7788   19.7679 H         1 UNK         0.0000 
     45 H45         5.7306   56.2484   18.4962 H         1 UNK         0.0000 
     46 H46         7.1293   55.5954   17.6862 H         1 UNK         0.0000 
     47 H47         5.2508   54.0496   17.3432 H         1 UNK         0.0000 
     48 H48         6.4297   53.2730   18.3565 H         1 UNK         0.0000 
     49 H49         4.3471   52.8016   19.3426 H         1 UNK         0.0000 
     50 H50         3.7342   54.4295   19.1739 H         1 UNK         0.0000 
     51 H51         3.7288   52.0520   20.7408 H         1 UNK         0.0000 
     52 H52         2.2042   49.9621   22.8774 H         1 UNK         0.0000 
     53 H53         1.4156   51.3888   23.4525 H         1 UNK         0.0000 
     54 H54         0.1678   49.1265   21.8886 H         1 UNK         0.0000 
     55 H55        -0.4951   49.8096   23.3743 H         1 UNK         0.0000 
     56 H56         0.5234   53.0929   21.4959 H         1 UNK         0.0000 
     57 H57         0.5150   52.6189   19.8265 H         1 UNK         0.0000 
@<TRIPOS>BOND
     1    1    2 1    
     2    1   33 1    
     3    1   34 1    
     4    1   35 1    
     5    2    7 ar   
     6    2    3 ar   
     7    3    4 ar   
     8    3   36 1    
     9    4    5 ar   
    10    4   37 1    
    11    5    6 ar   
    12    5    8 1    
    13    6    7 ar   
    14    6   38 1    
    15    7   39 1    
    16    8    9 2    
    17    8   40 1    
    18    9   10 1    
    19    9   41 1    
    20   10   11 2    
    21   10   12 am   BACKBONE|DICT|INTERRES
    22   12   13 am   BACKBONE|DICT|INTERRES
    23   12   42 1    
    24   13   17 1    
    25   13   14 2    
    26   14   15 1    
    27   14   22 1    
    28   15   21 1    
    29   15   16 2    
    30   16   17 1    
    31   16   18 1    
    32   18   19 1    
    33   18   43 1    
    34   18   44 1    
    35   19   20 1    
    36   19   45 1    
    37   19   46 1    
    38   20   21 1    
    39   20   47 1    
    40   20   48 1    
    41   21   49 1    
    42   21   50 1    
    43   22   23 2    
    44   22   24 am   BACKBONE|DICT|INTERRES
    45   24   25 1    
    46   24   51 1    
    47   25   26 1    
    48   25   32 1    
    49   25   27 1    
    50   27   28 1    
    51   27   52 1    
    52   27   53 1    
    53   28   29 1    
    54   28   54 1    
    55   28   55 1    
    56   29   30 2    
    57   29   31 2    
    58   29   32 1    
    59   32   56 1    
    60   32   57 1    
@<TRIPOS>SUBSTRUCTURE
     1 UNK         1 GROUP             0       ****    0 ROOT    
