@<TRIPOS>MOLECULE
ZINC63145082_4764
44   46    1
SMALL
USER_CHARGES


@<TRIPOS>ATOM
      1 C1         -2.2140   51.9145   25.7601 C.3       1 UNK         0.0000 
      2 C2         -1.1754   51.6095   24.6676 C.3       1 UNK         0.0000 
      3 C3          0.2651   51.7953   25.1864 C.3       1 UNK         0.0000 
      4 C4          1.3051   51.4392   24.0981 C.3       1 UNK         0.0000 
      5 C5          1.1097   52.2395   22.7849 C.3       1 UNK         0.0000 
      6 C6         -0.3634   52.0972   22.3144 C.3       1 UNK         0.0000 
      7 C7         -1.3731   52.4921   23.4161 C.3       1 UNK         0.0000 
      8 C8          1.5431   53.7227   22.9095 C.3       1 UNK         0.0000 
      9 N9          2.9890   53.9400   22.8408 N.pl3     1 UNK         0.0000 
     10 C10         3.8462   54.0965   23.9512 C.ar      1 UNK         0.0000 
     11 C11         3.3457   54.0998   25.2628 C.ar      1 UNK         0.0000 
     12 C12         4.2021   54.2602   26.3469 C.ar      1 UNK         0.0000 
     13 C13         5.5690   54.4204   26.1368 C.ar      1 UNK         0.0000 
     14 C14         6.0941   54.4354   24.8493 C.ar      1 UNK         0.0000 
     15 C15         5.2412   54.2635   23.7542 C.ar      1 UNK         0.0000 
     16 N16         5.8270   54.2873   22.4819 N.pl3     1 UNK         0.0000 
     17 O17         6.4017   54.6306   27.2153 O.3       1 UNK         0.0000 
     18 C18         5.9908   53.9694   28.4394 C.3       1 UNK         0.0000 
     19 C19         4.4705   54.1093   28.7653 C.2       1 UNK         0.0000 
     20 O20         3.9818   54.0948   29.8949 O.2       1 UNK         0.0000 
     21 N21         3.7269   54.2529   27.6542 N.am      1 UNK         0.0000 
     22 H22        -2.1349   52.9435   26.1122 H         1 UNK         0.0000 
     23 H23        -3.2292   51.7661   25.3914 H         1 UNK         0.0000 
     24 H24        -2.0814   51.2565   26.6203 H         1 UNK         0.0000 
     25 H25        -1.2872   50.5666   24.3625 H         1 UNK         0.0000 
     26 H26         0.3984   52.8183   25.5371 H         1 UNK         0.0000 
     27 H27         0.4248   51.1790   26.0729 H         1 UNK         0.0000 
     28 H28         2.3046   51.6176   24.4816 H         1 UNK         0.0000 
     29 H29         1.2530   50.3699   23.8850 H         1 UNK         0.0000 
     30 H30         1.7211   51.7579   22.0188 H         1 UNK         0.0000 
     31 H31        -0.5482   51.0630   22.0161 H         1 UNK         0.0000 
     32 H32        -0.5321   52.6956   21.4185 H         1 UNK         0.0000 
     33 H33        -1.2837   53.5468   23.6828 H         1 UNK         0.0000 
     34 H34        -2.3926   52.3836   23.0454 H         1 UNK         0.0000 
     35 H35         1.1196   54.2814   22.0817 H         1 UNK         0.0000 
     36 H36         1.0919   54.1985   23.7780 H         1 UNK         0.0000 
     37 H37         3.4192   53.7537   21.9475 H         1 UNK         0.0000 
     38 H38         2.2945   53.9781   25.4593 H         1 UNK         0.0000 
     39 H39         7.1560   54.5739   24.7054 H         1 UNK         0.0000 
     40 H40         6.8120   54.4958   22.3988 H         1 UNK         0.0000 
     41 H41         5.2337   54.2880   21.6653 H         1 UNK         0.0000 
     42 H42         6.1678   52.8981   28.3256 H         1 UNK         0.0000 
     43 H43         6.5760   54.3306   29.2817 H         1 UNK         0.0000 
     44 H44         2.7340   54.2858   27.8235 H         1 UNK         0.0000 
@<TRIPOS>BOND
     1    1    2 1    
     2    1   22 1    
     3    1   23 1    
     4    1   24 1    
     5    2    7 1    
     6    2    3 1    
     7    2   25 1    
     8    3    4 1    
     9    3   26 1    
    10    3   27 1    
    11    4    5 1    
    12    4   28 1    
    13    4   29 1    
    14    5    6 1    
    15    5    8 1    
    16    5   30 1    
    17    6    7 1    
    18    6   31 1    
    19    6   32 1    
    20    7   33 1    
    21    7   34 1    
    22    8    9 1    
    23    8   35 1    
    24    8   36 1    
    25    9   10 1    
    26    9   37 1    
    27   10   15 ar   
    28   10   11 ar   
    29   11   12 ar   
    30   11   38 1    
    31   12   21 1    
    32   12   13 ar   
    33   13   14 ar   
    34   13   17 1    
    35   14   15 ar   
    36   14   39 1    
    37   15   16 1    
    38   16   40 1    
    39   16   41 1    
    40   17   18 1    
    41   18   19 1    
    42   18   42 1    
    43   18   43 1    
    44   19   20 2    
    45   19   21 am   BACKBONE|DICT|INTERRES
    46   21   44 1    
@<TRIPOS>SUBSTRUCTURE
     1 UNK         1 GROUP             0       ****    0 ROOT    
