@<TRIPOS>MOLECULE
ZINC09142115_3562
43   45    1
SMALL
USER_CHARGES


@<TRIPOS>ATOM
      1 C1          0.7177   49.8526   22.7465 C.3       1 UNK         0.0000 
      2 C2          1.7304   50.8693   22.2442 C.ar      1 UNK         0.0000 
      3 C3          1.9041   52.0697   22.9396 C.ar      1 UNK         0.0000 
      4 C4          2.8484   53.0035   22.5127 C.ar      1 UNK         0.0000 
      5 C5          3.6393   52.7579   21.3837 C.ar      1 UNK         0.0000 
      6 C6          3.4449   51.5606   20.6731 C.ar      1 UNK         0.0000 
      7 C7          2.4985   50.6232   21.0964 C.ar      1 UNK         0.0000 
      8 Cl8         2.3040   49.1634   20.1864 Cl        1 UNK         0.0000 
      9 C9          4.6906   53.7618   20.9785 C.2       1 UNK         0.0000 
     10 O10         5.2565   54.4346   21.8391 O.2       1 UNK         0.0000 
     11 N11         4.8986   53.8652   19.6492 N.am      1 UNK         0.0000 
     12 C12         5.8000   54.6732   18.9520 C.2       1 UNK         0.0000 
     13 C13         5.8816   54.7949   17.5461 C.2       1 UNK         0.0000 
     14 C14         6.8427   55.7693   17.1565 C.2       1 UNK         0.0000 
     15 C15         7.5373   56.3119   18.2510 C.2       1 UNK         0.0000 
     16 S16         6.9818   55.6776   19.7575 S.3       1 UNK         0.0000 
     17 C17         8.6935   57.3074   18.1643 C.3       1 UNK         0.0000 
     18 C18         8.7347   57.9257   16.7481 C.3       1 UNK         0.0000 
     19 H19         9.7351   58.3424   16.6181 H         1 UNK         0.0000 
     20 C20         8.6026   56.8196   15.6825 C.3       1 UNK         0.0000 
     21 C21         7.2076   56.1605   15.7147 C.3       1 UNK         0.0000 
     22 C22         7.7515   59.1023   16.5682 C.3       1 UNK         0.0000 
     23 C23         5.0079   54.1287   16.5939 C.2       1 UNK         0.0000 
     24 O24         4.6348   54.6638   15.5511 O.2       1 UNK         0.0000 
     25 N25         4.6079   52.8968   16.9078 N.am      1 UNK         0.0000 
     26 H26         0.1963   50.1915   23.6413 H         1 UNK         0.0000 
     27 H27        -0.0249   49.6465   21.9753 H         1 UNK         0.0000 
     28 H28         1.2185   48.9123   22.9823 H         1 UNK         0.0000 
     29 H29         1.3210   52.2767   23.8246 H         1 UNK         0.0000 
     30 H30         2.9675   53.9183   23.0779 H         1 UNK         0.0000 
     31 H31         4.0351   51.3312   19.7958 H         1 UNK         0.0000 
     32 H32         4.2674   53.3389   19.0632 H         1 UNK         0.0000 
     33 H33         9.6422   56.8116   18.3796 H         1 UNK         0.0000 
     34 H34         8.5823   58.0988   18.9017 H         1 UNK         0.0000 
     35 H35         9.3703   56.0578   15.8321 H         1 UNK         0.0000 
     36 H36         8.7591   57.2379   14.6856 H         1 UNK         0.0000 
     37 H37         6.4541   56.8392   15.3142 H         1 UNK         0.0000 
     38 H38         7.2045   55.2909   15.0572 H         1 UNK         0.0000 
     39 H39         6.7198   58.7996   16.7518 H         1 UNK         0.0000 
     40 H40         7.9781   59.9149   17.2612 H         1 UNK         0.0000 
     41 H41         7.8014   59.5097   15.5586 H         1 UNK         0.0000 
     42 H42         3.9701   52.4282   16.2829 H         1 UNK         0.0000 
     43 H43         5.1040   52.3258   17.5852 H         1 UNK         0.0000 
@<TRIPOS>BOND
     1    1    2 1    
     2    1   26 1    
     3    1   27 1    
     4    1   28 1    
     5    2    7 ar   
     6    2    3 ar   
     7    3    4 ar   
     8    3   29 1    
     9    4    5 ar   
    10    4   30 1    
    11    5    6 ar   
    12    5    9 1    
    13    6    7 ar   
    14    6   31 1    
    15    7    8 1    
    16    9   10 2    
    17    9   11 am   BACKBONE|DICT|INTERRES
    18   11   12 am   BACKBONE|DICT|INTERRES
    19   11   32 1    
    20   12   16 1    
    21   12   13 2    
    22   13   14 1    
    23   13   23 1    
    24   14   21 1    
    25   14   15 2    
    26   15   16 1    
    27   15   17 1    
    28   17   18 1    
    29   17   33 1    
    30   17   34 1    
    31   18   19 1    
    32   18   20 1    
    33   18   22 1    
    34   20   21 1    
    35   20   35 1    
    36   20   36 1    
    37   21   37 1    
    38   21   38 1    
    39   22   39 1    
    40   22   40 1    
    41   22   41 1    
    42   23   24 2    
    43   23   25 am   BACKBONE|DICT|INTERRES
    44   25   42 1    
    45   25   43 1    
@<TRIPOS>SUBSTRUCTURE
     1 UNK         1 GROUP             0       ****    0 ROOT    
