ZINC49853174_3894
                    3D
 Schrodinger Suite 2024-2.
 33 34  0  0  1  0            999 V2000
    2.2451   54.2059   24.4928 C   0  0  0  0  0  0
    2.8438   53.5807   25.7781 C   0  0  1  0  0  0
    3.0997   52.5506   25.5339 H   0  0  0  0  0  0
    4.1696   54.2579   26.2652 C   0  0  0  0  0  0
    4.7737   53.5208   27.4924 C   0  0  0  0  0  0
    6.0133   54.2334   28.0405 C   0  0  0  0  0  0
    7.0845   54.3627   26.9520 C   0  0  0  0  0  0
    6.5467   55.0183   25.6603 C   0  0  0  0  0  0
    5.2632   54.3159   25.1648 C   0  0  0  0  0  0
    1.8201   53.4897   26.8475 N   0  0  0  0  0  0
    0.8792   52.4955   27.0404 C   0  0  0  0  0  0
    0.2360   52.8152   28.2221 C   0  0  0  0  0  0
    0.8109   54.0215   28.6258 C   0  0  0  0  0  0
    1.7338   54.4444   27.7961 N   0  0  0  0  0  0
   -1.2915   51.6967   29.2197 I   0  0  0  0  0  0
    0.7022   51.4390   26.1932 N   0  0  0  0  0  0
    2.7904   53.8660   23.6117 H   0  0  0  0  0  0
    1.2024   53.9205   24.3439 H   0  0  0  0  0  0
    2.3037   55.2945   24.4816 H   0  0  0  0  0  0
    3.9551   55.2869   26.5602 H   0  0  0  0  0  0
    4.0519   53.4180   28.3006 H   0  0  0  0  0  0
    5.0164   52.4968   27.2221 H   0  0  0  0  0  0
    5.7433   55.2200   28.4212 H   0  0  0  0  0  0
    6.4202   53.6751   28.8825 H   0  0  0  0  0  0
    7.9044   54.9329   27.3695 H   0  0  0  0  0  0
    7.4829   53.3723   26.7252 H   0  0  0  0  0  0
    6.3408   56.0751   25.8379 H   0  0  0  0  0  0
    7.3096   54.9855   24.8813 H   0  0  0  0  0  0
    5.4977   53.3072   24.8211 H   0  0  0  0  0  0
    4.8894   54.8285   24.2781 H   0  0  0  0  0  0
    0.5559   54.5725   29.5188 H   0  0  0  0  0  0
    0.1049   50.6652   26.4570 H   0  0  0  0  0  0
    1.0929   51.4146   25.2636 H   0  0  0  0  0  0
  1  2  1  0  0  0
  1 17  1  0  0  0
  1 18  1  0  0  0
  1 19  1  0  0  0
  2  3  1  0  0  0
  2  4  1  0  0  0
  2 10  1  0  0  0
  4  9  1  0  0  0
  4  5  1  0  0  0
  4 20  1  0  0  0
  5  6  1  0  0  0
  5 21  1  0  0  0
  5 22  1  0  0  0
  6  7  1  0  0  0
  6 23  1  0  0  0
  6 24  1  0  0  0
  7  8  1  0  0  0
  7 25  1  0  0  0
  7 26  1  0  0  0
  8  9  1  0  0  0
  8 27  1  0  0  0
  8 28  1  0  0  0
  9 29  1  0  0  0
  9 30  1  0  0  0
 10 14  1  0  0  0
 10 11  1  0  0  0
 11 12  2  0  0  0
 11 16  1  0  0  0
 12 13  1  0  0  0
 12 15  1  0  0  0
 13 14  2  0  0  0
 13 31  1  0  0  0
 16 32  1  0  0  0
 16 33  1  0  0  0
M  END
> <i_i_glide_confnum>
1

> <i_i_glide_lignum>
3895

> <i_i_glide_posenum>
214

> <i_i_glide_rotatable_bonds>
2

> <i_m_Source_File_Index>
4955

> <b_m_subgroup_collapsed>
0

> <r_i_docking_score>
-4.73026

> <r_i_glide_ecoul>
-0.766531

> <r_i_glide_eff_state_penalty>
0

> <r_i_glide_einternal>
1.71973

> <r_i_glide_emodel>
-31.941

> <r_i_glide_energy>
-25.1134

> <r_i_glide_erotb>
0.366225

> <r_i_glide_esite>
-0.000414963

> <r_i_glide_evdw>
-24.3469

> <r_i_glide_gscore>
-4.73026

> <r_i_glide_hbond>
0

> <r_i_glide_ligand_efficiency>
-0.315351

> <r_i_glide_ligand_efficiency_ln>
-1.27567

> <r_i_glide_ligand_efficiency_sa>
-0.777722

> <r_i_glide_lipo>
-2.22512

> <r_i_glide_metal>
0

> <r_i_glide_rewards>
-1.53863

> <s_i_glide_gridfile>
wee1_glide-grid

> <s_m_Source_File>
wee1_decoys_glide_SP.sdf

> <s_m_Source_Path>
/Users/zhangxujun/Desktop

> <s_m_entry_id>
5230

> <s_m_entry_name>
wee1_decoys_glide_SP.4955

> <s_m_subgroup_title>
wee1_decoys_glide_SP

> <s_m_subgroupid>
wee1_decoys_glide_SP


$$$$
