ZINC08855098_5577
                    3D
 Schrodinger Suite 2024-2.
 68 71  0  0  1  0            999 V2000
   10.4038   53.6405   15.6005 C   0  0  0  0  0  0
    9.4208   54.2716   16.5694 C   0  0  0  0  0  0
    8.1329   54.5983   16.1410 C   0  0  0  0  0  0
    7.2239   55.1545   17.0366 C   0  0  0  0  0  0
    7.6018   55.3770   18.3629 C   0  0  0  0  0  0
    8.8906   55.0559   18.7912 C   0  0  0  0  0  0
    9.7995   54.5038   17.8922 C   0  0  0  0  0  0
    6.4005   56.0158   19.5249 S   0  0  0  0  0  0
    5.4963   56.8954   18.7788 O   0  0  0  0  0  0
    7.1294   56.5057   20.6996 O   0  0  0  0  0  0
    5.4948   54.5927   20.0358 N   0  0  0  0  0  0
    5.0852   54.4780   21.4454 C   0  0  0  0  0  0
    4.9129   52.9875   21.7978 C   0  0  0  0  0  0
    4.0336   52.2655   20.8434 N   0  0  0  0  0  0
    4.3682   52.5329   19.4283 C   0  0  0  0  0  0
    4.4734   54.0387   19.1343 C   0  0  0  0  0  0
    2.9369   51.5062   21.2299 C   0  0  0  0  0  0
    2.5485   50.3545   20.5475 C   0  0  0  0  0  0
    1.4529   49.6109   20.9848 C   0  0  0  0  0  0
    0.7023   49.9943   22.1140 C   0  0  0  0  0  0
    1.0906   51.1696   22.8045 C   0  0  0  0  0  0
    2.1842   51.8963   22.3307 C   0  0  0  0  0  0
    0.3947   51.6313   23.9409 N   0  0  0  0  0  0
    0.4620   53.0107   24.4327 C   0  0  0  0  0  0
    1.6507   53.2970   25.3508 C   0  0  0  0  0  0
    1.6606   52.8200   26.6637 C   0  0  0  0  0  0
    2.7102   53.1535   27.5197 C   0  0  0  0  0  0
    3.7643   53.9568   27.0653 C   0  0  0  0  0  0
    3.7578   54.4215   25.7500 C   0  0  0  0  0  0
    2.7025   54.1029   24.9047 C   0  0  0  0  0  0
    4.9287   54.3392   27.9809 C   0  0  0  0  0  0
    4.4733   54.8289   29.3670 C   0  0  0  0  0  0
    5.9519   53.1986   28.0867 C   0  0  0  0  0  0
   -0.4847   49.1727   22.4989 N   0  3  0  0  0  0
   -0.7980   48.2272   21.7791 O   0  0  0  0  0  0
   -1.1343   49.4562   23.5008 O   0  5  0  0  0  0
    9.8865   52.9911   14.8929 H   0  0  0  0  0  0
   10.9389   54.4080   15.0409 H   0  0  0  0  0  0
   11.1268   53.0143   16.1251 H   0  0  0  0  0  0
    7.8346   54.4184   15.1179 H   0  0  0  0  0  0
    6.2270   55.4022   16.7006 H   0  0  0  0  0  0
    9.1923   55.2238   19.8156 H   0  0  0  0  0  0
   10.7948   54.2526   18.2315 H   0  0  0  0  0  0
    5.8446   54.9243   22.0867 H   0  0  0  0  0  0
    4.1278   54.9770   21.5951 H   0  0  0  0  0  0
    4.6066   52.8907   22.8383 H   0  0  0  0  0  0
    5.8651   52.4662   21.6868 H   0  0  0  0  0  0
    5.3557   52.0967   19.2917 H   0  0  0  0  0  0
    3.6833   52.0482   18.7319 H   0  0  0  0  0  0
    4.7890   54.1945   18.1034 H   0  0  0  0  0  0
    3.5070   54.5172   19.2998 H   0  0  0  0  0  0
    3.1055   50.0219   19.6820 H   0  0  0  0  0  0
    1.1908   48.7252   20.4236 H   0  0  0  0  0  0
    2.4653   52.8062   22.8092 H   0  0  0  0  0  0
   -0.4266   51.0928   24.1913 H   0  0  0  0  0  0
   -0.4603   53.2190   24.9745 H   0  0  0  0  0  0
    0.4616   53.7055   23.5915 H   0  0  0  0  0  0
    0.8507   52.2017   27.0241 H   0  0  0  0  0  0
    2.7044   52.7772   28.5314 H   0  0  0  0  0  0
    4.5570   55.0496   25.3839 H   0  0  0  0  0  0
    2.6934   54.5351   23.9153 H   0  0  0  0  0  0
    5.4393   55.1909   27.5261 H   0  0  0  0  0  0
    3.6922   55.5853   29.2807 H   0  0  0  0  0  0
    5.3086   55.2782   29.9059 H   0  0  0  0  0  0
    4.0871   54.0152   29.9807 H   0  0  0  0  0  0
    6.3160   52.8988   27.1033 H   0  0  0  0  0  0
    6.8179   53.4947   28.6808 H   0  0  0  0  0  0
    5.5068   52.3202   28.5548 H   0  0  0  0  0  0
  1  2  1  0  0  0
  1 37  1  0  0  0
  1 38  1  0  0  0
  1 39  1  0  0  0
  2  7  2  0  0  0
  2  3  1  0  0  0
  3  4  2  0  0  0
  3 40  1  0  0  0
  4  5  1  0  0  0
  4 41  1  0  0  0
  5  6  2  0  0  0
  5  8  1  0  0  0
  6  7  1  0  0  0
  6 42  1  0  0  0
  7 43  1  0  0  0
  8  9  2  0  0  0
  8 10  2  0  0  0
  8 11  1  0  0  0
 11 16  1  0  0  0
 11 12  1  0  0  0
 12 13  1  0  0  0
 12 44  1  0  0  0
 12 45  1  0  0  0
 13 14  1  0  0  0
 13 46  1  0  0  0
 13 47  1  0  0  0
 14 15  1  0  0  0
 14 17  1  0  0  0
 15 16  1  0  0  0
 15 48  1  0  0  0
 15 49  1  0  0  0
 16 50  1  0  0  0
 16 51  1  0  0  0
 17 22  2  0  0  0
 17 18  1  0  0  0
 18 19  2  0  0  0
 18 52  1  0  0  0
 19 20  1  0  0  0
 19 53  1  0  0  0
 20 21  2  0  0  0
 20 34  1  0  0  0
 21 22  1  0  0  0
 21 23  1  0  0  0
 22 54  1  0  0  0
 23 24  1  0  0  0
 23 55  1  0  0  0
 24 25  1  0  0  0
 24 56  1  0  0  0
 24 57  1  0  0  0
 25 30  2  0  0  0
 25 26  1  0  0  0
 26 27  2  0  0  0
 26 58  1  0  0  0
 27 28  1  0  0  0
 27 59  1  0  0  0
 28 29  2  0  0  0
 28 31  1  0  0  0
 29 30  1  0  0  0
 29 60  1  0  0  0
 30 61  1  0  0  0
 31 32  1  0  0  0
 31 33  1  0  0  0
 31 62  1  0  0  0
 32 63  1  0  0  0
 32 64  1  0  0  0
 32 65  1  0  0  0
 33 66  1  0  0  0
 33 67  1  0  0  0
 33 68  1  0  0  0
 34 35  2  0  0  0
 34 36  1  0  0  0
M  CHG  2  34   1  36  -1
M  END
> <i_i_glide_confnum>
8

> <i_i_glide_lignum>
5578

> <i_i_glide_posenum>
43

> <i_i_glide_rotatable_bonds>
8

> <i_m_Source_File_Index>
2703

> <b_m_subgroup_collapsed>
0

> <r_i_docking_score>
-4.96958

> <r_i_glide_ecoul>
-3.98169

> <r_i_glide_eff_state_penalty>
0

> <r_i_glide_einternal>
6.74532

> <r_i_glide_emodel>
-57.265

> <r_i_glide_energy>
-46.8928

> <r_i_glide_erotb>
0.47485

> <r_i_glide_esite>
-0.0335394

> <r_i_glide_evdw>
-42.9111

> <r_i_glide_gscore>
-4.96958

> <r_i_glide_hbond>
0

> <r_i_glide_ligand_efficiency>
-0.138044

> <r_i_glide_ligand_efficiency_ln>
-1.08423

> <r_i_glide_ligand_efficiency_sa>
-0.455811

> <r_i_glide_lipo>
-2.99719

> <r_i_glide_metal>
0

> <r_i_glide_rewards>
0.329108

> <s_i_glide_gridfile>
wee1_glide-grid

> <s_m_Source_File>
wee1_decoys_glide_SP.sdf

> <s_m_Source_Path>
/Users/zhangxujun/Desktop

> <s_m_entry_id>
2978

> <s_m_entry_name>
wee1_decoys_glide_SP.2703

> <s_m_subgroup_title>
wee1_decoys_glide_SP

> <s_m_subgroupid>
wee1_decoys_glide_SP


$$$$
