@<TRIPOS>MOLECULE
ZINC12659586_5135
64   69    1
SMALL
USER_CHARGES


@<TRIPOS>ATOM
      1 C1         -2.3940   49.9528   24.5532 C.3       1 UNK         0.0000 
      2 O2         -2.3755   50.7986   25.6939 O.3       1 UNK         0.0000 
      3 C3         -1.1975   51.4267   26.0438 C.ar      1 UNK         0.0000 
      4 C4         -1.1891   52.0960   27.2635 C.ar      1 UNK         0.0000 
      5 C5         -0.0455   52.7554   27.7050 C.ar      1 UNK         0.0000 
      6 C6          1.1159   52.7679   26.9253 C.ar      1 UNK         0.0000 
      7 C7          1.1044   52.0933   25.7023 C.ar      1 UNK         0.0000 
      8 C8         -0.0368   51.4317   25.2582 C.ar      1 UNK         0.0000 
      9 C9          2.3348   53.4574   27.4758 C.ar      1 UNK         0.0000 
     10 C10         2.6580   53.6514   28.8198 C.ar      1 UNK         0.0000 
     11 N11         3.8113   54.2588   28.9728 N.2       1 UNK         0.0000 
     12 N12         4.3090   54.4972   27.7125 N.2       1 UNK         0.0000 
     13 N13         3.4194   54.0374   26.8115 N.pl3     1 UNK         0.0000 
     14 C14         3.7207   54.1827   25.4263 C.ar      1 UNK         0.0000 
     15 C15         2.7082   54.3964   24.4815 C.ar      1 UNK         0.0000 
     16 C16         2.9999   54.4063   23.1214 C.ar      1 UNK         0.0000 
     17 C17         4.3128   54.2303   22.6866 C.ar      1 UNK         0.0000 
     18 C18         5.3442   54.0953   23.6242 C.ar      1 UNK         0.0000 
     19 C19         5.0507   54.0924   24.9856 C.ar      1 UNK         0.0000 
     20 N20         4.5203   54.1347   21.2978 N.pl3     1 UNK         0.0000 
     21 C21         5.4688   54.6696   20.4692 C.2       1 UNK         0.0000 
     22 S22         6.7047   55.6987   20.9821 S.2       1 UNK         0.0000 
     23 N23         5.2322   54.2784   19.1740 N.am      1 UNK         0.0000 
     24 C24         5.9539   54.3885   18.0287 C.2       1 UNK         0.0000 
     25 O25         7.1473   54.6956   17.9899 O.2       1 UNK         0.0000 
     26 C26         5.2185   54.0858   16.6847 C.3       1 UNK         0.0000 
     27 C27         5.1625   55.4019   15.8425 C.3       1 UNK         0.0000 
     28 C28         4.4891   55.1243   14.4706 C.3       1 UNK         0.0000 
     29 C29         5.3062   54.0525   13.7031 C.3       1 UNK         0.0000 
     30 C30         5.3489   52.7364   14.5233 C.3       1 UNK         0.0000 
     31 C31         6.0265   53.0108   15.8926 C.3       1 UNK         0.0000 
     32 C32         3.9035   52.2244   14.7518 C.3       1 UNK         0.0000 
     33 C33         3.0847   53.2910   15.5204 C.3       1 UNK         0.0000 
     34 C34         3.0469   54.6057   14.6996 C.3       1 UNK         0.0000 
     35 C35         3.7549   53.5594   16.8926 C.3       1 UNK         0.0000 
     36 H36        -3.3738   49.4813   24.4698 H         1 UNK         0.0000 
     37 H37        -2.2154   50.5134   23.6352 H         1 UNK         0.0000 
     38 H38        -1.6531   49.1579   24.6376 H         1 UNK         0.0000 
     39 H39        -2.0759   52.0792   27.8801 H         1 UNK         0.0000 
     40 H40        -0.0746   53.2537   28.6619 H         1 UNK         0.0000 
     41 H41         1.9889   52.0513   25.0904 H         1 UNK         0.0000 
     42 H42         0.0049   50.9149   24.3116 H         1 UNK         0.0000 
     43 H43         2.0729   53.3371   29.6706 H         1 UNK         0.0000 
     44 H44         1.6791   54.4964   24.7907 H         1 UNK         0.0000 
     45 H45         2.1960   54.5108   22.4077 H         1 UNK         0.0000 
     46 H46         6.3670   53.9427   23.3118 H         1 UNK         0.0000 
     47 H47         5.8560   53.9376   25.6895 H         1 UNK         0.0000 
     48 H48         3.7641   53.6607   20.8264 H         1 UNK         0.0000 
     49 H49         4.3000   53.9339   19.0123 H         1 UNK         0.0000 
     50 H50         6.1645   55.8038   15.6769 H         1 UNK         0.0000 
     51 H51         4.6095   56.1772   16.3752 H         1 UNK         0.0000 
     52 H52         4.4626   56.0464   13.8887 H         1 UNK         0.0000 
     53 H53         6.3175   54.4141   13.5124 H         1 UNK         0.0000 
     54 H54         4.8626   53.8706   12.7241 H         1 UNK         0.0000 
     55 H55         5.9197   51.9855   13.9772 H         1 UNK         0.0000 
     56 H56         6.0920   52.0907   16.4711 H         1 UNK         0.0000 
     57 H57         7.0557   53.3361   15.7284 H         1 UNK         0.0000 
     58 H58         3.9172   51.2899   15.3114 H         1 UNK         0.0000 
     59 H59         3.4272   51.9922   13.7986 H         1 UNK         0.0000 
     60 H60         2.0679   52.9278   15.6758 H         1 UNK         0.0000 
     61 H61         2.5527   54.4360   13.7435 H         1 UNK         0.0000 
     62 H62         2.4535   55.3577   15.2179 H         1 UNK         0.0000 
     63 H63         3.1539   54.2832   17.4472 H         1 UNK         0.0000 
     64 H64         3.7543   52.6383   17.4810 H         1 UNK         0.0000 
@<TRIPOS>BOND
     1    1    2 1    
     2    1   36 1    
     3    1   37 1    
     4    1   38 1    
     5    2    3 1    
     6    3    8 ar   
     7    3    4 ar   
     8    4    5 ar   
     9    4   39 1    
    10    5    6 ar   
    11    5   40 1    
    12    6    7 ar   
    13    6    9 1    
    14    7    8 ar   
    15    7   41 1    
    16    8   42 1    
    17    9   13 ar   
    18    9   10 ar   
    19   10   11 ar   
    20   10   43 1    
    21   11   12 ar   
    22   12   13 ar   
    23   13   14 1    
    24   14   19 ar   
    25   14   15 ar   
    26   15   16 ar   
    27   15   44 1    
    28   16   17 ar   
    29   16   45 1    
    30   17   18 ar   
    31   17   20 1    
    32   18   19 ar   
    33   18   46 1    
    34   19   47 1    
    35   20   21 1    
    36   20   48 1    
    37   21   22 2    
    38   21   23 am   BACKBONE|DICT|INTERRES
    39   23   24 am   BACKBONE|DICT|INTERRES
    40   23   49 1    
    41   24   25 2    
    42   24   26 1    
    43   26   31 1    
    44   26   35 1    
    45   26   27 1    
    46   27   28 1    
    47   27   50 1    
    48   27   51 1    
    49   28   34 1    
    50   28   29 1    
    51   28   52 1    
    52   29   30 1    
    53   29   53 1    
    54   29   54 1    
    55   30   31 1    
    56   30   32 1    
    57   30   55 1    
    58   31   56 1    
    59   31   57 1    
    60   32   33 1    
    61   32   58 1    
    62   32   59 1    
    63   33   34 1    
    64   33   35 1    
    65   33   60 1    
    66   34   61 1    
    67   34   62 1    
    68   35   63 1    
    69   35   64 1    
@<TRIPOS>SUBSTRUCTURE
     1 UNK         1 GROUP             0       ****    0 ROOT    
