@<TRIPOS>MOLECULE
ZINC39327242_3885
34   37    1
SMALL
USER_CHARGES


@<TRIPOS>ATOM
      1 C1          4.5446   53.1030   20.8169 C.ar      1 UNK         0.0000 
      2 C2          3.9524   51.8809   20.5339 C.ar      1 UNK         0.0000 
      3 C3          2.9326   51.3819   21.3361 C.ar      1 UNK         0.0000 
      4 C4          2.4810   52.1021   22.4809 C.ar      1 UNK         0.0000 
      5 C5          3.1162   53.3541   22.7757 C.ar      1 UNK         0.0000 
      6 C6          4.1370   53.8429   21.9203 C.ar      1 UNK         0.0000 
      7 C7          2.7339   54.0752   23.9284 C.ar      1 UNK         0.0000 
      8 C8          1.7654   53.5686   24.7804 C.ar      1 UNK         0.0000 
      9 C9          1.1330   52.3706   24.4948 C.ar      1 UNK         0.0000 
     10 C10         1.4537   51.6111   23.3599 C.ar      1 UNK         0.0000 
     11 C11         0.7225   50.2780   23.0916 C.3       1 UNK         0.0000 
     12 H12         1.4829   49.5106   22.9384 H         1 UNK         0.0000 
     13 C13        -0.0797   49.8549   24.3267 C.2       1 UNK         0.0000 
     14 C14        -0.2885   50.7055   25.3521 C.2       1 UNK         0.0000 
     15 O15         0.1835   51.9713   25.4116 O.3       1 UNK         0.0000 
     16 N16        -1.0241   50.4860   26.4810 N.pl3     1 UNK         0.0000 
     17 C17        -0.6249   48.5350   24.3580 C.1       1 UNK         0.0000 
     18 N18        -1.0572   47.4612   24.3468 N.1       1 UNK         0.0000 
     19 C19        -0.1918   50.3549   21.8761 C.2       1 UNK         0.0000 
     20 C20        -0.2272   49.5341   20.7478 C.2       1 UNK         0.0000 
     21 C21        -1.1913   49.8935   19.8004 C.2       1 UNK         0.0000 
     22 C22        -1.9257   51.0020   20.1832 C.2       1 UNK         0.0000 
     23 S23        -1.4145   51.5979   21.7229 S.3       1 UNK         0.0000 
     24 Cl24       -3.2040   51.7741   19.3289 Cl        1 UNK         0.0000 
     25 H25         5.3278   53.4768   20.1724 H         1 UNK         0.0000 
     26 H26         4.2983   51.3130   19.6851 H         1 UNK         0.0000 
     27 H27         2.4995   50.4280   21.0866 H         1 UNK         0.0000 
     28 H28         4.6104   54.7893   22.1372 H         1 UNK         0.0000 
     29 H29         3.2237   55.0101   24.1570 H         1 UNK         0.0000 
     30 H30         1.5048   54.0988   25.6831 H         1 UNK         0.0000 
     31 H31        -1.2959   49.5489   26.7718 H         1 UNK         0.0000 
     32 H32        -1.1652   51.2252   27.1534 H         1 UNK         0.0000 
     33 H33         0.4369   48.6925   20.6170 H         1 UNK         0.0000 
     34 H34        -1.3454   49.3656   18.8695 H         1 UNK         0.0000 
@<TRIPOS>BOND
     1    1    6 ar   
     2    1    2 ar   
     3    1   25 1    
     4    2    3 ar   
     5    2   26 1    
     6    3    4 ar   
     7    3   27 1    
     8    4   10 ar   
     9    4    5 ar   
    10    5    6 ar   
    11    5    7 ar   
    12    6   28 1    
    13    7    8 ar   
    14    7   29 1    
    15    8    9 ar   
    16    8   30 1    
    17    9   15 1    
    18    9   10 ar   
    19   10   11 1    
    20   11   12 1    
    21   11   13 1    
    22   11   19 1    
    23   13   14 2    
    24   13   17 1    
    25   14   15 1    
    26   14   16 1    
    27   16   31 1    
    28   16   32 1    
    29   17   18 3    
    30   19   23 1    
    31   19   20 2    
    32   20   21 1    
    33   20   33 1    
    34   21   22 2    
    35   21   34 1    
    36   22   23 1    
    37   22   24 1    
@<TRIPOS>SUBSTRUCTURE
     1 UNK         1 GROUP             0       ****    0 ROOT    
