ZINC36737378_3577
                    3D
 Schrodinger Suite 2024-2.
 28 29  0  0  1  0            999 V2000
   -0.2221   52.0962   29.4549 C   0  0  0  0  0  0
    0.5304   53.3944   29.2639 C   0  0  0  0  0  0
    0.7001   54.4076   30.2183 C   0  0  0  0  0  0
    1.5173   55.3799   29.6762 C   0  0  0  0  0  0
    1.9136   54.9964   28.4415 O   0  0  0  0  0  0
    1.2977   53.8129   28.1652 C   0  0  0  0  0  0
    1.6308   53.1744   26.9175 C   0  0  0  0  0  0
    2.7518   53.2976   26.4219 O   0  0  0  0  0  0
    0.6096   52.4967   26.3505 N   0  0  0  0  0  0
    0.7046   51.7393   25.1653 C   0  0  0  0  0  0
    0.5386   50.3404   25.2273 C   0  0  0  0  0  0
    0.6682   49.5718   24.0709 C   0  0  0  0  0  0
    0.9428   50.1754   22.8473 C   0  0  0  0  0  0
    1.0658   51.5589   22.7691 C   0  0  0  0  0  0
    0.9392   52.3472   23.9128 C   0  0  0  0  0  0
    1.1049   54.2350   23.6901 Br  0  0  0  0  0  0
    1.1535   49.1115   21.2836 Br  0  0  0  0  0  0
    0.3042   49.6707   26.4314 N   0  0  0  0  0  0
   -1.2000   52.1064   28.9732 H   0  0  0  0  0  0
    0.3238   51.2538   29.0284 H   0  0  0  0  0  0
   -0.3674   51.8523   30.5083 H   0  0  0  0  0  0
    0.2695   54.4205   31.2094 H   0  0  0  0  0  0
    1.9069   56.3209   30.0385 H   0  0  0  0  0  0
   -0.2575   52.4351   26.8610 H   0  0  0  0  0  0
    0.5734   48.4976   24.1206 H   0  0  0  0  0  0
    1.2688   52.0250   21.8156 H   0  0  0  0  0  0
    0.3925   48.6618   26.3948 H   0  0  0  0  0  0
   -0.4728   49.9854   26.9983 H   0  0  0  0  0  0
  1  2  1  0  0  0
  1 19  1  0  0  0
  1 20  1  0  0  0
  1 21  1  0  0  0
  2  6  2  0  0  0
  2  3  1  0  0  0
  3  4  2  0  0  0
  3 22  1  0  0  0
  4  5  1  0  0  0
  4 23  1  0  0  0
  5  6  1  0  0  0
  6  7  1  0  0  0
  7  8  2  0  0  0
  7  9  1  0  0  0
  9 10  1  0  0  0
  9 24  1  0  0  0
 10 15  2  0  0  0
 10 11  1  0  0  0
 11 12  2  0  0  0
 11 18  1  0  0  0
 12 13  1  0  0  0
 12 25  1  0  0  0
 13 14  2  0  0  0
 13 17  1  0  0  0
 14 15  1  0  0  0
 14 26  1  0  0  0
 15 16  1  0  0  0
 18 27  1  0  0  0
 18 28  1  0  0  0
M  END
> <i_i_glide_confnum>
8

> <i_i_glide_lignum>
3578

> <i_i_glide_posenum>
378

> <i_i_glide_rotatable_bonds>
3

> <i_m_Source_File_Index>
3397

> <b_m_subgroup_collapsed>
0

> <r_i_docking_score>
-4.29475

> <r_i_glide_ecoul>
-3.56004

> <r_i_glide_eff_state_penalty>
0

> <r_i_glide_einternal>
5.39107

> <r_i_glide_emodel>
-37.9688

> <r_i_glide_energy>
-32.0769

> <r_i_glide_erotb>
0.414552

> <r_i_glide_esite>
-0.0720232

> <r_i_glide_evdw>
-28.5168

> <r_i_glide_gscore>
-4.29475

> <r_i_glide_hbond>
-0.0139116

> <r_i_glide_ligand_efficiency>
-0.238597

> <r_i_glide_ligand_efficiency_ln>
-1.10394

> <r_i_glide_ligand_efficiency_sa>
-0.625302

> <r_i_glide_lipo>
-1.57029

> <r_i_glide_metal>
0

> <r_i_glide_rewards>
-1.09323

> <s_i_glide_gridfile>
wee1_glide-grid

> <s_m_Source_File>
wee1_decoys_glide_SP.sdf

> <s_m_Source_Path>
/Users/zhangxujun/Desktop

> <s_m_entry_id>
3672

> <s_m_entry_name>
wee1_decoys_glide_SP.3397

> <s_m_subgroup_title>
wee1_decoys_glide_SP

> <s_m_subgroupid>
wee1_decoys_glide_SP


$$$$
