@<TRIPOS>MOLECULE
ZINC61888210_1612
39   40    1
SMALL
USER_CHARGES


@<TRIPOS>ATOM
      1 C1          6.1520   54.7171   26.7125 C.ar      1 UNK         0.0000 
      2 C2          4.7894   54.4832   26.8846 C.ar      1 UNK         0.0000 
      3 C3          3.9809   54.2438   25.7737 C.ar      1 UNK         0.0000 
      4 C4          4.5327   54.2446   24.4889 C.ar      1 UNK         0.0000 
      5 C5          5.8971   54.5130   24.3269 C.ar      1 UNK         0.0000 
      6 C6          6.7044   54.7316   25.4351 C.ar      1 UNK         0.0000 
      7 C7          3.6252   53.9632   23.2925 C.3       1 UNK         0.0000 
      8 S8          4.5235   53.4012   21.7204 S.o2      1 UNK         0.0000 
      9 O9          5.5022   52.3688   22.0812 O.2       1 UNK         0.0000 
     10 O10         4.9555   54.6099   21.0130 O.2       1 UNK         0.0000 
     11 N11         3.2537   52.6597   20.7518 N.pl3     1 UNK         0.0000 
     12 C12         2.9454   51.2133   20.8699 C.3       1 UNK         0.0000 
     13 H13         3.9408   50.7938   21.0269 H         1 UNK         0.0000 
     14 C14         2.1204   50.7960   22.0892 C.3       1 UNK         0.0000 
     15 C15         1.6967   49.3682   21.7432 C.3       1 UNK         0.0000 
     16 C16         1.4334   49.3702   20.2302 C.3       1 UNK         0.0000 
     17 C17         2.3209   50.4975   19.6365 C.3       1 UNK         0.0000 
     18 H18         3.1662   49.9772   19.1805 H         1 UNK         0.0000 
     19 C19         1.6516   51.3803   18.5408 C.2       1 UNK         0.0000 
     20 N20         0.6137   52.1056   18.7231 N.2       1 UNK         0.0000 
     21 O21         0.0727   52.0943   20.0212 O.3       1 UNK         0.0000 
     22 N22         2.3040   51.2966   17.3365 N.pl3     1 UNK         0.0000 
     23 H23         6.7781   54.8887   27.5774 H         1 UNK         0.0000 
     24 H24         4.3617   54.4744   27.8757 H         1 UNK         0.0000 
     25 H25         2.9279   54.0482   25.9132 H         1 UNK         0.0000 
     26 H26         6.3555   54.5404   23.3498 H         1 UNK         0.0000 
     27 H27         7.7580   54.9001   25.2816 H         1 UNK         0.0000 
     28 H28         3.0471   54.8491   23.0314 H         1 UNK         0.0000 
     29 H29         2.9268   53.1689   23.5513 H         1 UNK         0.0000 
     30 H30         2.4993   53.2787   20.4382 H         1 UNK         0.0000 
     31 H31         2.7042   50.8068   23.0080 H         1 UNK         0.0000 
     32 H32         1.2531   51.4389   22.2376 H         1 UNK         0.0000 
     33 H33         2.5111   48.6784   21.9783 H         1 UNK         0.0000 
     34 H34         0.8287   49.0431   22.3182 H         1 UNK         0.0000 
     35 H35         0.3676   49.5364   20.0643 H         1 UNK         0.0000 
     36 H36         1.6871   48.3948   19.8108 H         1 UNK         0.0000 
     37 H37         0.6691   51.4970   20.4827 H         1 UNK         0.0000 
     38 H38         1.9788   51.8304   16.5473 H         1 UNK         0.0000 
     39 H39         3.0800   50.6476   17.2057 H         1 UNK         0.0000 
@<TRIPOS>BOND
     1    1    6 ar   
     2    1    2 ar   
     3    1   23 1    
     4    2    3 ar   
     5    2   24 1    
     6    3    4 ar   
     7    3   25 1    
     8    4    5 ar   
     9    4    7 1    
    10    5    6 ar   
    11    5   26 1    
    12    6   27 1    
    13    7    8 1    
    14    7   28 1    
    15    7   29 1    
    16    8    9 2    
    17    8   10 2    
    18    8   11 1    
    19   11   12 1    
    20   11   30 1    
    21   12   13 1    
    22   12   17 1    
    23   12   14 1    
    24   14   15 1    
    25   14   31 1    
    26   14   32 1    
    27   15   16 1    
    28   15   33 1    
    29   15   34 1    
    30   16   17 1    
    31   16   35 1    
    32   16   36 1    
    33   17   18 1    
    34   17   19 1    
    35   19   20 2    
    36   19   22 1    
    37   20   21 1    
    38   21   37 1    
    39   22   38 1    
    40   22   39 1    
@<TRIPOS>SUBSTRUCTURE
     1 UNK         1 GROUP             0       ****    0 ROOT    
