@<TRIPOS>MOLECULE
ZINC09113689_2848
58   61    1
SMALL
USER_CHARGES


@<TRIPOS>ATOM
      1 C1         -4.7461   51.7416   26.8353 C.ar      1 UNK         0.0000 
      2 C2         -4.2256   52.4054   25.7263 C.ar      1 UNK         0.0000 
      3 C3         -3.2375   51.7940   24.9582 C.ar      1 UNK         0.0000 
      4 C4         -2.7858   50.5173   25.2994 C.ar      1 UNK         0.0000 
      5 C5         -3.2958   49.8636   26.4248 C.ar      1 UNK         0.0000 
      6 C6         -4.2825   50.4769   27.1918 C.ar      1 UNK         0.0000 
      7 N7         -1.7465   49.9602   24.5425 N.pl3     1 UNK         0.0000 
      8 C8         -1.6649   48.7681   23.8739 C.2       1 UNK         0.0000 
      9 S9         -2.8807   47.6344   23.7374 S.2       1 UNK         0.0000 
     10 N10        -0.4957   48.4973   23.2219 N.pl3     1 UNK         0.0000 
     11 N11         0.6750   49.2691   23.3072 N.am      1 UNK         0.0000 
     12 C12         0.8261   50.4060   22.5939 C.2       1 UNK         0.0000 
     13 O13         0.0002   50.8379   21.7877 O.2       1 UNK         0.0000 
     14 C14         2.1310   51.1732   22.8505 C.3       1 UNK         0.0000 
     15 S15         1.9333   52.9485   23.2539 S.3       1 UNK         0.0000 
     16 C16         1.3883   52.7970   24.9301 C.ar      1 UNK         0.0000 
     17 N17         0.2835   52.1461   25.1675 N.2       1 UNK         0.0000 
     18 N18         0.0463   52.1684   26.5176 N.2       1 UNK         0.0000 
     19 C19         0.9895   52.8877   27.0648 C.ar      1 UNK         0.0000 
     20 N20         1.9483   53.2769   26.1246 N.pl3     1 UNK         0.0000 
     21 C21         3.1923   54.0711   26.3928 C.3       1 UNK         0.0000 
     22 C22         4.0263   53.4084   27.5266 C.3       1 UNK         0.0000 
     23 C23         5.3604   54.1297   27.8029 C.3       1 UNK         0.0000 
     24 C24         6.2040   54.2834   26.5273 C.3       1 UNK         0.0000 
     25 C25         5.4073   54.9795   25.4103 C.3       1 UNK         0.0000 
     26 C26         4.0772   54.2547   25.1299 C.3       1 UNK         0.0000 
     27 C27         0.8980   53.2200   28.5179 C.ar      1 UNK         0.0000 
     28 C28         1.1048   54.5169   29.0009 C.ar      1 UNK         0.0000 
     29 C29         0.9223   54.7941   30.3529 C.ar      1 UNK         0.0000 
     30 C30         0.5204   53.7760   31.2162 C.ar      1 UNK         0.0000 
     31 C31         0.3044   52.4898   30.7438 C.ar      1 UNK         0.0000 
     32 C32         0.4925   52.2099   29.3983 C.ar      1 UNK         0.0000 
     33 Cl33        0.3044   54.0972   32.8929 Cl        1 UNK         0.0000 
     34 H34        -5.5117   52.2163   27.4306 H         1 UNK         0.0000 
     35 H35        -4.5848   53.3902   25.4659 H         1 UNK         0.0000 
     36 H36        -2.8259   52.3131   24.1045 H         1 UNK         0.0000 
     37 H37        -2.9095   48.8979   26.7212 H         1 UNK         0.0000 
     38 H38        -4.6739   49.9751   28.0649 H         1 UNK         0.0000 
     39 H39        -0.9966   50.6101   24.3555 H         1 UNK         0.0000 
     40 H40        -0.4936   47.8997   22.4094 H         1 UNK         0.0000 
     41 H41         1.3169   48.9423   24.0178 H         1 UNK         0.0000 
     42 H42         2.7032   50.6834   23.6353 H         1 UNK         0.0000 
     43 H43         2.7286   51.1065   21.9412 H         1 UNK         0.0000 
     44 H44         2.8185   55.0285   26.7302 H         1 UNK         0.0000 
     45 H45         3.4890   53.4438   28.4701 H         1 UNK         0.0000 
     46 H46         4.1796   52.3555   27.3313 H         1 UNK         0.0000 
     47 H47         5.1659   55.1146   28.2308 H         1 UNK         0.0000 
     48 H48         5.9281   53.5814   28.5555 H         1 UNK         0.0000 
     49 H49         7.1100   54.8473   26.7498 H         1 UNK         0.0000 
     50 H50         6.5306   53.2982   26.1878 H         1 UNK         0.0000 
     51 H51         5.2103   56.0171   25.6812 H         1 UNK         0.0000 
     52 H52         6.0067   55.0182   24.4999 H         1 UNK         0.0000 
     53 H53         4.2692   53.2970   24.6461 H         1 UNK         0.0000 
     54 H54         3.5467   54.8867   24.4166 H         1 UNK         0.0000 
     55 H55         1.3723   55.3212   28.3340 H         1 UNK         0.0000 
     56 H56         1.0793   55.7955   30.7286 H         1 UNK         0.0000 
     57 H57        -0.0272   51.7058   31.4130 H         1 UNK         0.0000 
     58 H58         0.2978   51.2085   29.0380 H         1 UNK         0.0000 
@<TRIPOS>BOND
     1    1    6 ar   
     2    1    2 ar   
     3    1   34 1    
     4    2    3 ar   
     5    2   35 1    
     6    3    4 ar   
     7    3   36 1    
     8    4    5 ar   
     9    4    7 1    
    10    5    6 ar   
    11    5   37 1    
    12    6   38 1    
    13    7    8 1    
    14    7   39 1    
    15    8    9 2    
    16    8   10 1    
    17   10   11 1    
    18   10   40 1    
    19   11   12 am   BACKBONE|DICT|INTERRES
    20   11   41 1    
    21   12   13 2    
    22   12   14 1    
    23   14   15 1    
    24   14   42 1    
    25   14   43 1    
    26   15   16 1    
    27   16   20 ar   
    28   16   17 ar   
    29   17   18 ar   
    30   18   19 ar   
    31   19   20 ar   
    32   19   27 1    
    33   20   21 1    
    34   21   26 1    
    35   21   22 1    
    36   21   44 1    
    37   22   23 1    
    38   22   45 1    
    39   22   46 1    
    40   23   24 1    
    41   23   47 1    
    42   23   48 1    
    43   24   25 1    
    44   24   49 1    
    45   24   50 1    
    46   25   26 1    
    47   25   51 1    
    48   25   52 1    
    49   26   53 1    
    50   26   54 1    
    51   27   32 ar   
    52   27   28 ar   
    53   28   29 ar   
    54   28   55 1    
    55   29   30 ar   
    56   29   56 1    
    57   30   31 ar   
    58   30   33 1    
    59   31   32 ar   
    60   31   57 1    
    61   32   58 1    
@<TRIPOS>SUBSTRUCTURE
     1 UNK         1 GROUP             0       ****    0 ROOT    
