ZINC25339827_436
                    3D
 Schrodinger Suite 2024-2.
 63 65  0  0  1  0            999 V2000
    2.6466   53.8678   15.8305 C   0  0  0  0  0  0
    3.2914   53.8253   17.2099 C   0  0  0  0  0  0
    3.0594   52.7196   18.0290 C   0  0  0  0  0  0
    3.6352   52.6458   19.2923 C   0  0  0  0  0  0
    4.4565   53.6746   19.7766 C   0  0  0  0  0  0
    4.6712   54.7972   18.9557 C   0  0  0  0  0  0
    4.1103   54.8673   17.6762 C   0  0  0  0  0  0
    4.3790   55.9704   16.8604 N   0  0  0  0  0  0
    5.7154   55.9563   15.7031 S   0  0  0  0  0  0
    5.9830   54.5604   15.3407 O   0  0  0  0  0  0
    5.3319   56.8839   14.6364 O   0  0  0  0  0  0
    7.1392   56.6377   16.6293 C   0  0  0  0  0  0
    8.0301   55.7852   17.3335 C   0  0  0  0  0  0
    9.1152   56.3281   18.0270 C   0  0  0  0  0  0
    9.3590   57.6957   18.0247 C   0  0  0  0  0  0
    8.5035   58.5372   17.3245 C   0  0  0  0  0  0
    7.4079   58.0311   16.6195 C   0  0  0  0  0  0
    6.5481   59.0576   15.8859 C   0  0  0  0  0  0
   10.5380   58.2635   18.7935 C   0  0  0  0  0  0
    7.8764   54.2689   17.4093 C   0  0  0  0  0  0
    5.1001   53.5220   21.1373 C   0  0  0  0  0  0
    5.1056   52.4240   21.6976 O   0  0  0  0  0  0
    5.6005   54.6288   21.7162 N   0  0  0  0  0  0
    6.2198   54.6890   23.0507 C   0  0  0  0  0  0
    5.3101   54.4966   24.2754 C   0  0  0  0  0  0
    5.8914   54.4967   25.5484 C   0  0  0  0  0  0
    5.1092   54.2978   26.6864 C   0  0  0  0  0  0
    3.7263   54.0931   26.5585 C   0  0  0  0  0  0
    3.1473   54.0968   25.2898 C   0  0  0  0  0  0
    3.9273   54.3062   24.1602 C   0  0  0  0  0  0
    2.8481   53.8465   27.6298 N   0  0  0  0  0  0
    3.0290   54.0232   28.9523 C   0  0  0  0  0  0
    4.0307   54.4967   29.4866 O   0  0  0  0  0  0
    1.8555   53.6021   29.8322 C   0  0  0  0  0  0
    1.9083   53.0750   15.6951 H   0  0  0  0  0  0
    2.1377   54.8211   15.6805 H   0  0  0  0  0  0
    3.4059   53.7734   15.0536 H   0  0  0  0  0  0
    2.4506   51.8987   17.6831 H   0  0  0  0  0  0
    3.4537   51.7583   19.8817 H   0  0  0  0  0  0
    5.3087   55.6070   19.2789 H   0  0  0  0  0  0
    3.8868   56.8388   17.0076 H   0  0  0  0  0  0
    9.7890   55.6793   18.5702 H   0  0  0  0  0  0
    8.6932   59.6008   17.3224 H   0  0  0  0  0  0
    6.8407   60.0888   16.0849 H   0  0  0  0  0  0
    6.6265   58.9224   14.8077 H   0  0  0  0  0  0
    5.5011   58.9664   16.1752 H   0  0  0  0  0  0
   10.3562   59.2948   19.0962 H   0  0  0  0  0  0
   10.7037   57.6972   19.7090 H   0  0  0  0  0  0
   11.4463   58.2194   18.1924 H   0  0  0  0  0  0
    8.4825   53.8308   18.2014 H   0  0  0  0  0  0
    6.8514   53.9783   17.6226 H   0  0  0  0  0  0
    8.1669   53.8094   16.4660 H   0  0  0  0  0  0
    5.4747   55.5074   21.2378 H   0  0  0  0  0  0
    6.7054   55.6614   23.1475 H   0  0  0  0  0  0
    7.0244   53.9512   23.0981 H   0  0  0  0  0  0
    6.9565   54.6311   25.6574 H   0  0  0  0  0  0
    5.5946   54.2839   27.6499 H   0  0  0  0  0  0
    2.0850   53.9378   25.1652 H   0  0  0  0  0  0
    3.4389   54.3096   23.1995 H   0  0  0  0  0  0
    1.9416   53.5067   27.3516 H   0  0  0  0  0  0
    1.2019   54.4544   30.0225 H   0  0  0  0  0  0
    2.2131   53.2231   30.7901 H   0  0  0  0  0  0
    1.2674   52.8114   29.3617 H   0  0  0  0  0  0
  1  2  1  0  0  0
  1 35  1  0  0  0
  1 36  1  0  0  0
  1 37  1  0  0  0
  2  7  2  0  0  0
  2  3  1  0  0  0
  3  4  2  0  0  0
  3 38  1  0  0  0
  4  5  1  0  0  0
  4 39  1  0  0  0
  5  6  2  0  0  0
  5 21  1  0  0  0
  6  7  1  0  0  0
  6 40  1  0  0  0
  7  8  1  0  0  0
  8  9  1  0  0  0
  8 41  1  0  0  0
  9 10  2  0  0  0
  9 11  2  0  0  0
  9 12  1  0  0  0
 12 17  2  0  0  0
 12 13  1  0  0  0
 13 14  2  0  0  0
 13 20  1  0  0  0
 14 15  1  0  0  0
 14 42  1  0  0  0
 15 16  2  0  0  0
 15 19  1  0  0  0
 16 17  1  0  0  0
 16 43  1  0  0  0
 17 18  1  0  0  0
 18 44  1  0  0  0
 18 45  1  0  0  0
 18 46  1  0  0  0
 19 47  1  0  0  0
 19 48  1  0  0  0
 19 49  1  0  0  0
 20 50  1  0  0  0
 20 51  1  0  0  0
 20 52  1  0  0  0
 21 22  2  0  0  0
 21 23  1  0  0  0
 23 24  1  0  0  0
 23 53  1  0  0  0
 24 25  1  0  0  0
 24 54  1  0  0  0
 24 55  1  0  0  0
 25 30  2  0  0  0
 25 26  1  0  0  0
 26 27  2  0  0  0
 26 56  1  0  0  0
 27 28  1  0  0  0
 27 57  1  0  0  0
 28 29  2  0  0  0
 28 31  1  0  0  0
 29 30  1  0  0  0
 29 58  1  0  0  0
 30 59  1  0  0  0
 31 32  1  0  0  0
 31 60  1  0  0  0
 32 33  2  0  0  0
 32 34  1  0  0  0
 34 61  1  0  0  0
 34 62  1  0  0  0
 34 63  1  0  0  0
M  END
> <i_i_glide_confnum>
88

> <i_i_glide_lignum>
437

> <i_i_glide_posenum>
322

> <i_i_glide_rotatable_bonds>
9

> <i_m_Source_File_Index>
5903

> <b_m_subgroup_collapsed>
0

> <r_i_docking_score>
-4.1065

> <r_i_glide_ecoul>
-1.44125

> <r_i_glide_eff_state_penalty>
0

> <r_i_glide_einternal>
3.76347

> <r_i_glide_emodel>
-53.1245

> <r_i_glide_energy>
-42.1393

> <r_i_glide_erotb>
0.705118

> <r_i_glide_esite>
-0.000238685

> <r_i_glide_evdw>
-40.6981

> <r_i_glide_gscore>
-4.1065

> <r_i_glide_hbond>
0

> <r_i_glide_ligand_efficiency>
-0.120779

> <r_i_glide_ligand_efficiency_ln>
-0.907242

> <r_i_glide_ligand_efficiency_sa>
-0.391279

> <r_i_glide_lipo>
-1.97953

> <r_i_glide_metal>
0

> <r_i_glide_rewards>
-0.580755

> <s_i_glide_gridfile>
wee1_glide-grid

> <s_m_Source_File>
wee1_decoys_glide_SP.sdf

> <s_m_Source_Path>
/Users/zhangxujun/Desktop

> <s_m_entry_id>
6178

> <s_m_entry_name>
wee1_decoys_glide_SP.5903

> <s_m_subgroup_title>
wee1_decoys_glide_SP

> <s_m_subgroupid>
wee1_decoys_glide_SP


$$$$
