@<TRIPOS>MOLECULE
ZINC33058379_4546
51   54    1
SMALL
USER_CHARGES


@<TRIPOS>ATOM
      1 C1         -2.0958   45.8349   22.4365 C.3       1 UNK         0.0000 
      2 C2         -2.1978   47.3101   22.7592 C.ar      1 UNK         0.0000 
      3 C3         -2.1016   48.2479   21.7318 C.ar      1 UNK         0.0000 
      4 C4         -2.1894   49.6047   22.0215 C.ar      1 UNK         0.0000 
      5 C5         -2.3710   50.0212   23.3414 C.ar      1 UNK         0.0000 
      6 C6         -2.4555   49.0847   24.3733 C.ar      1 UNK         0.0000 
      7 C7         -2.3618   47.7273   24.0820 C.ar      1 UNK         0.0000 
      8 S8         -2.4913   51.7638   23.7147 S.o2      1 UNK         0.0000 
      9 O9         -3.7588   51.9776   24.4222 O.2       1 UNK         0.0000 
     10 O10        -2.1770   52.4967   22.4822 O.2       1 UNK         0.0000 
     11 C11        -1.1286   52.0609   24.8855 C.2       1 UNK         0.0000 
     12 C12        -1.2458   51.9851   26.2879 C.2       1 UNK         0.0000 
     13 C13        -0.0594   52.2361   26.9803 C.2       1 UNK         0.0000 
     14 S14         1.2352   52.4969   25.8518 S.3       1 UNK         0.0000 
     15 C15         0.1751   52.3487   24.4835 C.2       1 UNK         0.0000 
     16 N16         0.6233   52.4368   23.1807 N.pl3     1 UNK         0.0000 
     17 C17         1.8750   52.8089   22.6630 C.ar      1 UNK         0.0000 
     18 C18         2.6973   53.7641   23.2732 C.ar      1 UNK         0.0000 
     19 C19         3.9238   54.0965   22.7051 C.ar      1 UNK         0.0000 
     20 C20         4.3212   53.4952   21.5144 C.ar      1 UNK         0.0000 
     21 C21         3.5067   52.5535   20.8915 C.ar      1 UNK         0.0000 
     22 C22         2.2804   52.2187   21.4632 C.ar      1 UNK         0.0000 
     23 F23         5.5042   53.8375   20.9570 F         1 UNK         0.0000 
     24 C24         0.2127   52.2944   28.4242 C.2       1 UNK         0.0000 
     25 O25        -0.5710   51.8096   29.2394 O.2       1 UNK         0.0000 
     26 C26         1.4815   52.9195   28.8836 C.ar      1 UNK         0.0000 
     27 C27         2.5486   52.1133   29.2907 C.ar      1 UNK         0.0000 
     28 C28         3.7494   52.7011   29.6816 C.ar      1 UNK         0.0000 
     29 C29         3.8712   54.0897   29.6724 C.ar      1 UNK         0.0000 
     30 C30         2.8052   54.8975   29.2816 C.ar      1 UNK         0.0000 
     31 C31         1.6077   54.3123   28.8820 C.ar      1 UNK         0.0000 
     32 N32        -2.4209   51.6967   26.9165 N.pl3     1 UNK         0.0000 
     33 H33        -1.4063   45.6635   21.6094 H         1 UNK         0.0000 
     34 H34        -1.6958   45.2965   23.2898 H         1 UNK         0.0000 
     35 H35        -3.0724   45.4276   22.1743 H         1 UNK         0.0000 
     36 H36        -1.9661   47.9295   20.7088 H         1 UNK         0.0000 
     37 H37        -2.1227   50.3228   21.2177 H         1 UNK         0.0000 
     38 H38        -2.5884   49.3968   25.3998 H         1 UNK         0.0000 
     39 H39        -2.4217   47.0097   24.8874 H         1 UNK         0.0000 
     40 H40        -0.0138   52.1455   22.4523 H         1 UNK         0.0000 
     41 H41         2.3893   54.2739   24.1724 H         1 UNK         0.0000 
     42 H42         4.5583   54.8316   23.1770 H         1 UNK         0.0000 
     43 H43         3.8241   52.0948   19.9647 H         1 UNK         0.0000 
     44 H44         1.6556   51.4885   20.9682 H         1 UNK         0.0000 
     45 H45         2.4553   51.0372   29.2780 H         1 UNK         0.0000 
     46 H46         4.5852   52.0849   29.9788 H         1 UNK         0.0000 
     47 H47         4.8052   54.5473   29.9623 H         1 UNK         0.0000 
     48 H48         2.9104   55.9733   29.2762 H         1 UNK         0.0000 
     49 H49         0.7898   54.9459   28.5660 H         1 UNK         0.0000 
     50 H50        -3.2833   51.5969   26.3956 H         1 UNK         0.0000 
     51 H51        -2.4343   51.4591   27.9012 H         1 UNK         0.0000 
@<TRIPOS>BOND
     1    1    2 1    
     2    1   33 1    
     3    1   34 1    
     4    1   35 1    
     5    2    7 ar   
     6    2    3 ar   
     7    3    4 ar   
     8    3   36 1    
     9    4    5 ar   
    10    4   37 1    
    11    5    6 ar   
    12    5    8 1    
    13    6    7 ar   
    14    6   38 1    
    15    7   39 1    
    16    8    9 2    
    17    8   10 2    
    18    8   11 1    
    19   11   15 2    
    20   11   12 1    
    21   12   13 2    
    22   12   32 1    
    23   13   14 1    
    24   13   24 1    
    25   14   15 1    
    26   15   16 1    
    27   16   17 1    
    28   16   40 1    
    29   17   22 ar   
    30   17   18 ar   
    31   18   19 ar   
    32   18   41 1    
    33   19   20 ar   
    34   19   42 1    
    35   20   21 ar   
    36   20   23 1    
    37   21   22 ar   
    38   21   43 1    
    39   22   44 1    
    40   24   25 2    
    41   24   26 1    
    42   26   31 ar   
    43   26   27 ar   
    44   27   28 ar   
    45   27   45 1    
    46   28   29 ar   
    47   28   46 1    
    48   29   30 ar   
    49   29   47 1    
    50   30   31 ar   
    51   30   48 1    
    52   31   49 1    
    53   32   50 1    
    54   32   51 1    
@<TRIPOS>SUBSTRUCTURE
     1 UNK         1 GROUP             0       ****    0 ROOT    
