@<TRIPOS>MOLECULE
ZINC04606677_1366
40   42    1
SMALL
USER_CHARGES


@<TRIPOS>ATOM
      1 C1          6.1681   54.9751   19.6569 C.ar      1 UNK         0.0000 
      2 C2          7.1503   55.4971   20.4894 C.ar      1 UNK         0.0000 
      3 C3          7.0687   55.2969   21.8641 C.ar      1 UNK         0.0000 
      4 C4          6.0028   54.5799   22.4403 C.ar      1 UNK         0.0000 
      5 C5          4.9910   54.0609   21.5857 C.ar      1 UNK         0.0000 
      6 C6          5.1027   54.2638   20.2012 C.ar      1 UNK         0.0000 
      7 C7          3.8111   53.3289   22.0630 C.2       1 UNK         0.0000 
      8 N8          3.4778   52.1720   21.6431 N.2       1 UNK         0.0000 
      9 N9          2.3256   51.7581   22.2056 N.am      1 UNK         0.0000 
     10 C10         1.8123   50.5177   22.0912 C.2       1 UNK         0.0000 
     11 O11         2.3064   49.6222   21.4057 O.2       1 UNK         0.0000 
     12 C12         0.5181   50.2326   22.8805 C.3       1 UNK         0.0000 
     13 C13         0.5298   50.6938   24.3714 C.3       1 UNK         0.0000 
     14 H14         1.4217   50.3088   24.8646 H         1 UNK         0.0000 
     15 C15        -0.6591   50.1031   25.1859 C.2       1 UNK         0.0000 
     16 O16        -1.5071   49.3337   24.7388 O.2       1 UNK         0.0000 
     17 N17        -0.6475   50.4967   26.4812 N.am      1 UNK         0.0000 
     18 C18         0.1430   51.4853   27.0947 C.ar      1 UNK         0.0000 
     19 C19         0.2405   51.5261   28.4873 C.ar      1 UNK         0.0000 
     20 C20         1.0535   52.4727   29.1121 C.ar      1 UNK         0.0000 
     21 C21         1.7707   53.3916   28.3456 C.ar      1 UNK         0.0000 
     22 C22         1.6507   53.3826   26.9559 C.ar      1 UNK         0.0000 
     23 C23         0.8219   52.4496   26.3322 C.ar      1 UNK         0.0000 
     24 S24         0.5390   52.5156   24.5887 S.3       1 UNK         0.0000 
     25 N25         6.0031   54.4042   23.9202 N.pl3     1 UNK         0.0000 
     26 O26         7.0882   54.3301   24.4923 O.co2     1 UNK         0.0000 
     27 O27         4.9383   54.3773   24.5294 O.co2     1 UNK         0.0000 
     28 H28         6.2309   55.1177   18.5878 H         1 UNK         0.0000 
     29 H29         7.9845   56.0402   20.0683 H         1 UNK         0.0000 
     30 H30         7.8573   55.7004   22.4836 H         1 UNK         0.0000 
     31 H31         4.3509   53.8716   19.5284 H         1 UNK         0.0000 
     32 H32         3.2317   53.8817   22.8024 H         1 UNK         0.0000 
     33 H33         1.8752   52.4326   22.8068 H         1 UNK         0.0000 
     34 H34         0.3742   49.1510   22.8393 H         1 UNK         0.0000 
     35 H35        -0.3149   50.6847   22.3414 H         1 UNK         0.0000 
     36 H36        -1.2956   49.9709   27.0599 H         1 UNK         0.0000 
     37 H37        -0.3096   50.8224   29.0936 H         1 UNK         0.0000 
     38 H38         1.1258   52.4899   30.1901 H         1 UNK         0.0000 
     39 H39         2.4044   54.1218   28.8269 H         1 UNK         0.0000 
     40 H40         2.1848   54.1106   26.3633 H         1 UNK         0.0000 
@<TRIPOS>BOND
     1    1    6 ar   
     2    1    2 ar   
     3    1   28 1    
     4    2    3 ar   
     5    2   29 1    
     6    3    4 ar   
     7    3   30 1    
     8    4    5 ar   
     9    4   25 1    
    10    5    6 ar   
    11    5    7 1    
    12    6   31 1    
    13    7    8 2    
    14    7   32 1    
    15    8    9 1    
    16    9   10 am   BACKBONE|DICT|INTERRES
    17    9   33 1    
    18   10   11 2    
    19   10   12 1    
    20   12   13 1    
    21   12   34 1    
    22   12   35 1    
    23   13   14 1    
    24   13   24 1    
    25   13   15 1    
    26   15   16 2    
    27   15   17 am   BACKBONE|DICT|INTERRES
    28   17   18 1    
    29   17   36 1    
    30   18   23 ar   
    31   18   19 ar   
    32   19   20 ar   
    33   19   37 1    
    34   20   21 ar   
    35   20   38 1    
    36   21   22 ar   
    37   21   39 1    
    38   22   23 ar   
    39   22   40 1    
    40   23   24 1    
    41   25   26 2    
    42   25   27 1    
@<TRIPOS>SUBSTRUCTURE
     1 UNK         1 GROUP             0       ****    0 ROOT    
