@<TRIPOS>MOLECULE
ZINC20744942_6183
28   30    1
SMALL
USER_CHARGES


@<TRIPOS>ATOM
      1 C1          1.0520   52.0921   25.3483 C.ar      1 UNK         0.0000 
      2 C2          1.2663   52.8938   26.4670 C.ar      1 UNK         0.0000 
      3 C3          0.5084   52.7248   27.6403 C.ar      1 UNK         0.0000 
      4 C4         -0.4708   51.7108   27.6575 C.ar      1 UNK         0.0000 
      5 C5         -0.6641   50.8970   26.5410 C.ar      1 UNK         0.0000 
      6 C6          0.0905   51.0874   25.3876 C.ar      1 UNK         0.0000 
      7 F7         -0.1098   50.3001   24.3073 F         1 UNK         0.0000 
      8 Cl8        -1.4848   51.4370   29.0323 Cl        1 UNK         0.0000 
      9 C9          0.7036   53.6430   28.8645 C.3       1 UNK         0.0000 
     10 H10        -0.3037   53.9731   29.1210 H         1 UNK         0.0000 
     11 C11         1.2793   52.9313   30.0760 C.ar      1 UNK         0.0000 
     12 C12         0.6941   52.6509   31.2998 C.ar      1 UNK         0.0000 
     13 N13         1.6714   52.0972   32.0791 N.pl3     1 UNK         0.0000 
     14 H14         1.5707   51.8600   33.0614 H         1 UNK         0.0000 
     15 N15         2.8509   52.0345   31.4511 N.2       1 UNK         0.0000 
     16 C16         2.5953   52.4579   30.2362 C.ar      1 UNK         0.0000 
     17 N17         3.5809   52.5155   29.2772 N.am      1 UNK         0.0000 
     18 C18         3.9224   53.5793   28.5285 C.2       1 UNK         0.0000 
     19 O19         4.6418   53.5100   27.5365 O.2       1 UNK         0.0000 
     20 C20         3.2819   54.8958   28.9978 C.3       1 UNK         0.0000 
     21 S21         1.5509   55.2340   28.4934 S.3       1 UNK         0.0000 
     22 H22         1.6401   52.2394   24.4544 H         1 UNK         0.0000 
     23 H23         2.0275   53.6546   26.3927 H         1 UNK         0.0000 
     24 H24        -1.4015   50.1068   26.5754 H         1 UNK         0.0000 
     25 H25        -0.3028   52.8213   31.6820 H         1 UNK         0.0000 
     26 H26         3.9742   51.6439   28.9586 H         1 UNK         0.0000 
     27 H27         3.3370   54.9541   30.0802 H         1 UNK         0.0000 
     28 H28         3.9056   55.6965   28.6257 H         1 UNK         0.0000 
@<TRIPOS>BOND
     1    1    6 ar   
     2    1    2 ar   
     3    1   22 1    
     4    2    3 ar   
     5    2   23 1    
     6    3    4 ar   
     7    3    9 1    
     8    4    5 ar   
     9    4    8 1    
    10    5    6 ar   
    11    5   24 1    
    12    6    7 1    
    13    9   10 1    
    14    9   21 1    
    15    9   11 1    
    16   11   16 ar   
    17   11   12 ar   
    18   12   13 ar   
    19   12   25 1    
    20   13   14 1    
    21   13   15 ar   
    22   15   16 ar   
    23   16   17 1    
    24   17   18 am   BACKBONE|DICT|INTERRES
    25   17   26 1    
    26   18   19 2    
    27   18   20 1    
    28   20   21 1    
    29   20   27 1    
    30   20   28 1    
@<TRIPOS>SUBSTRUCTURE
     1 UNK         1 GROUP             0       ****    0 ROOT    
