@<TRIPOS>MOLECULE
ZINC15958442_1219
74   77    1
SMALL
USER_CHARGES


@<TRIPOS>ATOM
      1 C1          4.8718   54.7591   25.9653 C.3       1 UNK         0.0000 
      2 C2          3.7491   54.1819   25.1234 C.ar      1 UNK         0.0000 
      3 C3          3.7419   54.3549   23.7394 C.ar      1 UNK         0.0000 
      4 C4          2.7055   53.8338   22.9703 C.ar      1 UNK         0.0000 
      5 C5          1.6713   53.1123   23.5712 C.ar      1 UNK         0.0000 
      6 C6          1.6688   52.9258   24.9670 C.ar      1 UNK         0.0000 
      7 C7          2.7092   53.4816   25.7329 C.ar      1 UNK         0.0000 
      8 N8          0.6432   52.1360   25.5170 N.am      1 UNK         0.0000 
      9 C9          0.2768   51.9401   26.8028 C.2       1 UNK         0.0000 
     10 O10         0.7538   52.5448   27.7618 O.2       1 UNK         0.0000 
     11 C11        -0.8276   50.9081   27.1002 C.3       1 UNK         0.0000 
     12 C12        -0.2612   48.9526   25.5921 C.3       1 UNK         0.0000 
     13 C13        -0.6845   48.1763   24.3407 C.3       1 UNK         0.0000 
     14 C14        -2.0889   47.5527   24.4610 C.3       1 UNK         0.0000 
     15 C15        -2.4965   46.7878   23.1710 C.3       1 UNK         0.0000 
     16 C16        -3.9516   46.2664   23.1803 C.3       1 UNK         0.0000 
     17 C17        -4.9604   47.3817   23.5134 C.3       1 UNK         0.0000 
     18 C18        -4.5725   48.1182   24.8109 C.3       1 UNK         0.0000 
     19 C19        -3.1285   48.6925   24.7388 C.3       1 UNK         0.0000 
     20 H20        -3.1001   49.3545   23.8708 H         1 UNK         0.0000 
     21 C21        -2.7551   49.5554   25.9870 C.3       1 UNK         0.0000 
     22 H22        -2.7839   48.9336   26.8816 H         1 UNK         0.0000 
     23 C23        -3.7130   50.7349   26.2107 C.ar      1 UNK         0.0000 
     24 C24        -4.5969   50.7323   27.2910 C.ar      1 UNK         0.0000 
     25 C25        -5.4980   51.7919   27.4925 C.ar      1 UNK         0.0000 
     26 C26        -5.4930   52.8740   26.5992 C.ar      1 UNK         0.0000 
     27 C27        -4.5870   52.9006   25.5247 C.ar      1 UNK         0.0000 
     28 C28        -3.7141   51.8212   25.3368 C.ar      1 UNK         0.0000 
     29 O29        -4.6105   53.9993   24.6906 O.3       1 UNK         0.0000 
     30 C30        -3.6057   54.1451   23.6983 C.3       1 UNK         0.0000 
     31 O31        -6.4358   53.8718   26.7600 O.3       1 UNK         0.0000 
     32 C32        -5.9735   55.1812   27.0803 C.3       1 UNK         0.0000 
     33 O33        -6.3957   51.8423   28.5457 O.3       1 UNK         0.0000 
     34 C34        -6.4276   50.7776   29.4922 C.3       1 UNK         0.0000 
     35 O35        -2.1158   46.6374   25.5499 O.3       1 UNK         0.0000 
     36 C36         0.5700   52.5439   22.6826 C.3       1 UNK         0.0000 
     37 H37         4.4935   55.0927   26.9340 H         1 UNK         0.0000 
     38 H38         5.6424   54.0069   26.1394 H         1 UNK         0.0000 
     39 H39         5.3206   55.6301   25.4877 H         1 UNK         0.0000 
     40 H40         4.5404   54.8964   23.2542 H         1 UNK         0.0000 
     41 H41         2.7158   53.9849   21.9007 H         1 UNK         0.0000 
     42 H42         2.7607   53.3414   26.8000 H         1 UNK         0.0000 
     43 H43         0.1083   51.6526   24.8170 H         1 UNK         0.0000 
     44 H44        -0.4957   50.1903   27.8488 H         1 UNK         0.0000 
     45 H45        -1.6806   51.4338   27.5250 H         1 UNK         0.0000 
     46 H46         0.7125   49.4123   25.4171 H         1 UNK         0.0000 
     47 H47        -0.2031   48.3274   26.4810 H         1 UNK         0.0000 
     48 H48        -0.6568   48.8413   23.4751 H         1 UNK         0.0000 
     49 H49         0.0470   47.4073   24.0949 H         1 UNK         0.0000 
     50 H50        -2.3792   47.4581   22.3189 H         1 UNK         0.0000 
     51 H51        -1.7833   45.9893   22.9630 H         1 UNK         0.0000 
     52 H52        -4.0521   45.4687   23.9149 H         1 UNK         0.0000 
     53 H53        -4.1974   45.8213   22.2144 H         1 UNK         0.0000 
     54 H54        -5.9625   46.9612   23.6132 H         1 UNK         0.0000 
     55 H55        -5.0103   48.0935   22.6875 H         1 UNK         0.0000 
     56 H56        -4.6782   47.4650   25.6794 H         1 UNK         0.0000 
     57 H57        -5.2916   48.9210   24.9850 H         1 UNK         0.0000 
     58 H58        -4.5787   49.8923   27.9671 H         1 UNK         0.0000 
     59 H59        -3.0313   51.8092   24.5032 H         1 UNK         0.0000 
     60 H60        -3.7341   55.1373   23.2817 H         1 UNK         0.0000 
     61 H61        -2.5873   54.0949   24.0818 H         1 UNK         0.0000 
     62 H62        -3.6936   53.4002   22.9126 H         1 UNK         0.0000 
     63 H63        -6.7853   55.8844   26.9014 H         1 UNK         0.0000 
     64 H64        -5.6959   55.2929   28.1255 H         1 UNK         0.0000 
     65 H65        -5.1249   55.5076   26.4821 H         1 UNK         0.0000 
     66 H66        -7.1779   50.9904   30.2510 H         1 UNK         0.0000 
     67 H67        -6.6973   49.8323   29.0179 H         1 UNK         0.0000 
     68 H68        -5.4693   50.6632   30.0030 H         1 UNK         0.0000 
     69 H69        -1.8310   47.0887   26.3525 H         1 UNK         0.0000 
     70 H70        -0.4055   52.8907   23.0281 H         1 UNK         0.0000 
     71 H71         0.6791   52.8490   21.6407 H         1 UNK         0.0000 
     72 H72         0.5724   51.4553   22.7213 H         1 UNK         0.0000 
     73 N73        -1.2896   50.0871   25.8525 N.4       1 UNK         0.0000 
     74 H74        -1.3061   50.6680   25.0280 H         1 UNK         0.0000 
@<TRIPOS>BOND
     1    1    2 1    
     2    1   37 1    
     3    1   38 1    
     4    1   39 1    
     5    2    7 ar   
     6    2    3 ar   
     7    3    4 ar   
     8    3   40 1    
     9    4    5 ar   
    10    4   41 1    
    11    5    6 ar   
    12    5   36 1    
    13    6    7 ar   
    14    6    8 1    
    15    7   42 1    
    16    8    9 am   BACKBONE|DICT|INTERRES
    17    8   43 1    
    18    9   10 2    
    19    9   11 1    
    20   11   44 1    
    21   11   45 1    
    22   11   73 1    
    23   12   13 1    
    24   12   46 1    
    25   12   47 1    
    26   12   73 1    
    27   13   14 1    
    28   13   48 1    
    29   13   49 1    
    30   14   19 1    
    31   14   15 1    
    32   14   35 1    
    33   15   16 1    
    34   15   50 1    
    35   15   51 1    
    36   16   17 1    
    37   16   52 1    
    38   16   53 1    
    39   17   18 1    
    40   17   54 1    
    41   17   55 1    
    42   18   19 1    
    43   18   56 1    
    44   18   57 1    
    45   19   20 1    
    46   19   21 1    
    47   21   22 1    
    48   21   23 1    
    49   21   73 1    
    50   23   28 ar   
    51   23   24 ar   
    52   24   25 ar   
    53   24   58 1    
    54   25   26 ar   
    55   25   33 1    
    56   26   27 ar   
    57   26   31 1    
    58   27   28 ar   
    59   27   29 1    
    60   28   59 1    
    61   29   30 1    
    62   30   60 1    
    63   30   61 1    
    64   30   62 1    
    65   31   32 1    
    66   32   63 1    
    67   32   64 1    
    68   32   65 1    
    69   33   34 1    
    70   34   66 1    
    71   34   67 1    
    72   34   68 1    
    73   35   69 1    
    74   36   70 1    
    75   36   71 1    
    76   36   72 1    
    77   73   74 1    
@<TRIPOS>SUBSTRUCTURE
     1 UNK         1 GROUP             0       ****    0 ROOT    
