ZINC13988374_3520
                    3D
 Schrodinger Suite 2024-2.
 46 47  0  0  1  0            999 V2000
    2.3764   46.6472   16.3342 C   0  0  0  0  0  0
    1.0070   46.7040   17.0619 C   0  0  0  0  0  0
   -0.0015   47.4904   16.1869 C   0  0  0  0  0  0
    0.4724   45.2519   17.2130 C   0  0  0  0  0  0
    1.1264   47.4028   18.4550 C   0  0  0  0  0  0
    0.5777   46.8965   19.4375 O   0  0  0  0  0  0
    1.8135   48.5771   18.4816 N   0  0  0  0  0  0
    1.8654   49.6101   19.3863 C   0  0  0  0  0  0
    1.0094   49.7291   20.8385 S   0  0  0  0  0  0
    2.7044   50.5833   18.9148 N   0  0  0  0  0  0
    2.8423   51.8825   19.4210 N   0  0  0  0  0  0
    3.7377   52.1486   20.3948 C   0  0  0  0  0  0
    4.4394   51.2976   20.9500 O   0  0  0  0  0  0
    3.8536   53.6376   20.7601 C   0  0  0  0  0  0
    4.7566   53.8442   21.8423 O   0  0  0  0  0  0
    4.3224   53.8752   23.1558 C   0  0  0  0  0  0
    2.9967   53.6955   23.5695 C   0  0  0  0  0  0
    2.6565   53.7268   24.9189 C   0  0  0  0  0  0
    3.6472   53.9464   25.9052 C   0  0  0  0  0  0
    3.3311   53.9517   27.2863 C   0  0  0  0  0  0
    4.3310   54.1363   28.2356 C   0  0  0  0  0  0
    5.6485   54.3421   27.8476 C   0  0  0  0  0  0
    5.9921   54.3475   26.5007 C   0  0  0  0  0  0
    5.0034   54.1403   25.4995 C   0  0  0  0  0  0
    5.3128   54.0977   24.1122 C   0  0  0  0  0  0
    7.1043   54.3076   23.5076 Br  0  0  0  0  0  0
    3.8957   54.0969   30.0816 Br  0  0  0  0  0  0
    2.3265   46.0316   15.4351 H   0  0  0  0  0  0
    3.1664   46.2314   16.9609 H   0  0  0  0  0  0
    2.7040   47.6362   16.0111 H   0  0  0  0  0  0
   -0.9841   47.5598   16.6576 H   0  0  0  0  0  0
    0.3362   48.5094   15.9906 H   0  0  0  0  0  0
   -0.1434   47.0108   15.2178 H   0  0  0  0  0  0
   -0.5311   45.2337   17.6431 H   0  0  0  0  0  0
    0.4130   44.7426   16.2501 H   0  0  0  0  0  0
    1.1050   44.6446   17.8610 H   0  0  0  0  0  0
    2.3014   48.7712   17.6168 H   0  0  0  0  0  0
    3.4415   50.3619   18.2514 H   0  0  0  0  0  0
    2.2518   52.5628   18.9667 H   0  0  0  0  0  0
    4.2624   54.1708   19.9012 H   0  0  0  0  0  0
    2.8854   54.0788   20.9596 H   0  0  0  0  0  0
    2.2092   53.5016   22.8592 H   0  0  0  0  0  0
    1.6308   53.5690   25.2208 H   0  0  0  0  0  0
    2.3092   53.7914   27.5999 H   0  0  0  0  0  0
    6.4112   54.4939   28.5984 H   0  0  0  0  0  0
    7.0247   54.4910   26.2224 H   0  0  0  0  0  0
  1  2  1  0  0  0
  1 28  1  0  0  0
  1 29  1  0  0  0
  1 30  1  0  0  0
  2  3  1  0  0  0
  2  4  1  0  0  0
  2  5  1  0  0  0
  3 31  1  0  0  0
  3 32  1  0  0  0
  3 33  1  0  0  0
  4 34  1  0  0  0
  4 35  1  0  0  0
  4 36  1  0  0  0
  5  6  2  0  0  0
  5  7  1  0  0  0
  7  8  1  0  0  0
  7 37  1  0  0  0
  8  9  2  0  0  0
  8 10  1  0  0  0
 10 11  1  0  0  0
 10 38  1  0  0  0
 11 12  1  0  0  0
 11 39  1  0  0  0
 12 13  2  0  0  0
 12 14  1  0  0  0
 14 15  1  0  0  0
 14 40  1  0  0  0
 14 41  1  0  0  0
 15 16  1  0  0  0
 16 25  2  0  0  0
 16 17  1  0  0  0
 17 18  2  0  0  0
 17 42  1  0  0  0
 18 19  1  0  0  0
 18 43  1  0  0  0
 19 24  2  0  0  0
 19 20  1  0  0  0
 20 21  2  0  0  0
 20 44  1  0  0  0
 21 22  1  0  0  0
 21 27  1  0  0  0
 22 23  2  0  0  0
 22 45  1  0  0  0
 23 24  1  0  0  0
 23 46  1  0  0  0
 24 25  1  0  0  0
 25 26  1  0  0  0
M  END
> <i_i_glide_confnum>
8

> <i_i_glide_lignum>
3521

> <i_i_glide_posenum>
400

> <i_i_glide_rotatable_bonds>
9

> <i_m_Source_File_Index>
5419

> <b_m_subgroup_collapsed>
0

> <r_i_docking_score>
-6.21748

> <r_i_glide_ecoul>
-9.85398

> <r_i_glide_eff_state_penalty>
0

> <r_i_glide_einternal>
7.38547

> <r_i_glide_emodel>
-63.185

> <r_i_glide_energy>
-47.4805

> <r_i_glide_erotb>
0.537186

> <r_i_glide_esite>
-0.349826

> <r_i_glide_evdw>
-37.6265

> <r_i_glide_gscore>
-6.21748

> <r_i_glide_hbond>
-0.33816

> <r_i_glide_ligand_efficiency>
-0.230277

> <r_i_glide_ligand_efficiency_ln>
-1.44733

> <r_i_glide_ligand_efficiency_sa>
-0.690831

> <r_i_glide_lipo>
-2.63537

> <r_i_glide_metal>
0

> <r_i_glide_rewards>
-0.0718854

> <s_i_glide_gridfile>
wee1_glide-grid

> <s_m_Source_File>
wee1_decoys_glide_SP.sdf

> <s_m_Source_Path>
/Users/zhangxujun/Desktop

> <s_m_entry_id>
5694

> <s_m_entry_name>
wee1_decoys_glide_SP.5419

> <s_m_subgroup_title>
wee1_decoys_glide_SP

> <s_m_subgroupid>
wee1_decoys_glide_SP


$$$$
