@<TRIPOS>MOLECULE
ZINC39227146_5250
66   70    1
SMALL
USER_CHARGES


@<TRIPOS>ATOM
      1 C1          2.1981   53.9882   24.1482 C.3       1 UNK         0.0000 
      2 C2          3.0201   53.8983   25.4345 C.ar      1 UNK         0.0000 
      3 C3          4.3791   54.2580   25.4657 C.ar      1 UNK         0.0000 
      4 C4          5.0637   54.2795   26.6794 C.ar      1 UNK         0.0000 
      5 C5          4.4105   53.9743   27.8713 C.ar      1 UNK         0.0000 
      6 C6          3.0502   53.6514   27.8664 C.ar      1 UNK         0.0000 
      7 C7          2.3866   53.5320   26.6304 C.ar      1 UNK         0.0000 
      8 O8          1.0738   53.0902   26.5263 O.3       1 UNK         0.0000 
      9 C9          0.5045   52.4115   27.6629 C.3       1 UNK         0.0000 
     10 C10        -1.0196   52.3327   27.4035 C.3       1 UNK         0.0000 
     11 C11        -1.4080   51.5288   26.1448 C.3       1 UNK         0.0000 
     12 N12        -0.8241   50.0968   26.2592 N.4       1 UNK         0.0000 
     13 C13         0.7040   50.1625   26.4583 C.3       1 UNK         0.0000 
     14 C14         0.9902   50.9476   27.7508 C.3       1 UNK         0.0000 
     15 C15        -1.1258   49.2691   24.9778 C.3       1 UNK         0.0000 
     16 C16        -2.5360   48.6634   24.9939 C.2       1 UNK         0.0000 
     17 O17        -3.2385   48.7965   23.9934 O.2       1 UNK         0.0000 
     18 N18        -2.8727   47.9400   26.0815 N.am      1 UNK         0.0000 
     19 C19        -4.0036   47.1359   26.2830 C.ar      1 UNK         0.0000 
     20 C20        -5.2363   47.3346   25.6427 C.ar      1 UNK         0.0000 
     21 C21        -6.2924   46.4617   25.8954 C.ar      1 UNK         0.0000 
     22 C22        -6.1161   45.3956   26.7730 C.ar      1 UNK         0.0000 
     23 C23        -4.8958   45.2013   27.4151 C.ar      1 UNK         0.0000 
     24 C24        -3.8448   46.0826   27.1848 C.ar      1 UNK         0.0000 
     25 F25        -7.1351   44.5404   27.0071 F         1 UNK         0.0000 
     26 C26         0.8101   53.2672   28.9178 C.3       1 UNK         0.0000 
     27 C27         2.3226   53.3413   29.1262 C.2       1 UNK         0.0000 
     28 O28         2.8864   53.1692   30.2065 O.2       1 UNK         0.0000 
     29 O29         5.0750   54.6552   24.3503 O.3       1 UNK         0.0000 
     30 C30         5.2828   53.6763   23.3374 C.3       1 UNK         0.0000 
     31 C31         5.7930   54.3677   22.0831 C.ar      1 UNK         0.0000 
     32 C32         5.1059   54.2273   20.8727 C.ar      1 UNK         0.0000 
     33 C33         5.6051   54.8230   19.7165 C.ar      1 UNK         0.0000 
     34 C34         6.7931   55.5513   19.7715 C.ar      1 UNK         0.0000 
     35 C35         7.4826   55.6969   20.9748 C.ar      1 UNK         0.0000 
     36 C36         6.9720   55.1155   22.1336 C.ar      1 UNK         0.0000 
     37 H37         2.6430   54.6786   23.4319 H         1 UNK         0.0000 
     38 H38         2.0828   53.0054   23.6914 H         1 UNK         0.0000 
     39 H39         1.2004   54.3801   24.3562 H         1 UNK         0.0000 
     40 H40         6.1074   54.5565   26.6982 H         1 UNK         0.0000 
     41 H41         4.9680   54.0234   28.7982 H         1 UNK         0.0000 
     42 H42        -1.3957   53.3430   27.2817 H         1 UNK         0.0000 
     43 H43        -1.5324   51.9229   28.2756 H         1 UNK         0.0000 
     44 H44        -1.0194   51.9831   25.2324 H         1 UNK         0.0000 
     45 H45        -2.4918   51.4213   26.0740 H         1 UNK         0.0000 
     46 H46         1.0623   49.1329   26.5374 H         1 UNK         0.0000 
     47 H47         1.1042   50.6378   25.5605 H         1 UNK         0.0000 
     48 H48         0.4769   50.4967   28.5968 H         1 UNK         0.0000 
     49 H49         2.0532   50.8870   27.9724 H         1 UNK         0.0000 
     50 H50        -0.4057   48.4485   24.9561 H         1 UNK         0.0000 
     51 H51        -0.9389   49.9048   24.1120 H         1 UNK         0.0000 
     52 H52        -2.1970   47.9066   26.8443 H         1 UNK         0.0000 
     53 H53        -5.3919   48.1560   24.9605 H         1 UNK         0.0000 
     54 H54        -7.2452   46.6038   25.4075 H         1 UNK         0.0000 
     55 H55        -4.7541   44.3626   28.0801 H         1 UNK         0.0000 
     56 H56        -2.9005   45.9204   27.6915 H         1 UNK         0.0000 
     57 H57         0.4754   54.2791   28.6911 H         1 UNK         0.0000 
     58 H58         0.3105   52.8690   29.8023 H         1 UNK         0.0000 
     59 H59         6.0047   52.9216   23.6602 H         1 UNK         0.0000 
     60 H60         4.3772   53.1212   23.0937 H         1 UNK         0.0000 
     61 H61         4.1920   53.6532   20.8161 H         1 UNK         0.0000 
     62 H62         5.0771   54.7112   18.7811 H         1 UNK         0.0000 
     63 H63         7.1899   55.9947   18.8698 H         1 UNK         0.0000 
     64 H64         8.4161   56.2395   21.0108 H         1 UNK         0.0000 
     65 H65         7.5037   55.2274   23.0683 H         1 UNK         0.0000 
     66 H66        -1.2093   49.6061   27.0719 H         1 UNK         0.0000 
@<TRIPOS>BOND
     1    1    2 1    
     2    1   37 1    
     3    1   38 1    
     4    1   39 1    
     5    2    7 ar   
     6    2    3 ar   
     7    3    4 ar   
     8    3   29 1    
     9    4    5 ar   
    10    4   40 1    
    11    5    6 ar   
    12    5   41 1    
    13    6   27 1    
    14    6    7 ar   
    15    7    8 1    
    16    8    9 1    
    17    9   14 1    
    18    9   10 1    
    19    9   26 1    
    20   10   11 1    
    21   10   42 1    
    22   10   43 1    
    23   11   12 1    
    24   11   44 1    
    25   11   45 1    
    26   12   13 1    
    27   12   15 1    
    28   12   66 1    
    29   13   14 1    
    30   13   46 1    
    31   13   47 1    
    32   14   48 1    
    33   14   49 1    
    34   15   16 1    
    35   15   50 1    
    36   15   51 1    
    37   16   17 2    
    38   16   18 am   BACKBONE|DICT|INTERRES
    39   18   19 1    
    40   18   52 1    
    41   19   24 ar   
    42   19   20 ar   
    43   20   21 ar   
    44   20   53 1    
    45   21   22 ar   
    46   21   54 1    
    47   22   23 ar   
    48   22   25 1    
    49   23   24 ar   
    50   23   55 1    
    51   24   56 1    
    52   26   27 1    
    53   26   57 1    
    54   26   58 1    
    55   27   28 2    
    56   29   30 1    
    57   30   31 1    
    58   30   59 1    
    59   30   60 1    
    60   31   36 ar   
    61   31   32 ar   
    62   32   33 ar   
    63   32   61 1    
    64   33   34 ar   
    65   33   62 1    
    66   34   35 ar   
    67   34   63 1    
    68   35   36 ar   
    69   35   64 1    
    70   36   65 1    
@<TRIPOS>SUBSTRUCTURE
     1 UNK         1 GROUP             0       ****    0 ROOT    
