@<TRIPOS>MOLECULE
ZINC66107044_2892
63   66    1
SMALL
USER_CHARGES


@<TRIPOS>ATOM
      1 C1          6.5475   55.2821   20.5384 C.ar      1 UNK         0.0000 
      2 C2          6.7040   55.3543   21.9226 C.ar      1 UNK         0.0000 
      3 C3          5.9641   54.5145   22.7694 C.ar      1 UNK         0.0000 
      4 C4          5.0975   53.5713   22.1904 C.ar      1 UNK         0.0000 
      5 C5          4.9621   53.4713   20.8040 C.ar      1 UNK         0.0000 
      6 C6          5.6842   54.3372   19.9808 C.ar      1 UNK         0.0000 
      7 N7          4.1193   52.5154   20.2192 N.pl3     1 UNK         0.0000 
      8 C8          2.7251   52.4412   20.5994 C.3       1 UNK         0.0000 
      9 C9          2.3874   51.4025   21.6808 C.2       1 UNK         0.0000 
     10 O10         2.7639   50.2382   21.5598 O.2       1 UNK         0.0000 
     11 N11         1.6235   51.8516   22.6992 N.am      1 UNK         0.0000 
     12 C12         0.9643   51.1044   23.6888 C.ar      1 UNK         0.0000 
     13 C13         0.6020   51.7721   24.8606 C.ar      1 UNK         0.0000 
     14 C14        -0.1113   51.1066   25.8583 C.ar      1 UNK         0.0000 
     15 C15        -0.4881   49.7744   25.6816 C.ar      1 UNK         0.0000 
     16 C16        -0.1442   49.0866   24.5062 C.ar      1 UNK         0.0000 
     17 C17         0.5885   49.7614   23.5258 C.ar      1 UNK         0.0000 
     18 O18        -0.4859   47.7824   24.2064 O.3       1 UNK         0.0000 
     19 C19        -1.3139   47.0083   25.0754 C.3       1 UNK         0.0000 
     20 C20        -2.7552   46.9692   24.5403 C.3       1 UNK         0.0000 
     21 H21        -3.1865   47.9660   24.6563 H         1 UNK         0.0000 
     22 C22        -2.9083   46.4481   23.1092 C.3       1 UNK         0.0000 
     23 C23        -4.2880   45.8171   23.0760 C.3       1 UNK         0.0000 
     24 C24        -4.6830   45.6890   24.5488 C.3       1 UNK         0.0000 
     25 O25        -3.5029   46.0054   25.2820 O.3       1 UNK         0.0000 
     26 C26         6.0938   54.6533   24.2694 C.2       1 UNK         0.0000 
     27 O27         7.1018   55.1569   24.7726 O.2       1 UNK         0.0000 
     28 N28         5.0109   54.2652   24.9762 N.am      1 UNK         0.0000 
     29 C29         4.8600   54.2405   26.3705 C.ar      1 UNK         0.0000 
     30 C30         5.9427   54.0999   27.2478 C.ar      1 UNK         0.0000 
     31 C31         5.7299   54.1027   28.6176 C.ar      1 UNK         0.0000 
     32 C32         4.4408   54.2285   29.1321 C.ar      1 UNK         0.0000 
     33 C33         3.3428   54.3441   28.2719 C.ar      1 UNK         0.0000 
     34 C34         3.5645   54.3382   26.8874 C.ar      1 UNK         0.0000 
     35 C35         1.9317   54.4852   28.8365 C.3       1 UNK         0.0000 
     36 F36         1.8468   53.9992   30.0765 F         1 UNK         0.0000 
     37 F37         1.6032   55.7776   28.8712 F         1 UNK         0.0000 
     38 F38         1.0450   53.8363   28.0803 F         1 UNK         0.0000 
     39 H39         7.1155   55.9395   19.8931 H         1 UNK         0.0000 
     40 H40         7.3855   56.0871   22.3333 H         1 UNK         0.0000 
     41 H41         4.5325   52.8967   22.8122 H         1 UNK         0.0000 
     42 H42         5.5850   54.2769   18.9065 H         1 UNK         0.0000 
     43 H43         4.2339   52.5503   19.2146 H         1 UNK         0.0000 
     44 H44         2.1376   52.1088   19.7428 H         1 UNK         0.0000 
     45 H45         2.3057   53.4048   20.8752 H         1 UNK         0.0000 
     46 H46         1.4585   52.8451   22.7342 H         1 UNK         0.0000 
     47 H47         0.8693   52.8091   25.0096 H         1 UNK         0.0000 
     48 H48        -0.3831   51.6226   26.7672 H         1 UNK         0.0000 
     49 H49        -1.0453   49.3070   26.4767 H         1 UNK         0.0000 
     50 H50         0.8303   49.2228   22.6232 H         1 UNK         0.0000 
     51 H51        -1.2932   47.2939   26.1230 H         1 UNK         0.0000 
     52 H52        -0.8980   46.0050   25.0500 H         1 UNK         0.0000 
     53 H53        -2.1438   45.6971   22.9039 H         1 UNK         0.0000 
     54 H54        -2.7418   47.2323   22.3686 H         1 UNK         0.0000 
     55 H55        -4.2677   44.8472   22.5744 H         1 UNK         0.0000 
     56 H56        -5.0002   46.4490   22.5416 H         1 UNK         0.0000 
     57 H57        -5.0372   44.6908   24.8081 H         1 UNK         0.0000 
     58 H58        -5.4776   46.3834   24.8275 H         1 UNK         0.0000 
     59 H59         4.2020   53.9879   24.4464 H         1 UNK         0.0000 
     60 H60         6.9551   53.9811   26.8913 H         1 UNK         0.0000 
     61 H61         6.5773   54.0246   29.2817 H         1 UNK         0.0000 
     62 H62         4.3058   54.2388   30.2033 H         1 UNK         0.0000 
     63 H63         2.7242   54.4302   26.2131 H         1 UNK         0.0000 
@<TRIPOS>BOND
     1    1    6 ar   
     2    1    2 ar   
     3    1   39 1    
     4    2    3 ar   
     5    2   40 1    
     6    3    4 ar   
     7    3   26 1    
     8    4    5 ar   
     9    4   41 1    
    10    5    6 ar   
    11    5    7 1    
    12    6   42 1    
    13    7    8 1    
    14    7   43 1    
    15    8    9 1    
    16    8   44 1    
    17    8   45 1    
    18    9   10 2    
    19    9   11 am   BACKBONE|DICT|INTERRES
    20   11   12 1    
    21   11   46 1    
    22   12   17 ar   
    23   12   13 ar   
    24   13   14 ar   
    25   13   47 1    
    26   14   15 ar   
    27   14   48 1    
    28   15   16 ar   
    29   15   49 1    
    30   16   17 ar   
    31   16   18 1    
    32   17   50 1    
    33   18   19 1    
    34   19   20 1    
    35   19   51 1    
    36   19   52 1    
    37   20   21 1    
    38   20   25 1    
    39   20   22 1    
    40   22   23 1    
    41   22   53 1    
    42   22   54 1    
    43   23   24 1    
    44   23   55 1    
    45   23   56 1    
    46   24   25 1    
    47   24   57 1    
    48   24   58 1    
    49   26   27 2    
    50   26   28 am   BACKBONE|DICT|INTERRES
    51   28   29 1    
    52   28   59 1    
    53   29   34 ar   
    54   29   30 ar   
    55   30   31 ar   
    56   30   60 1    
    57   31   32 ar   
    58   31   61 1    
    59   32   33 ar   
    60   32   62 1    
    61   33   34 ar   
    62   33   35 1    
    63   34   63 1    
    64   35   36 1    
    65   35   37 1    
    66   35   38 1    
@<TRIPOS>SUBSTRUCTURE
     1 UNK         1 GROUP             0       ****    0 ROOT    
