@<TRIPOS>MOLECULE
ZINC59384959_3648
51   53    1
SMALL
USER_CHARGES


@<TRIPOS>ATOM
      1 C1          3.8143   53.6247   18.9711 C.3       1 UNK         0.0000 
      2 C2          5.2340   53.8487   18.4491 C.2       1 UNK         0.0000 
      3 C3          6.2690   54.4955   19.0733 C.2       1 UNK         0.0000 
      4 C4          7.5780   54.7833   18.2695 C.3       1 UNK         0.0000 
      5 H5          8.3908   54.3595   18.8629 H         1 UNK         0.0000 
      6 N6          7.5683   54.0117   17.0039 N.pl3     1 UNK         0.0000 
      7 C7          6.5118   53.3537   16.4498 C.2       1 UNK         0.0000 
      8 S8          6.6113   52.6446   14.9595 S.2       1 UNK         0.0000 
      9 N9          5.3785   53.3246   17.1996 N.pl3     1 UNK         0.0000 
     10 C10         7.9386   56.2633   18.0562 C.ar      1 UNK         0.0000 
     11 C11         9.2101   56.6823   18.4641 C.ar      1 UNK         0.0000 
     12 C12         9.6055   58.0115   18.3372 C.ar      1 UNK         0.0000 
     13 C13         8.7208   58.9506   17.8157 C.ar      1 UNK         0.0000 
     14 C14         7.4490   58.5548   17.4075 C.ar      1 UNK         0.0000 
     15 C15         7.0530   57.2191   17.5152 C.ar      1 UNK         0.0000 
     16 Cl16        5.4629   56.8157   16.9690 Cl        1 UNK         0.0000 
     17 Cl17        9.2016   60.6019   17.6821 Cl        1 UNK         0.0000 
     18 C18         6.2418   54.9989   20.4487 C.2       1 UNK         0.0000 
     19 O19         6.9070   55.9779   20.8082 O.2       1 UNK         0.0000 
     20 N20         5.5003   54.2660   21.3052 N.am      1 UNK         0.0000 
     21 N21         5.4391   54.4946   22.6309 N.2       1 UNK         0.0000 
     22 C22         4.3861   54.0138   23.1575 C.2       1 UNK         0.0000 
     23 C23         4.0817   54.0964   24.5893 C.ar      1 UNK         0.0000 
     24 C24         2.8199   53.6974   25.0383 C.ar      1 UNK         0.0000 
     25 C25         2.5184   53.6968   26.3973 C.ar      1 UNK         0.0000 
     26 C26         3.4732   54.0751   27.3519 C.ar      1 UNK         0.0000 
     27 C27         4.7297   54.4967   26.8896 C.ar      1 UNK         0.0000 
     28 C28         5.0296   54.5116   25.5310 C.ar      1 UNK         0.0000 
     29 N29         3.1871   54.0280   28.7447 N.pl3     1 UNK         0.0000 
     30 C30         1.8924   53.5286   29.2131 C.3       1 UNK         0.0000 
     31 C31         4.3042   53.9278   29.6821 C.3       1 UNK         0.0000 
     32 H32         3.5187   54.3460   19.7313 H         1 UNK         0.0000 
     33 H33         3.0771   53.7345   18.1751 H         1 UNK         0.0000 
     34 H34         3.7146   52.6175   19.3779 H         1 UNK         0.0000 
     35 H35         8.4043   53.9890   16.4386 H         1 UNK         0.0000 
     36 H36         4.6455   52.7730   16.7745 H         1 UNK         0.0000 
     37 H37         9.9047   55.9709   18.8839 H         1 UNK         0.0000 
     38 H38        10.5927   58.3070   18.6624 H         1 UNK         0.0000 
     39 H39         6.7645   59.2935   17.0118 H         1 UNK         0.0000 
     40 H40         4.8350   53.5968   20.9466 H         1 UNK         0.0000 
     41 H41         3.6167   53.5095   22.5706 H         1 UNK         0.0000 
     42 H42         2.0640   53.3703   24.3399 H         1 UNK         0.0000 
     43 H43         1.5356   53.3618   26.6848 H         1 UNK         0.0000 
     44 H44         5.4975   54.8188   27.5751 H         1 UNK         0.0000 
     45 H45         6.0156   54.8252   25.2175 H         1 UNK         0.0000 
     46 H46         1.0685   54.0457   28.7200 H         1 UNK         0.0000 
     47 H47         1.7949   52.4651   28.9933 H         1 UNK         0.0000 
     48 H48         1.7701   53.6633   30.2890 H         1 UNK         0.0000 
     49 H49         4.9071   54.8367   29.6806 H         1 UNK         0.0000 
     50 H50         3.9747   53.7317   30.7003 H         1 UNK         0.0000 
     51 H51         4.9524   53.0999   29.3919 H         1 UNK         0.0000 
@<TRIPOS>BOND
     1    1    2 1    
     2    1   32 1    
     3    1   33 1    
     4    1   34 1    
     5    2    9 1    
     6    2    3 2    
     7    3    4 1    
     8    3   18 1    
     9    4    5 1    
    10    4    6 1    
    11    4   10 1    
    12    6    7 1    
    13    6   35 1    
    14    7    8 2    
    15    7    9 1    
    16    9   36 1    
    17   10   15 ar   
    18   10   11 ar   
    19   11   12 ar   
    20   11   37 1    
    21   12   13 ar   
    22   12   38 1    
    23   13   14 ar   
    24   13   17 1    
    25   14   15 ar   
    26   14   39 1    
    27   15   16 1    
    28   18   19 2    
    29   18   20 am   BACKBONE|DICT|INTERRES
    30   20   21 1    
    31   20   40 1    
    32   21   22 2    
    33   22   23 1    
    34   22   41 1    
    35   23   28 ar   
    36   23   24 ar   
    37   24   25 ar   
    38   24   42 1    
    39   25   26 ar   
    40   25   43 1    
    41   26   27 ar   
    42   26   29 1    
    43   27   28 ar   
    44   27   44 1    
    45   28   45 1    
    46   29   30 1    
    47   29   31 1    
    48   30   46 1    
    49   30   47 1    
    50   30   48 1    
    51   31   49 1    
    52   31   50 1    
    53   31   51 1    
@<TRIPOS>SUBSTRUCTURE
     1 UNK         1 GROUP             0       ****    0 ROOT    
