ZINC32577036_5044
                    3D
 Schrodinger Suite 2024-2.
 59 63  0  0  1  0            999 V2000
   -3.9977   50.3649   23.0587 C   0  0  0  0  0  0
   -2.6360   50.9616   23.3641 C   0  0  0  0  0  0
   -2.4890   52.3473   23.4461 C   0  0  0  0  0  0
   -1.2454   52.8967   23.7396 C   0  0  0  0  0  0
   -0.1463   52.0584   23.9550 C   0  0  0  0  0  0
   -0.2942   50.6681   23.8822 C   0  0  0  0  0  0
   -1.5412   50.1231   23.5877 C   0  0  0  0  0  0
    1.1169   52.6230   24.2510 N   0  0  0  0  0  0
    1.3783   52.8162   25.6099 C   0  0  0  0  0  0
    0.5957   52.4967   26.5115 O   0  0  0  0  0  0
    2.6846   53.4428   25.8179 C   0  0  0  0  0  0
    3.3222   53.7678   27.0343 C   0  0  0  0  0  0
    4.5833   54.3513   26.8186 C   0  0  0  0  0  0
    4.9645   54.4967   25.1301 S   0  0  0  0  0  0
    3.4484   53.7812   24.7077 C   0  0  0  0  0  0
    3.1044   53.5386   23.4176 N   0  0  0  0  0  0
    1.9835   52.9398   23.1925 C   0  0  0  0  0  0
    1.5917   52.4967   21.4685 S   0  0  0  0  0  0
    3.1044   52.9758   20.5577 C   0  0  0  0  0  0
    2.9339   52.9140   19.0349 C   0  0  0  0  0  0
    2.2930   51.9894   18.5281 O   0  0  0  0  0  0
    3.5044   53.9164   18.3349 N   0  0  0  0  0  0
    3.3921   54.0251   16.9940 N   0  0  0  0  0  0
    3.9054   55.0558   16.4372 C   0  0  0  0  0  0
    4.7499   56.1375   16.9896 C   0  0  0  0  0  0
    5.7288   55.9238   17.9729 C   0  0  0  0  0  0
    6.5187   56.9789   18.4272 C   0  0  0  0  0  0
    6.3426   58.2549   17.8982 C   0  0  0  0  0  0
    5.3921   58.4782   16.9063 C   0  0  0  0  0  0
    4.6025   57.4244   16.4557 C   0  0  0  0  0  0
    7.1044   59.2967   18.3588 O   0  0  0  0  0  0
    5.5604   54.7400   27.9195 C   0  0  0  0  0  0
    4.7981   54.8089   29.2610 C   0  0  0  0  0  0
    3.9342   53.5553   29.4766 C   0  0  0  0  0  0
    2.7933   53.4667   28.4396 C   0  0  0  0  0  0
   -4.7973   50.9943   23.4517 H   0  0  0  0  0  0
   -4.1361   50.2546   21.9830 H   0  0  0  0  0  0
   -4.1115   49.3879   23.5303 H   0  0  0  0  0  0
   -3.3346   52.9994   23.2853 H   0  0  0  0  0  0
   -1.1360   53.9690   23.8030 H   0  0  0  0  0  0
    0.5488   50.0139   24.0562 H   0  0  0  0  0  0
   -1.6536   49.0499   23.5372 H   0  0  0  0  0  0
    3.9182   52.3131   20.8511 H   0  0  0  0  0  0
    3.3973   53.9819   20.8614 H   0  0  0  0  0  0
    3.9894   54.6733   18.7923 H   0  0  0  0  0  0
    3.7057   55.1946   15.3779 H   0  0  0  0  0  0
    5.9116   54.9370   18.3729 H   0  0  0  0  0  0
    7.2724   56.8048   19.1802 H   0  0  0  0  0  0
    5.2604   59.4639   16.4818 H   0  0  0  0  0  0
    3.8705   57.6259   15.6856 H   0  0  0  0  0  0
    6.7414   60.1757   18.0817 H   0  0  0  0  0  0
    6.3476   53.9885   27.9935 H   0  0  0  0  0  0
    6.0561   55.6873   27.7069 H   0  0  0  0  0  0
    5.5044   54.9371   30.0803 H   0  0  0  0  0  0
    4.1503   55.6867   29.2817 H   0  0  0  0  0  0
    4.5628   52.6651   29.4097 H   0  0  0  0  0  0
    3.5159   53.5493   30.4817 H   0  0  0  0  0  0
    2.0039   54.1764   28.6907 H   0  0  0  0  0  0
    2.3346   52.4782   28.4888 H   0  0  0  0  0  0
  1  2  1  0  0  0
  1 36  1  0  0  0
  1 37  1  0  0  0
  1 38  1  0  0  0
  2  7  2  0  0  0
  2  3  1  0  0  0
  3  4  2  0  0  0
  3 39  1  0  0  0
  4  5  1  0  0  0
  4 40  1  0  0  0
  5  6  2  0  0  0
  5  8  1  0  0  0
  6  7  1  0  0  0
  6 41  1  0  0  0
  7 42  1  0  0  0
  8 17  1  0  0  0
  8  9  1  0  0  0
  9 10  2  0  0  0
  9 11  1  0  0  0
 11 15  2  0  0  0
 11 12  1  0  0  0
 12 35  1  0  0  0
 12 13  2  0  0  0
 13 14  1  0  0  0
 13 32  1  0  0  0
 14 15  1  0  0  0
 15 16  1  0  0  0
 16 17  2  0  0  0
 17 18  1  0  0  0
 18 19  1  0  0  0
 19 20  1  0  0  0
 19 43  1  0  0  0
 19 44  1  0  0  0
 20 21  2  0  0  0
 20 22  1  0  0  0
 22 23  1  0  0  0
 22 45  1  0  0  0
 23 24  2  0  0  0
 24 25  1  0  0  0
 24 46  1  0  0  0
 25 30  2  0  0  0
 25 26  1  0  0  0
 26 27  2  0  0  0
 26 47  1  0  0  0
 27 28  1  0  0  0
 27 48  1  0  0  0
 28 29  2  0  0  0
 28 31  1  0  0  0
 29 30  1  0  0  0
 29 49  1  0  0  0
 30 50  1  0  0  0
 31 51  1  0  0  0
 32 33  1  0  0  0
 32 52  1  0  0  0
 32 53  1  0  0  0
 33 34  1  0  0  0
 33 54  1  0  0  0
 33 55  1  0  0  0
 34 35  1  0  0  0
 34 56  1  0  0  0
 34 57  1  0  0  0
 35 58  1  0  0  0
 35 59  1  0  0  0
M  END
> <i_i_glide_confnum>
113

> <i_i_glide_lignum>
5045

> <i_i_glide_posenum>
36

> <i_i_glide_rotatable_bonds>
8

> <i_m_Source_File_Index>
4578

> <b_m_subgroup_collapsed>
0

> <r_i_docking_score>
-5.55076

> <r_i_glide_ecoul>
-7.9514

> <r_i_glide_eff_state_penalty>
0

> <r_i_glide_einternal>
6.38234

> <r_i_glide_emodel>
-62.9668

> <r_i_glide_energy>
-46.2326

> <r_i_glide_erotb>
0.562093

> <r_i_glide_esite>
-0.0246556

> <r_i_glide_evdw>
-38.2812

> <r_i_glide_gscore>
-5.55076

> <r_i_glide_hbond>
-0.144898

> <r_i_glide_ligand_efficiency>
-0.158593

> <r_i_glide_ligand_efficiency_ln>
-1.21852

> <r_i_glide_ligand_efficiency_sa>
-0.518769

> <r_i_glide_lipo>
-2.33038

> <r_i_glide_metal>
0

> <r_i_glide_rewards>
-0.506155

> <s_i_glide_gridfile>
wee1_glide-grid

> <s_m_Source_File>
wee1_decoys_glide_SP.sdf

> <s_m_Source_Path>
/Users/zhangxujun/Desktop

> <s_m_entry_id>
4853

> <s_m_entry_name>
wee1_decoys_glide_SP.4578

> <s_m_subgroup_title>
wee1_decoys_glide_SP

> <s_m_subgroupid>
wee1_decoys_glide_SP


$$$$
