@<TRIPOS>MOLECULE
ZINC39665113_3067
67   70    1
SMALL
USER_CHARGES


@<TRIPOS>ATOM
      1 C1          4.3739   54.6285   25.6227 C.3       1 UNK         0.0000 
      2 C2          3.0584   53.8386   25.4485 C.3       1 UNK         0.0000 
      3 H3          3.2560   52.7670   25.4256 H         1 UNK         0.0000 
      4 C4          2.3738   54.2201   24.1126 C.3       1 UNK         0.0000 
      5 N5          1.0535   53.6092   23.9608 N.am      1 UNK         0.0000 
      6 C6          0.6911   52.6711   23.0674 C.2       1 UNK         0.0000 
      7 O7          1.4589   52.2509   22.2061 O.2       1 UNK         0.0000 
      8 C8         -0.7069   51.9995   23.2133 C.3       1 UNK         0.0000 
      9 H9         -1.0367   51.7464   22.2048 H         1 UNK         0.0000 
     10 C10        -1.7617   52.9881   23.7713 C.3       1 UNK         0.0000 
     11 N11        -2.6223   52.1635   24.6220 N.am      1 UNK         0.0000 
     12 C12        -2.2186   50.7558   24.5994 C.3       1 UNK         0.0000 
     13 C13        -0.7350   50.7811   24.1752 C.3       1 UNK         0.0000 
     14 C14        -0.2520   49.4790   23.4902 C.3       1 UNK         0.0000 
     15 C15        -0.4593   48.2631   24.4117 C.3       1 UNK         0.0000 
     16 N16         0.3832   48.4979   25.6819 N.4       1 UNK         0.0000 
     17 C17         0.0809   49.8131   26.4301 C.3       1 UNK         0.0000 
     18 C18         0.1843   50.9665   25.4255 C.3       1 UNK         0.0000 
     19 C19        -3.6650   52.6908   25.3149 C.2       1 UNK         0.0000 
     20 O20        -4.0954   53.8269   25.0952 O.2       1 UNK         0.0000 
     21 C21        -4.2949   51.8817   26.4267 C.ar      1 UNK         0.0000 
     22 C22        -3.5066   51.2652   27.4070 C.ar      1 UNK         0.0000 
     23 C23        -4.0941   50.5491   28.4456 C.ar      1 UNK         0.0000 
     24 C24        -5.4909   50.4627   28.5404 C.ar      1 UNK         0.0000 
     25 C25        -6.2747   51.1048   27.5805 C.ar      1 UNK         0.0000 
     26 C26        -5.6871   51.8151   26.5367 C.ar      1 UNK         0.0000 
     27 O27        -6.1739   49.7873   29.5333 O.3       1 UNK         0.0000 
     28 C28        -5.4648   49.0559   30.5343 C.3       1 UNK         0.0000 
     29 F29        -6.3743   48.5089   31.3416 F         1 UNK         0.0000 
     30 F30        -4.7534   48.0610   30.0014 F         1 UNK         0.0000 
     31 F31        -4.6966   49.8562   31.2786 F         1 UNK         0.0000 
     32 O32         2.1199   54.0967   26.5005 O.3       1 UNK         0.0000 
     33 C33         2.2912   53.6268   27.7889 C.ar      1 UNK         0.0000 
     34 C34         3.4017   52.8957   28.2325 C.ar      1 UNK         0.0000 
     35 C35         3.4699   52.4502   29.5510 C.ar      1 UNK         0.0000 
     36 C36         2.4205   52.7185   30.4260 C.ar      1 UNK         0.0000 
     37 C37         1.3114   53.4423   29.9976 C.ar      1 UNK         0.0000 
     38 C38         1.2554   53.9013   28.6836 C.ar      1 UNK         0.0000 
     39 H39         5.0417   54.4639   24.7750 H         1 UNK         0.0000 
     40 H40         4.1737   55.6967   25.6825 H         1 UNK         0.0000 
     41 H41         4.9292   54.3600   26.5190 H         1 UNK         0.0000 
     42 H42         2.2275   55.2966   24.0811 H         1 UNK         0.0000 
     43 H43         3.0335   53.9825   23.2741 H         1 UNK         0.0000 
     44 H44         0.3739   53.8982   24.6467 H         1 UNK         0.0000 
     45 H45        -1.3207   53.6980   24.4654 H         1 UNK         0.0000 
     46 H46        -2.3273   53.4735   22.9753 H         1 UNK         0.0000 
     47 H47        -2.7898   50.2803   23.8007 H         1 UNK         0.0000 
     48 H48        -2.4083   50.1548   25.4831 H         1 UNK         0.0000 
     49 H49        -0.8352   49.3089   22.5833 H         1 UNK         0.0000 
     50 H50         0.7839   49.5628   23.1554 H         1 UNK         0.0000 
     51 H51        -1.4900   48.1209   24.7393 H         1 UNK         0.0000 
     52 H52        -0.0961   47.3329   23.9745 H         1 UNK         0.0000 
     53 H53         0.2786   47.7130   26.3255 H         1 UNK         0.0000 
     54 H54        -0.9013   49.6969   26.8816 H         1 UNK         0.0000 
     55 H55         0.8191   49.9094   27.2258 H         1 UNK         0.0000 
     56 H56         1.2247   51.0999   25.1390 H         1 UNK         0.0000 
     57 H57        -0.0877   51.8821   25.9550 H         1 UNK         0.0000 
     58 H58        -2.4295   51.3448   27.3846 H         1 UNK         0.0000 
     59 H59        -3.4454   50.0707   29.1664 H         1 UNK         0.0000 
     60 H60        -7.3504   51.0504   27.6510 H         1 UNK         0.0000 
     61 H61        -6.3213   52.3106   25.8141 H         1 UNK         0.0000 
     62 H62         4.2098   52.6360   27.5677 H         1 UNK         0.0000 
     63 H63         4.3311   51.8927   29.8861 H         1 UNK         0.0000 
     64 H64         2.4638   52.3650   31.4463 H         1 UNK         0.0000 
     65 H65         0.5022   53.6486   30.6826 H         1 UNK         0.0000 
     66 H66         0.3934   54.4626   28.3521 H         1 UNK         0.0000 
     67 H67         1.3613   48.4841   25.4144 H         1 UNK         0.0000 
@<TRIPOS>BOND
     1    1    2 1    
     2    1   39 1    
     3    1   40 1    
     4    1   41 1    
     5    2    3 1    
     6    2    4 1    
     7    2   32 1    
     8    4    5 1    
     9    4   42 1    
    10    4   43 1    
    11    5    6 am   BACKBONE|DICT|INTERRES
    12    5   44 1    
    13    6    7 2    
    14    6    8 1    
    15    8    9 1    
    16    8   13 1    
    17    8   10 1    
    18   10   11 1    
    19   10   45 1    
    20   10   46 1    
    21   11   12 1    
    22   11   19 am   BACKBONE|DICT|INTERRES
    23   12   13 1    
    24   12   47 1    
    25   12   48 1    
    26   13   18 1    
    27   13   14 1    
    28   14   15 1    
    29   14   49 1    
    30   14   50 1    
    31   15   16 1    
    32   15   51 1    
    33   15   52 1    
    34   16   17 1    
    35   16   53 1    
    36   16   67 1    
    37   17   18 1    
    38   17   54 1    
    39   17   55 1    
    40   18   56 1    
    41   18   57 1    
    42   19   20 2    
    43   19   21 1    
    44   21   26 ar   
    45   21   22 ar   
    46   22   23 ar   
    47   22   58 1    
    48   23   24 ar   
    49   23   59 1    
    50   24   25 ar   
    51   24   27 1    
    52   25   26 ar   
    53   25   60 1    
    54   26   61 1    
    55   27   28 1    
    56   28   29 1    
    57   28   30 1    
    58   28   31 1    
    59   32   33 1    
    60   33   38 ar   
    61   33   34 ar   
    62   34   35 ar   
    63   34   62 1    
    64   35   36 ar   
    65   35   63 1    
    66   36   37 ar   
    67   36   64 1    
    68   37   38 ar   
    69   37   65 1    
    70   38   66 1    
@<TRIPOS>SUBSTRUCTURE
     1 UNK         1 GROUP             0       ****    0 ROOT    
