@<TRIPOS>MOLECULE
ZINC16054892_5583
54   56    1
SMALL
USER_CHARGES


@<TRIPOS>ATOM
      1 C1         -2.0127   46.6531   24.8743 C.3       1 UNK         0.0000 
      2 C2         -1.2352   47.8586   24.3813 C.ar      1 UNK         0.0000 
      3 C3         -0.3284   48.4967   25.2282 C.ar      1 UNK         0.0000 
      4 C4          0.3942   49.5933   24.7763 C.ar      1 UNK         0.0000 
      5 C5          0.1796   50.0811   23.4837 C.ar      1 UNK         0.0000 
      6 C6         -0.7354   49.4463   22.6336 C.ar      1 UNK         0.0000 
      7 C7         -1.4321   48.3270   23.0810 C.ar      1 UNK         0.0000 
      8 N8          0.8362   51.2761   23.0795 N.pl3     1 UNK         0.0000 
      9 C9          1.9921   51.1855   22.2955 C.2       1 UNK         0.0000 
     10 C10         2.7438   52.3029   22.0511 C.2       1 UNK         0.0000 
     11 C11         2.5013   53.6232   22.8212 C.3       1 UNK         0.0000 
     12 H12         2.6411   54.4715   22.1469 H         1 UNK         0.0000 
     13 N13         1.0980   53.5952   23.2759 N.pl3     1 UNK         0.0000 
     14 C14         0.2915   52.5037   23.4398 C.2       1 UNK         0.0000 
     15 S15        -1.2273   52.7913   24.0817 S.2       1 UNK         0.0000 
     16 C16         3.5328   53.9054   23.9329 C.ar      1 UNK         0.0000 
     17 C17         4.8170   54.3391   23.5894 C.ar      1 UNK         0.0000 
     18 C18         5.7723   54.5895   24.5697 C.ar      1 UNK         0.0000 
     19 C19         5.4631   54.4251   25.9192 C.ar      1 UNK         0.0000 
     20 C20         4.1718   54.0048   26.3000 C.ar      1 UNK         0.0000 
     21 C21         3.2317   53.7281   25.2918 C.ar      1 UNK         0.0000 
     22 N22         3.7900   53.7874   27.7166 N.pl3     1 UNK         0.0000 
     23 O23         4.2555   54.5192   28.5839 O.co2     1 UNK         0.0000 
     24 O24         2.9800   52.8992   27.9647 O.co2     1 UNK         0.0000 
     25 Cl25        6.7314   54.7195   27.0601 Cl        1 UNK         0.0000 
     26 C26         3.9215   52.3008   21.1767 C.2       1 UNK         0.0000 
     27 O27         4.8294   51.4794   21.2820 O.2       1 UNK         0.0000 
     28 O28         3.8951   53.2967   20.2614 O.3       1 UNK         0.0000 
     29 C29         4.9088   53.3845   19.2649 C.3       1 UNK         0.0000 
     30 C30         4.5621   54.3979   18.1701 C.3       1 UNK         0.0000 
     31 O31         4.7109   55.7219   18.6613 O.3       1 UNK         0.0000 
     32 C32         4.4483   56.7103   17.6755 C.3       1 UNK         0.0000 
     33 C33         2.2712   49.8074   21.6500 C.3       1 UNK         0.0000 
     34 H34        -1.6652   46.3129   25.8511 H         1 UNK         0.0000 
     35 H35        -3.0733   46.8950   24.9459 H         1 UNK         0.0000 
     36 H36        -1.9033   45.8294   24.1703 H         1 UNK         0.0000 
     37 H37        -0.1858   48.1450   26.2407 H         1 UNK         0.0000 
     38 H38         1.0880   50.0820   25.4440 H         1 UNK         0.0000 
     39 H39        -0.9201   49.8303   21.6408 H         1 UNK         0.0000 
     40 H40        -2.1395   47.8400   22.4259 H         1 UNK         0.0000 
     41 H41         0.6806   54.4565   23.5966 H         1 UNK         0.0000 
     42 H42         5.0837   54.4858   22.5526 H         1 UNK         0.0000 
     43 H43         6.7628   54.9075   24.2757 H         1 UNK         0.0000 
     44 H44         2.2507   53.3762   25.5781 H         1 UNK         0.0000 
     45 H45         5.9184   53.5204   19.6521 H         1 UNK         0.0000 
     46 H46         4.9159   52.4160   18.7701 H         1 UNK         0.0000 
     47 H47         5.2301   54.2359   17.3220 H         1 UNK         0.0000 
     48 H48         3.5462   54.2242   17.8089 H         1 UNK         0.0000 
     49 H49         4.6638   57.6964   18.0818 H         1 UNK         0.0000 
     50 H50         5.0778   56.5793   16.7935 H         1 UNK         0.0000 
     51 H51         3.4021   56.6928   17.3654 H         1 UNK         0.0000 
     52 H52         3.1045   49.7858   20.9522 H         1 UNK         0.0000 
     53 H53         2.4838   49.0628   22.4186 H         1 UNK         0.0000 
     54 H54         1.4143   49.4671   21.0695 H         1 UNK         0.0000 
@<TRIPOS>BOND
     1    1    2 1    
     2    1   34 1    
     3    1   35 1    
     4    1   36 1    
     5    2    7 ar   
     6    2    3 ar   
     7    3    4 ar   
     8    3   37 1    
     9    4    5 ar   
    10    4   38 1    
    11    5    6 ar   
    12    5    8 1    
    13    6    7 ar   
    14    6   39 1    
    15    7   40 1    
    16    8   14 1    
    17    8    9 1    
    18    9   10 2    
    19    9   33 1    
    20   10   11 1    
    21   10   26 1    
    22   11   12 1    
    23   11   13 1    
    24   11   16 1    
    25   13   14 1    
    26   13   41 1    
    27   14   15 2    
    28   16   21 ar   
    29   16   17 ar   
    30   17   18 ar   
    31   17   42 1    
    32   18   19 ar   
    33   18   43 1    
    34   19   20 ar   
    35   19   25 1    
    36   20   21 ar   
    37   20   22 1    
    38   21   44 1    
    39   22   23 2    
    40   22   24 1    
    41   26   27 2    
    42   26   28 1    
    43   28   29 1    
    44   29   30 1    
    45   29   45 1    
    46   29   46 1    
    47   30   31 1    
    48   30   47 1    
    49   30   48 1    
    50   31   32 1    
    51   32   49 1    
    52   32   50 1    
    53   32   51 1    
    54   33   52 1    
    55   33   53 1    
    56   33   54 1    
@<TRIPOS>SUBSTRUCTURE
     1 UNK         1 GROUP             0       ****    0 ROOT    
