ZINC01631529_1073
                    3D
 Schrodinger Suite 2024-2.
 71 74  0  0  1  0            999 V2000
    4.6307   55.3699   17.5269 C   0  0  0  0  0  0
    5.3260   55.7564   18.7072 O   0  0  0  0  0  0
    5.3535   54.8956   19.7852 C   0  0  0  0  0  0
    4.7596   53.6244   19.8074 C   0  0  0  0  0  0
    4.8118   52.8358   20.9585 C   0  0  0  0  0  0
    5.5043   53.3003   22.0817 C   0  0  0  0  0  0
    6.0753   54.5809   22.0893 C   0  0  0  0  0  0
    5.9984   55.3550   20.9325 C   0  0  0  0  0  0
    6.7046   55.1494   23.1779 O   0  0  0  0  0  0
    6.8705   54.3782   24.3639 C   0  0  0  0  0  0
    4.1023   51.4928   20.9911 C   0  0  0  0  0  0
    1.8634   52.0410   22.3293 C   0  0  1  0  0  0
    2.2932   51.3468   23.0562 H   0  0  0  0  0  0
    2.2811   53.4818   22.6727 C   0  0  0  0  0  0
    1.4373   54.1575   23.7446 C   0  0  0  0  0  0
    1.2714   53.2970   24.9832 C   0  0  0  0  0  0
    1.9636   53.6638   26.1389 C   0  0  0  0  0  0
    1.7725   53.0062   27.3526 C   0  0  0  0  0  0
    0.9179   51.9072   27.3775 C   0  0  0  0  0  0
    0.3350   51.4296   26.1899 C   0  0  0  0  0  0
    0.4548   52.1397   24.9677 C   0  0  0  0  0  0
   -0.2951   51.7035   23.7127 C   0  0  0  0  0  0
    0.3326   51.8512   22.3724 C   0  0  0  0  0  0
   -0.3171   51.8456   21.1792 C   0  0  0  0  0  0
   -1.7003   51.6334   20.7879 C   0  0  0  0  0  0
   -2.0631   52.0795   19.6952 O   0  0  0  0  0  0
   -2.6177   50.8762   21.6430 C   0  0  0  0  0  0
   -2.5345   50.7016   22.9775 C   0  0  0  0  0  0
   -1.5533   51.2272   23.9106 C   0  0  0  0  0  0
   -3.9576   50.0968   20.7086 S   0  0  0  0  0  0
   -5.0361   49.2606   21.9060 C   0  0  0  0  0  0
   -0.3598   50.2461   26.2409 O   0  0  0  0  0  0
    0.4415   49.0857   26.0701 C   0  0  0  0  0  0
    0.6850   51.2965   28.5863 O   0  0  0  0  0  0
   -0.6373   51.4708   29.0869 C   0  0  0  0  0  0
    2.3744   53.3856   28.5410 O   0  0  0  0  0  0
    3.2374   54.5186   28.5639 C   0  0  0  0  0  0
    4.7045   56.1663   16.7856 H   0  0  0  0  0  0
    5.0600   54.4686   17.0862 H   0  0  0  0  0  0
    3.5704   55.2016   17.7252 H   0  0  0  0  0  0
    4.2462   53.2421   18.9383 H   0  0  0  0  0  0
    5.5510   52.6767   22.9586 H   0  0  0  0  0  0
    6.4390   56.3400   20.9277 H   0  0  0  0  0  0
    7.3929   54.9746   25.1105 H   0  0  0  0  0  0
    7.4708   53.4853   24.1788 H   0  0  0  0  0  0
    5.9095   54.0853   24.7913 H   0  0  0  0  0  0
    4.3139   50.9252   20.0821 H   0  0  0  0  0  0
    4.3707   50.8968   21.8594 H   0  0  0  0  0  0
    3.2828   53.4723   23.0813 H   0  0  0  0  0  0
    2.3043   54.0978   21.7758 H   0  0  0  0  0  0
    1.9011   55.1094   24.0072 H   0  0  0  0  0  0
    0.4556   54.4211   23.3598 H   0  0  0  0  0  0
    2.6365   54.5027   26.0873 H   0  0  0  0  0  0
    0.2685   52.0179   20.2893 H   0  0  0  0  0  0
   -3.2713   50.0833   23.4597 H   0  0  0  0  0  0
   -1.9421   51.2588   24.9174 H   0  0  0  0  0  0
   -5.8807   48.8078   21.3841 H   0  0  0  0  0  0
   -4.5003   48.4661   22.4264 H   0  0  0  0  0  0
   -5.4318   49.9697   22.6337 H   0  0  0  0  0  0
   -0.2061   48.2088   26.0815 H   0  0  0  0  0  0
    0.9696   49.0960   25.1143 H   0  0  0  0  0  0
    1.1756   48.9798   26.8702 H   0  0  0  0  0  0
   -0.7173   51.0377   30.0819 H   0  0  0  0  0  0
   -0.8958   52.5273   29.1697 H   0  0  0  0  0  0
   -1.3814   50.9759   28.4622 H   0  0  0  0  0  0
    3.6136   54.6669   29.5754 H   0  0  0  0  0  0
    4.1017   54.3805   27.9122 H   0  0  0  0  0  0
    2.7109   55.4296   28.2741 H   0  0  0  0  0  0
    2.5619   51.5905   21.0156 N   0  3  0  0  0  0
    2.2955   52.2363   20.2840 H   0  0  0  0  0  0
    2.1907   50.6857   20.7575 H   0  0  0  0  0  0
  1  2  1  0  0  0
  1 38  1  0  0  0
  1 39  1  0  0  0
  1 40  1  0  0  0
  2  3  1  0  0  0
  3  8  2  0  0  0
  3  4  1  0  0  0
  4  5  2  0  0  0
  4 41  1  0  0  0
  5  6  1  0  0  0
  5 11  1  0  0  0
  6  7  2  0  0  0
  6 42  1  0  0  0
  7  8  1  0  0  0
  7  9  1  0  0  0
  8 43  1  0  0  0
  9 10  1  0  0  0
 10 44  1  0  0  0
 10 45  1  0  0  0
 10 46  1  0  0  0
 11 47  1  0  0  0
 11 48  1  0  0  0
 11 69  1  0  0  0
 12 13  1  0  0  0
 12 23  1  0  0  0
 12 14  1  0  0  0
 12 69  1  0  0  0
 14 15  1  0  0  0
 14 49  1  0  0  0
 14 50  1  0  0  0
 15 16  1  0  0  0
 15 51  1  0  0  0
 15 52  1  0  0  0
 16 21  2  0  0  0
 16 17  1  0  0  0
 17 18  2  0  0  0
 17 53  1  0  0  0
 18 19  1  0  0  0
 18 36  1  0  0  0
 19 20  2  0  0  0
 19 34  1  0  0  0
 20 21  1  0  0  0
 20 32  1  0  0  0
 21 22  1  0  0  0
 22 29  2  0  0  0
 22 23  1  0  0  0
 23 24  2  0  0  0
 24 25  1  0  0  0
 24 54  1  0  0  0
 25 26  2  0  0  0
 25 27  1  0  0  0
 27 28  2  0  0  0
 27 30  1  0  0  0
 28 29  1  0  0  0
 28 55  1  0  0  0
 29 56  1  0  0  0
 30 31  1  0  0  0
 31 57  1  0  0  0
 31 58  1  0  0  0
 31 59  1  0  0  0
 32 33  1  0  0  0
 33 60  1  0  0  0
 33 61  1  0  0  0
 33 62  1  0  0  0
 34 35  1  0  0  0
 35 63  1  0  0  0
 35 64  1  0  0  0
 35 65  1  0  0  0
 36 37  1  0  0  0
 37 66  1  0  0  0
 37 67  1  0  0  0
 37 68  1  0  0  0
 69 70  1  0  0  0
 69 71  1  0  0  0
M  CHG  1  69   1
M  END
> <i_i_glide_confnum>
12

> <i_i_glide_lignum>
1074

> <i_i_glide_posenum>
60

> <i_i_glide_rotatable_bonds>
9

> <i_m_Source_File_Index>
1890

> <b_m_subgroup_collapsed>
0

> <r_i_docking_score>
-4.99457

> <r_i_glide_ecoul>
-3.54266

> <r_i_glide_eff_state_penalty>
0

> <r_i_glide_einternal>
2.86128

> <r_i_glide_emodel>
-60.2459

> <r_i_glide_energy>
-45.1953

> <r_i_glide_erotb>
0.224276

> <r_i_glide_esite>
0

> <r_i_glide_evdw>
-41.6527

> <r_i_glide_gscore>
-4.99457

> <r_i_glide_hbond>
-0.277759

> <r_i_glide_ligand_efficiency>
-0.134988

> <r_i_glide_ligand_efficiency_ln>
-1.08321

> <r_i_glide_ligand_efficiency_sa>
-0.449811

> <r_i_glide_lipo>
-2.3271

> <r_i_glide_metal>
0

> <r_i_glide_rewards>
3.80921e-05

> <s_i_glide_gridfile>
wee1_glide-grid

> <s_m_Source_File>
wee1_decoys_glide_SP.sdf

> <s_m_Source_Path>
/Users/zhangxujun/Desktop

> <s_m_entry_id>
2165

> <s_m_entry_name>
wee1_decoys_glide_SP.1890

> <s_m_subgroup_title>
wee1_decoys_glide_SP

> <s_m_subgroupid>
wee1_decoys_glide_SP


$$$$
