@<TRIPOS>MOLECULE
ZINC38547039_3479
57   60    1
SMALL
USER_CHARGES


@<TRIPOS>ATOM
      1 C1         -2.3944   46.0562   23.6250 C.3       1 UNK         0.0000 
      2 C2         -1.6144   47.3377   23.7250 C.ar      1 UNK         0.0000 
      3 C3         -1.1914   47.9713   22.5522 C.ar      1 UNK         0.0000 
      4 C4         -0.4114   49.1217   22.6439 C.ar      1 UNK         0.0000 
      5 N5         -0.1285   49.6162   23.8626 N.pl3     1 UNK         0.0000 
      6 C6         -0.5662   49.0776   25.0220 C.ar      1 UNK         0.0000 
      7 C7         -1.2964   47.8905   24.9708 C.ar      1 UNK         0.0000 
      8 N8         -0.3659   49.7535   26.2572 N.pl3     1 UNK         0.0000 
      9 C9         -0.0915   51.1999   26.2794 C.3       1 UNK         0.0000 
     10 H10         0.8150   51.2529   25.6797 H         1 UNK         0.0000 
     11 C11         0.3258   51.7499   27.6470 C.ar      1 UNK         0.0000 
     12 C12        -0.4497   51.5483   28.7938 C.ar      1 UNK         0.0000 
     13 C13        -0.0687   52.0968   30.0102 C.ar      1 UNK         0.0000 
     14 C14         1.1171   52.8095   30.0932 C.ar      1 UNK         0.0000 
     15 C15         1.9208   52.9963   28.9754 C.ar      1 UNK         0.0000 
     16 C16         1.5234   52.4677   27.7533 C.ar      1 UNK         0.0000 
     17 F17         1.5045   53.2970   31.2815 F         1 UNK         0.0000 
     18 C18        -1.1921   52.0098   25.5743 C.2       1 UNK         0.0000 
     19 C19        -2.5652   52.1277   25.9658 C.2       1 UNK         0.0000 
     20 C20        -3.3418   52.8614   25.0619 C.2       1 UNK         0.0000 
     21 S21        -2.4228   53.2965   23.6815 S.3       1 UNK         0.0000 
     22 C22        -0.9876   52.6317   24.3357 C.2       1 UNK         0.0000 
     23 N23         0.1301   52.6736   23.5144 N.am      1 UNK         0.0000 
     24 C24         1.3041   53.2589   23.8298 C.2       1 UNK         0.0000 
     25 O25         1.5045   53.8664   24.8807 O.2       1 UNK         0.0000 
     26 C26         2.3978   53.1596   22.7885 C.ar      1 UNK         0.0000 
     27 C27         2.4067   52.1371   21.8241 C.ar      1 UNK         0.0000 
     28 C28         3.4293   52.0620   20.8826 C.ar      1 UNK         0.0000 
     29 C29         4.4520   53.0039   20.8975 C.ar      1 UNK         0.0000 
     30 C30         4.4664   54.0187   21.8482 C.ar      1 UNK         0.0000 
     31 C31         3.4437   54.0940   22.7911 C.ar      1 UNK         0.0000 
     32 C32        -4.8073   53.2377   25.1148 C.3       1 UNK         0.0000 
     33 C33        -3.2196   51.4568   27.1541 C.3       1 UNK         0.0000 
     34 H34        -3.2144   46.1604   22.9116 H         1 UNK         0.0000 
     35 H35        -1.7041   45.2952   23.2564 H         1 UNK         0.0000 
     36 H36        -2.8178   45.7661   24.5876 H         1 UNK         0.0000 
     37 H37        -1.4354   47.5592   21.5831 H         1 UNK         0.0000 
     38 H38        -0.0194   49.6637   21.7951 H         1 UNK         0.0000 
     39 H39        -1.6327   47.4331   25.8933 H         1 UNK         0.0000 
     40 H40        -0.7090   49.3127   27.1115 H         1 UNK         0.0000 
     41 H41        -1.3287   50.9288   28.7858 H         1 UNK         0.0000 
     42 H42        -0.6691   51.9282   30.8936 H         1 UNK         0.0000 
     43 H43         2.8469   53.5452   29.0559 H         1 UNK         0.0000 
     44 H44         2.1612   52.6108   26.8958 H         1 UNK         0.0000 
     45 H45        -0.0097   52.4427   22.5431 H         1 UNK         0.0000 
     46 H46         1.6342   51.3844   21.7917 H         1 UNK         0.0000 
     47 H47         3.4360   51.2785   20.1382 H         1 UNK         0.0000 
     48 H48         5.2394   52.9462   20.1599 H         1 UNK         0.0000 
     49 H49         5.2656   54.7449   21.8522 H         1 UNK         0.0000 
     50 H50         3.4673   54.8919   23.5201 H         1 UNK         0.0000 
     51 H51        -5.2005   53.2404   26.1335 H         1 UNK         0.0000 
     52 H52        -4.9864   54.2350   24.7097 H         1 UNK         0.0000 
     53 H53        -5.4176   52.5417   24.5364 H         1 UNK         0.0000 
     54 H54        -2.7835   50.4861   27.3762 H         1 UNK         0.0000 
     55 H55        -3.1862   52.0938   28.0387 H         1 UNK         0.0000 
     56 H56        -4.2683   51.2291   26.9679 H         1 UNK         0.0000 
     57 H57         0.4020   50.4718   23.9291 H         1 UNK         0.0000 
@<TRIPOS>BOND
     1    1    2 1    
     2    1   34 1    
     3    1   35 1    
     4    1   36 1    
     5    2    7 ar   
     6    2    3 ar   
     7    3    4 ar   
     8    3   37 1    
     9    4    5 ar   
    10    4   38 1    
    11    5    6 ar   
    12    5   57 1    
    13    6    7 ar   
    14    6    8 1    
    15    7   39 1    
    16    8    9 1    
    17    8   40 1    
    18    9   10 1    
    19    9   11 1    
    20    9   18 1    
    21   11   16 ar   
    22   11   12 ar   
    23   12   13 ar   
    24   12   41 1    
    25   13   14 ar   
    26   13   42 1    
    27   14   15 ar   
    28   14   17 1    
    29   15   16 ar   
    30   15   43 1    
    31   16   44 1    
    32   18   22 2    
    33   18   19 1    
    34   19   20 2    
    35   19   33 1    
    36   20   21 1    
    37   20   32 1    
    38   21   22 1    
    39   22   23 am   BACKBONE|DICT|INTERRES
    40   23   24 am   BACKBONE|DICT|INTERRES
    41   23   45 1    
    42   24   25 2    
    43   24   26 1    
    44   26   31 ar   
    45   26   27 ar   
    46   27   28 ar   
    47   27   46 1    
    48   28   29 ar   
    49   28   47 1    
    50   29   30 ar   
    51   29   48 1    
    52   30   31 ar   
    53   30   49 1    
    54   31   50 1    
    55   32   51 1    
    56   32   52 1    
    57   32   53 1    
    58   33   54 1    
    59   33   55 1    
    60   33   56 1    
@<TRIPOS>SUBSTRUCTURE
     1 UNK         1 GROUP             0       ****    0 ROOT    
