@<TRIPOS>MOLECULE
ZINC19853131_614
64   68    1
SMALL
USER_CHARGES


@<TRIPOS>ATOM
      1 C1          1.5096   47.6375   14.7468 C.3       1 UNK         0.0000 
      2 N2          1.4379   46.4851   15.6719 N.pl3     1 UNK         0.0000 
      3 C3          2.6373   45.6241   15.6814 C.3       1 UNK         0.0000 
      4 S4          0.7163   46.8182   17.2519 S.o2      1 UNK         0.0000 
      5 O5         -0.4938   47.6277   17.0727 O.2       1 UNK         0.0000 
      6 O6          0.6578   45.5744   18.0288 O.2       1 UNK         0.0000 
      7 N7          1.9053   47.8435   18.0479 N.pl3     1 UNK         0.0000 
      8 C8          1.5830   48.6765   19.1181 C.ar      1 UNK         0.0000 
      9 C9          2.2640   49.8844   19.2143 C.ar      1 UNK         0.0000 
     10 C10         2.0023   50.7402   20.2722 C.ar      1 UNK         0.0000 
     11 C11         1.0855   50.3893   21.2704 C.ar      1 UNK         0.0000 
     12 C12         0.3864   49.1806   21.1543 C.ar      1 UNK         0.0000 
     13 C13         0.6349   48.3258   20.0814 C.ar      1 UNK         0.0000 
     14 N14         0.9307   51.2424   22.3567 N.pl3     1 UNK         0.0000 
     15 C15         2.1508   51.5987   23.0839 C.3       1 UNK         0.0000 
     16 C16         2.0633   53.0258   23.6277 C.3       1 UNK         0.0000 
     17 C17         0.8693   53.2324   24.5784 C.3       1 UNK         0.0000 
     18 C18        -0.3958   52.4995   24.0598 C.3       1 UNK         0.0000 
     19 C19        -0.1488   51.1407   23.3513 C.3       1 UNK         0.0000 
     20 N20         1.2432   52.6112   25.9523 N.4       1 UNK         0.0000 
     21 C21         1.7256   53.6138   27.0277 C.3       1 UNK         0.0000 
     22 C22         1.5093   53.0543   28.4159 C.ar      1 UNK         0.0000 
     23 C23         0.3183   52.7804   29.0935 C.ar      1 UNK         0.0000 
     24 C24         0.3555   52.3957   30.4339 C.ar      1 UNK         0.0000 
     25 C25         1.5797   52.2555   31.0898 C.ar      1 UNK         0.0000 
     26 C26         2.7738   52.4968   30.4077 C.ar      1 UNK         0.0000 
     27 C27         2.7306   52.9216   29.0780 C.ar      1 UNK         0.0000 
     28 C28         3.8038   53.3690   28.1761 C.ar      1 UNK         0.0000 
     29 C29         3.2287   53.8416   26.9945 C.ar      1 UNK         0.0000 
     30 C30         4.0366   54.4973   26.0584 C.ar      1 UNK         0.0000 
     31 C31         5.4173   54.5733   26.2536 C.ar      1 UNK         0.0000 
     32 C32         5.9931   54.0322   27.4050 C.ar      1 UNK         0.0000 
     33 C33         5.1833   53.4374   28.3730 C.ar      1 UNK         0.0000 
     34 H34         1.7176   47.2922   13.7352 H         1 UNK         0.0000 
     35 H35         2.2898   48.3272   15.0732 H         1 UNK         0.0000 
     36 H36         0.5595   48.1720   14.7444 H         1 UNK         0.0000 
     37 H37         2.8445   45.2749   14.6714 H         1 UNK         0.0000 
     38 H38         3.4922   46.1752   16.0762 H         1 UNK         0.0000 
     39 H39         2.4677   44.7561   16.3180 H         1 UNK         0.0000 
     40 H40         2.6516   48.1889   17.4522 H         1 UNK         0.0000 
     41 H41         3.0099   50.1603   18.4810 H         1 UNK         0.0000 
     42 H42         2.5383   51.6769   20.3175 H         1 UNK         0.0000 
     43 H43        -0.3251   48.8797   21.9077 H         1 UNK         0.0000 
     44 H44         0.1044   47.3871   20.0141 H         1 UNK         0.0000 
     45 H45         2.3043   50.8733   23.8847 H         1 UNK         0.0000 
     46 H46         3.0407   51.5372   22.4554 H         1 UNK         0.0000 
     47 H47         3.0156   53.2202   24.1078 H         1 UNK         0.0000 
     48 H48         1.9956   53.7096   22.7807 H         1 UNK         0.0000 
     49 H49         0.7049   54.3019   24.7077 H         1 UNK         0.0000 
     50 H50        -0.9209   53.1381   23.3474 H         1 UNK         0.0000 
     51 H51        -1.1100   52.3428   24.8717 H         1 UNK         0.0000 
     52 H52        -1.0682   50.8741   22.8289 H         1 UNK         0.0000 
     53 H53         0.0537   50.3369   24.0615 H         1 UNK         0.0000 
     54 H54         0.4107   52.1807   26.3279 H         1 UNK         0.0000 
     55 H55         1.1151   54.4984   26.8871 H         1 UNK         0.0000 
     56 H56        -0.6400   52.8921   28.6071 H         1 UNK         0.0000 
     57 H57        -0.5606   52.1951   30.9732 H         1 UNK         0.0000 
     58 H58         1.5963   51.9617   32.1298 H         1 UNK         0.0000 
     59 H59         3.7140   52.4051   30.9331 H         1 UNK         0.0000 
     60 H60         3.6117   54.9585   25.1793 H         1 UNK         0.0000 
     61 H61         6.0390   55.0601   25.5168 H         1 UNK         0.0000 
     62 H62         7.0599   54.0986   27.5627 H         1 UNK         0.0000 
     63 H63         5.6275   53.0628   29.2814 H         1 UNK         0.0000 
     64 H64         1.9221   51.8743   25.8310 H         1 UNK         0.0000 
@<TRIPOS>BOND
     1    1    2 1    
     2    1   34 1    
     3    1   35 1    
     4    1   36 1    
     5    2    3 1    
     6    2    4 1    
     7    3   37 1    
     8    3   38 1    
     9    3   39 1    
    10    4    5 2    
    11    4    6 2    
    12    4    7 1    
    13    7    8 1    
    14    7   40 1    
    15    8   13 ar   
    16    8    9 ar   
    17    9   10 ar   
    18    9   41 1    
    19   10   11 ar   
    20   10   42 1    
    21   11   12 ar   
    22   11   14 1    
    23   12   13 ar   
    24   12   43 1    
    25   13   44 1    
    26   14   19 1    
    27   14   15 1    
    28   15   16 1    
    29   15   45 1    
    30   15   46 1    
    31   16   17 1    
    32   16   47 1    
    33   16   48 1    
    34   17   18 1    
    35   17   20 1    
    36   17   49 1    
    37   18   19 1    
    38   18   50 1    
    39   18   51 1    
    40   19   52 1    
    41   19   53 1    
    42   20   21 1    
    43   20   54 1    
    44   20   64 1    
    45   21   29 1    
    46   21   22 1    
    47   21   55 1    
    48   22   27 ar   
    49   22   23 ar   
    50   23   24 ar   
    51   23   56 1    
    52   24   25 ar   
    53   24   57 1    
    54   25   26 ar   
    55   25   58 1    
    56   26   27 ar   
    57   26   59 1    
    58   27   28 1    
    59   28   33 ar   
    60   28   29 ar   
    61   29   30 ar   
    62   30   31 ar   
    63   30   60 1    
    64   31   32 ar   
    65   31   61 1    
    66   32   33 ar   
    67   32   62 1    
    68   33   63 1    
@<TRIPOS>SUBSTRUCTURE
     1 UNK         1 GROUP             0       ****    0 ROOT    
