@<TRIPOS>MOLECULE
ZINC66890909_1359
58   60    1
SMALL
USER_CHARGES


@<TRIPOS>ATOM
      1 C1         10.3085   50.8971   12.6415 C.3       1 UNK         0.0000 
      2 C2          9.2746   51.3810   13.6357 C.ar      1 UNK         0.0000 
      3 C3          9.6528   51.7242   14.9327 C.ar      1 UNK         0.0000 
      4 C4          8.6997   52.1748   15.8448 C.ar      1 UNK         0.0000 
      5 C5          7.3503   52.2861   15.4649 C.ar      1 UNK         0.0000 
      6 C6          6.9670   51.9072   14.1634 C.ar      1 UNK         0.0000 
      7 C7          7.9342   51.4623   13.2595 C.ar      1 UNK         0.0000 
      8 C8          5.5133   51.9659   13.7060 C.3       1 UNK         0.0000 
      9 N9          6.3360   52.7308   16.3311 N.am      1 UNK         0.0000 
     10 C10         6.4193   53.3461   17.5285 C.2       1 UNK         0.0000 
     11 O11         7.4705   53.6976   18.0654 O.2       1 UNK         0.0000 
     12 C12         5.0556   53.6397   18.2028 C.3       1 UNK         0.0000 
     13 H13         4.4217   52.7708   18.0007 H         1 UNK         0.0000 
     14 C14         4.4118   54.8878   17.5850 C.3       1 UNK         0.0000 
     15 N15         5.2101   53.6063   19.7565 N.4       1 UNK         0.0000 
     16 C16         5.7690   54.9283   20.3406 C.3       1 UNK         0.0000 
     17 C17         5.9286   54.8053   21.8632 C.3       1 UNK         0.0000 
     18 C18         4.6664   54.3276   22.6282 C.3       1 UNK         0.0000 
     19 C19         4.0647   53.0857   21.9313 C.3       1 UNK         0.0000 
     20 C20         3.8577   53.2560   20.4179 C.3       1 UNK         0.0000 
     21 N21         4.8213   54.0970   24.0711 N.am      1 UNK         0.0000 
     22 C22         5.6276   54.7354   24.9415 C.2       1 UNK         0.0000 
     23 O23         6.3445   55.6969   24.6675 O.2       1 UNK         0.0000 
     24 C24         5.6121   54.1962   26.2665 C.2       1 UNK         0.0000 
     25 C25         6.7058   54.1919   27.1376 C.2       1 UNK         0.0000 
     26 C26         6.2717   53.6958   28.3412 C.2       1 UNK         0.0000 
     27 O27         4.9513   53.4018   28.2747 O.3       1 UNK         0.0000 
     28 C28         4.5320   53.7079   27.0160 C.2       1 UNK         0.0000 
     29 C29         3.0623   53.4764   26.7447 C.3       1 UNK         0.0000 
     30 H30        10.6167   51.7043   11.9765 H         1 UNK         0.0000 
     31 H31         9.9021   50.0907   12.0352 H         1 UNK         0.0000 
     32 H32        11.1906   50.4962   13.1432 H         1 UNK         0.0000 
     33 H33        10.6861   51.6435   15.2391 H         1 UNK         0.0000 
     34 H34         9.0383   52.4154   16.8372 H         1 UNK         0.0000 
     35 H35         7.6489   51.1769   12.2579 H         1 UNK         0.0000 
     36 H36         4.9004   51.3011   14.3148 H         1 UNK         0.0000 
     37 H37         5.1202   52.9761   13.8200 H         1 UNK         0.0000 
     38 H38         5.3918   51.6773   12.6606 H         1 UNK         0.0000 
     39 H39         5.4054   52.5485   15.9901 H         1 UNK         0.0000 
     40 H40         4.2149   54.7294   16.5231 H         1 UNK         0.0000 
     41 H41         3.4606   55.1013   18.0718 H         1 UNK         0.0000 
     42 H42         5.0587   55.7605   17.6884 H         1 UNK         0.0000 
     43 H43         6.7449   55.1131   19.8969 H         1 UNK         0.0000 
     44 H44         5.1044   55.7415   20.0588 H         1 UNK         0.0000 
     45 H45         6.7125   54.0966   22.0837 H         1 UNK         0.0000 
     46 H46         6.2954   55.7642   22.2267 H         1 UNK         0.0000 
     47 H47         3.9039   55.1010   22.5212 H         1 UNK         0.0000 
     48 H48         3.1071   52.8275   22.3864 H         1 UNK         0.0000 
     49 H49         4.7281   52.2323   22.0821 H         1 UNK         0.0000 
     50 H50         3.1483   54.0466   20.1745 H         1 UNK         0.0000 
     51 H51         3.5238   52.3093   19.9844 H         1 UNK         0.0000 
     52 H52         4.4367   53.2275   24.4095 H         1 UNK         0.0000 
     53 H53         7.7104   54.5110   26.9166 H         1 UNK         0.0000 
     54 H54         6.7693   53.5343   29.2804 H         1 UNK         0.0000 
     55 H55         2.8794   53.0910   25.7427 H         1 UNK         0.0000 
     56 H56         2.6311   52.7510   27.4377 H         1 UNK         0.0000 
     57 H57         2.4868   54.3976   26.8493 H         1 UNK         0.0000 
     58 H58         5.8575   52.8556   19.9607 H         1 UNK         0.0000 
@<TRIPOS>BOND
     1    1    2 1    
     2    1   30 1    
     3    1   31 1    
     4    1   32 1    
     5    2    7 ar   
     6    2    3 ar   
     7    3    4 ar   
     8    3   33 1    
     9    4    5 ar   
    10    4   34 1    
    11    5    6 ar   
    12    5    9 1    
    13    6    7 ar   
    14    6    8 1    
    15    7   35 1    
    16    8   36 1    
    17    8   37 1    
    18    8   38 1    
    19    9   10 am   BACKBONE|DICT|INTERRES
    20    9   39 1    
    21   10   11 2    
    22   10   12 1    
    23   12   13 1    
    24   12   14 1    
    25   12   15 1    
    26   14   40 1    
    27   14   41 1    
    28   14   42 1    
    29   15   20 1    
    30   15   16 1    
    31   15   58 1    
    32   16   17 1    
    33   16   43 1    
    34   16   44 1    
    35   17   18 1    
    36   17   45 1    
    37   17   46 1    
    38   18   19 1    
    39   18   21 1    
    40   18   47 1    
    41   19   20 1    
    42   19   48 1    
    43   19   49 1    
    44   20   50 1    
    45   20   51 1    
    46   21   22 am   BACKBONE|DICT|INTERRES
    47   21   52 1    
    48   22   23 2    
    49   22   24 1    
    50   24   28 2    
    51   24   25 1    
    52   25   26 2    
    53   25   53 1    
    54   26   27 1    
    55   26   54 1    
    56   27   28 1    
    57   28   29 1    
    58   29   55 1    
    59   29   56 1    
    60   29   57 1    
@<TRIPOS>SUBSTRUCTURE
     1 UNK         1 GROUP             0       ****    0 ROOT    
