@<TRIPOS>MOLECULE
ZINC34906387_4495
72   77    1
SMALL
USER_CHARGES


@<TRIPOS>ATOM
      1 C1          3.1627   54.1078   26.6988 C.ar      1 UNK         0.0000 
      2 C2          3.4798   53.6513   27.9773 C.ar      1 UNK         0.0000 
      3 C3          4.8130   53.4278   28.3202 C.ar      1 UNK         0.0000 
      4 C4          5.8228   53.6465   27.3861 C.ar      1 UNK         0.0000 
      5 C5          5.5198   54.1001   26.0970 C.ar      1 UNK         0.0000 
      6 C6          4.1769   54.3553   25.7710 C.ar      1 UNK         0.0000 
      7 O7          6.5741   54.2507   25.2113 O.3       1 UNK         0.0000 
      8 C8          6.4960   55.2374   24.1841 C.3       1 UNK         0.0000 
      9 C9          6.0369   54.6709   22.8484 C.2       1 UNK         0.0000 
     10 N10         5.0958   53.7630   22.7032 N.2       1 UNK         0.0000 
     11 C11         4.7650   53.5430   21.4334 C.2       1 UNK         0.0000 
     12 C12         5.5026   54.2845   20.5110 C.2       1 UNK         0.0000 
     13 S13         6.6338   55.2992   21.3431 S.3       1 UNK         0.0000 
     14 C14         3.7175   52.5983   21.0662 C.2       1 UNK         0.0000 
     15 O15         3.4785   52.3527   19.8854 O.2       1 UNK         0.0000 
     16 N16         3.0567   52.0039   22.0817 N.am      1 UNK         0.0000 
     17 C17         2.0082   50.9827   21.9423 C.3       1 UNK         0.0000 
     18 H18         2.3955   50.2541   21.2217 H         1 UNK         0.0000 
     19 C19         1.7619   50.2256   23.2760 C.3       1 UNK         0.0000 
     20 C20         1.1040   51.1193   24.3528 C.3       1 UNK         0.0000 
     21 C21        -0.1844   51.7882   23.8434 C.3       1 UNK         0.0000 
     22 C22         0.0499   52.4869   22.4910 C.3       1 UNK         0.0000 
     23 C23         0.6447   51.5432   21.4188 C.3       1 UNK         0.0000 
     24 H24         0.8170   52.1359   20.5127 H         1 UNK         0.0000 
     25 N25        -0.3003   50.4765   21.0723 N.am      1 UNK         0.0000 
     26 C26        -0.3087   49.7865   19.9247 C.2       1 UNK         0.0000 
     27 O27         0.0808   50.2348   18.8519 O.2       1 UNK         0.0000 
     28 N28        -0.7384   48.5293   20.1239 N.am      1 UNK         0.0000 
     29 C29        -0.7194   47.4066   19.1772 C.3       1 UNK         0.0000 
     30 C30        -1.2306   46.1270   19.9099 C.3       1 UNK         0.0000 
     31 C31        -1.2422   44.8912   18.9707 C.3       1 UNK         0.0000 
     32 C32        -2.1834   45.1748   17.7735 C.3       1 UNK         0.0000 
     33 C33        -1.6758   46.4178   17.0023 C.3       1 UNK         0.0000 
     34 C34        -1.6601   47.6460   17.9520 C.3       1 UNK         0.0000 
     35 C35        -0.2382   46.1536   16.4849 C.3       1 UNK         0.0000 
     36 C36         0.7042   45.8660   17.6807 C.3       1 UNK         0.0000 
     37 C37         0.1955   44.6245   18.4538 C.3       1 UNK         0.0000 
     38 C38         0.7170   47.0903   18.6339 C.3       1 UNK         0.0000 
     39 F39         7.1045   53.4051   27.7377 F         1 UNK         0.0000 
     40 H40         2.1310   54.2763   26.4298 H         1 UNK         0.0000 
     41 H41         2.6970   53.4664   28.6970 H         1 UNK         0.0000 
     42 H42         5.0671   53.0679   29.3050 H         1 UNK         0.0000 
     43 H43         3.9001   54.7166   24.7931 H         1 UNK         0.0000 
     44 H44         5.8889   56.0912   24.4872 H         1 UNK         0.0000 
     45 H45         7.5027   55.6381   24.0851 H         1 UNK         0.0000 
     46 H46         5.4358   54.2743   19.4301 H         1 UNK         0.0000 
     47 H47         3.1442   52.4177   22.9967 H         1 UNK         0.0000 
     48 H48         1.1376   49.3477   23.0975 H         1 UNK         0.0000 
     49 H49         2.7037   49.8212   23.6538 H         1 UNK         0.0000 
     50 H50         1.8097   51.8879   24.6683 H         1 UNK         0.0000 
     51 H51         0.8841   50.5260   25.2422 H         1 UNK         0.0000 
     52 H52        -0.5421   52.5095   24.5795 H         1 UNK         0.0000 
     53 H53        -0.9708   51.0386   23.7484 H         1 UNK         0.0000 
     54 H54         0.7079   53.3457   22.6290 H         1 UNK         0.0000 
     55 H55        -0.8951   52.8907   22.1282 H         1 UNK         0.0000 
     56 H56        -0.8018   50.0830   21.8517 H         1 UNK         0.0000 
     57 H57        -1.1034   48.3078   21.0347 H         1 UNK         0.0000 
     58 H58        -0.6067   45.9144   20.7811 H         1 UNK         0.0000 
     59 H59        -2.2353   46.2938   20.3030 H         1 UNK         0.0000 
     60 H60        -1.6030   44.0191   19.5192 H         1 UNK         0.0000 
     61 H61        -2.2283   44.3110   17.1115 H         1 UNK         0.0000 
     62 H62        -3.2034   45.3401   18.1239 H         1 UNK         0.0000 
     63 H63        -2.3362   46.6188   16.1571 H         1 UNK         0.0000 
     64 H64        -2.6733   47.8657   18.2904 H         1 UNK         0.0000 
     65 H65        -1.3403   48.5269   17.3920 H         1 UNK         0.0000 
     66 H66        -0.2370   45.3119   15.7901 H         1 UNK         0.0000 
     67 H67         0.1227   47.0129   15.9168 H         1 UNK         0.0000 
     68 H68         1.7117   45.6861   17.3027 H         1 UNK         0.0000 
     69 H69         0.8621   44.3977   19.2858 H         1 UNK         0.0000 
     70 H70         0.2068   43.7456   17.8093 H         1 UNK         0.0000 
     71 H71         1.1262   47.9513   18.1005 H         1 UNK         0.0000 
     72 H72         1.4040   46.9100   19.4635 H         1 UNK         0.0000 
@<TRIPOS>BOND
     1    1    6 ar   
     2    1    2 ar   
     3    1   40 1    
     4    2    3 ar   
     5    2   41 1    
     6    3    4 ar   
     7    3   42 1    
     8    4    5 ar   
     9    4   39 1    
    10    5    6 ar   
    11    5    7 1    
    12    6   43 1    
    13    7    8 1    
    14    8    9 1    
    15    8   44 1    
    16    8   45 1    
    17    9   13 1    
    18    9   10 2    
    19   10   11 1    
    20   11   12 2    
    21   11   14 1    
    22   12   13 1    
    23   12   46 1    
    24   14   15 2    
    25   14   16 am   BACKBONE|DICT|INTERRES
    26   16   17 1    
    27   16   47 1    
    28   17   18 1    
    29   17   23 1    
    30   17   19 1    
    31   19   20 1    
    32   19   48 1    
    33   19   49 1    
    34   20   21 1    
    35   20   50 1    
    36   20   51 1    
    37   21   22 1    
    38   21   52 1    
    39   21   53 1    
    40   22   23 1    
    41   22   54 1    
    42   22   55 1    
    43   23   24 1    
    44   23   25 1    
    45   25   26 am   BACKBONE|DICT|INTERRES
    46   25   56 1    
    47   26   27 2    
    48   26   28 am   BACKBONE|DICT|INTERRES
    49   28   29 1    
    50   28   57 1    
    51   29   34 1    
    52   29   38 1    
    53   29   30 1    
    54   30   31 1    
    55   30   58 1    
    56   30   59 1    
    57   31   37 1    
    58   31   32 1    
    59   31   60 1    
    60   32   33 1    
    61   32   61 1    
    62   32   62 1    
    63   33   34 1    
    64   33   35 1    
    65   33   63 1    
    66   34   64 1    
    67   34   65 1    
    68   35   36 1    
    69   35   66 1    
    70   35   67 1    
    71   36   37 1    
    72   36   38 1    
    73   36   68 1    
    74   37   69 1    
    75   37   70 1    
    76   38   71 1    
    77   38   72 1    
@<TRIPOS>SUBSTRUCTURE
     1 UNK         1 GROUP             0       ****    0 ROOT    
