@<TRIPOS>MOLECULE
ZINC35077695_5467
68   72    1
SMALL
USER_CHARGES


@<TRIPOS>ATOM
      1 C1          6.1954   57.8695   17.7653 C.ar      1 UNK         0.0000 
      2 C2          5.5662   57.4365   16.6068 C.ar      1 UNK         0.0000 
      3 C3          4.9546   56.1874   16.5782 C.ar      1 UNK         0.0000 
      4 C4          4.9369   55.3515   17.7061 C.ar      1 UNK         0.0000 
      5 C5          5.5829   55.7920   18.8914 C.ar      1 UNK         0.0000 
      6 C6          6.2103   57.0536   18.8932 C.ar      1 UNK         0.0000 
      7 N7          5.5596   54.9491   20.0312 N.am      1 UNK         0.0000 
      8 C8          6.0370   55.1335   21.2815 C.2       1 UNK         0.0000 
      9 O9          6.7066   56.0971   21.6394 O.2       1 UNK         0.0000 
     10 C10         5.6710   54.0519   22.3080 C.3       1 UNK         0.0000 
     11 S11         6.9621   53.7839   23.5752 S.3       1 UNK         0.0000 
     12 C12         6.1486   54.3320   25.0422 C.2       1 UNK         0.0000 
     13 N13         6.7033   54.8436   26.1117 N.2       1 UNK         0.0000 
     14 N14         5.6998   54.8967   27.0749 N.2       1 UNK         0.0000 
     15 C15         4.6194   54.4043   26.5164 C.2       1 UNK         0.0000 
     16 O16         4.8371   54.0286   25.2265 O.3       1 UNK         0.0000 
     17 C17         3.2769   54.1678   27.1387 C.ar      1 UNK         0.0000 
     18 C18         2.4220   53.2029   26.5978 C.ar      1 UNK         0.0000 
     19 C19         1.2054   52.9052   27.2078 C.ar      1 UNK         0.0000 
     20 C20         0.8074   53.6024   28.3459 C.ar      1 UNK         0.0000 
     21 C21         1.6175   54.6135   28.8808 C.ar      1 UNK         0.0000 
     22 C22         2.8602   54.8742   28.2772 C.ar      1 UNK         0.0000 
     23 N23         1.1634   55.3899   30.0562 N.pl3     1 UNK         0.0000 
     24 O24         0.3076   54.8968   30.7853 O.co2     1 UNK         0.0000 
     25 O25         1.6563   56.4967   30.2462 O.co2     1 UNK         0.0000 
     26 N26         4.2845   54.1233   17.5689 N.pl3     1 UNK         0.0000 
     27 C27         3.4571   53.4938   18.6108 C.3       1 UNK         0.0000 
     28 C28         2.2297   52.7428   18.0732 C.3       1 UNK         0.0000 
     29 N29         2.7045   51.6965   17.0457 N.4       1 UNK         0.0000 
     30 C30         3.4772   52.3797   15.9021 C.3       1 UNK         0.0000 
     31 C31         4.6503   53.1937   16.4854 C.3       1 UNK         0.0000 
     32 C32         1.6148   50.7297   16.5049 C.3       1 UNK         0.0000 
     33 C33         1.2070   49.7308   17.6122 C.3       1 UNK         0.0000 
     34 C34         0.1325   48.7420   17.1188 C.3       1 UNK         0.0000 
     35 C35        -1.0871   49.4686   16.5127 C.3       1 UNK         0.0000 
     36 C36        -0.6834   50.4732   15.4115 C.3       1 UNK         0.0000 
     37 C37         0.3931   51.4661   15.8984 C.3       1 UNK         0.0000 
     38 H38         6.6593   58.8464   17.7910 H         1 UNK         0.0000 
     39 H39         5.5442   58.0735   15.7336 H         1 UNK         0.0000 
     40 H40         4.4637   55.8794   15.6668 H         1 UNK         0.0000 
     41 H41         6.7085   57.4476   19.7602 H         1 UNK         0.0000 
     42 H42         5.0692   54.0848   19.8617 H         1 UNK         0.0000 
     43 H43         5.5048   53.0997   21.8037 H         1 UNK         0.0000 
     44 H44         4.7231   54.3319   22.7653 H         1 UNK         0.0000 
     45 H45         2.7141   52.6456   25.7195 H         1 UNK         0.0000 
     46 H46         0.5681   52.1361   26.7966 H         1 UNK         0.0000 
     47 H47        -0.1466   53.3654   28.7973 H         1 UNK         0.0000 
     48 H48         3.5066   55.6317   28.6977 H         1 UNK         0.0000 
     49 H49         4.1074   52.7735   19.1106 H         1 UNK         0.0000 
     50 H50         3.1414   54.2224   19.3543 H         1 UNK         0.0000 
     51 H51         1.5124   53.4095   17.5942 H         1 UNK         0.0000 
     52 H52         1.7588   52.2003   18.8910 H         1 UNK         0.0000 
     53 H53         2.7837   52.9939   15.3260 H         1 UNK         0.0000 
     54 H54         3.8717   51.5645   15.2908 H         1 UNK         0.0000 
     55 H55         5.2172   53.6810   15.6904 H         1 UNK         0.0000 
     56 H56         5.3440   52.4970   16.9607 H         1 UNK         0.0000 
     57 H57         2.0753   50.1240   15.7191 H         1 UNK         0.0000 
     58 H58         2.0852   49.2181   18.0094 H         1 UNK         0.0000 
     59 H59         0.7977   50.2682   18.4667 H         1 UNK         0.0000 
     60 H60         0.5705   48.0783   16.3712 H         1 UNK         0.0000 
     61 H61        -0.1871   48.0993   17.9406 H         1 UNK         0.0000 
     62 H62        -1.7900   48.7379   16.1081 H         1 UNK         0.0000 
     63 H63        -1.6241   49.9960   17.3027 H         1 UNK         0.0000 
     64 H64        -0.3063   49.9262   14.5454 H         1 UNK         0.0000 
     65 H65        -1.5629   51.0174   15.0635 H         1 UNK         0.0000 
     66 H66        -0.0584   52.1081   16.6549 H         1 UNK         0.0000 
     67 H67         0.6930   52.1506   15.1053 H         1 UNK         0.0000 
     68 H68         3.3890   51.0946   17.4996 H         1 UNK         0.0000 
@<TRIPOS>BOND
     1    1    6 ar   
     2    1    2 ar   
     3    1   38 1    
     4    2    3 ar   
     5    2   39 1    
     6    3    4 ar   
     7    3   40 1    
     8    4    5 ar   
     9    4   26 1    
    10    5    6 ar   
    11    5    7 1    
    12    6   41 1    
    13    7    8 am   BACKBONE|DICT|INTERRES
    14    7   42 1    
    15    8    9 2    
    16    8   10 1    
    17   10   11 1    
    18   10   43 1    
    19   10   44 1    
    20   11   12 1    
    21   12   16 1    
    22   12   13 2    
    23   13   14 1    
    24   14   15 2    
    25   15   16 1    
    26   15   17 1    
    27   17   22 ar   
    28   17   18 ar   
    29   18   19 ar   
    30   18   45 1    
    31   19   20 ar   
    32   19   46 1    
    33   20   21 ar   
    34   20   47 1    
    35   21   22 ar   
    36   21   23 1    
    37   22   48 1    
    38   23   24 2    
    39   23   25 1    
    40   26   31 1    
    41   26   27 1    
    42   27   28 1    
    43   27   49 1    
    44   27   50 1    
    45   28   29 1    
    46   28   51 1    
    47   28   52 1    
    48   29   30 1    
    49   29   32 1    
    50   29   68 1    
    51   30   31 1    
    52   30   53 1    
    53   30   54 1    
    54   31   55 1    
    55   31   56 1    
    56   32   37 1    
    57   32   33 1    
    58   32   57 1    
    59   33   34 1    
    60   33   58 1    
    61   33   59 1    
    62   34   35 1    
    63   34   60 1    
    64   34   61 1    
    65   35   36 1    
    66   35   62 1    
    67   35   63 1    
    68   36   37 1    
    69   36   64 1    
    70   36   65 1    
    71   37   66 1    
    72   37   67 1    
@<TRIPOS>SUBSTRUCTURE
     1 UNK         1 GROUP             0       ****    0 ROOT    
