ZINC33575115_5497
                    3D
 Schrodinger Suite 2024-2.
 69 73  0  0  1  0            999 V2000
   -5.0229   47.1739   26.7961 C   0  0  0  0  0  0
   -3.7547   46.7053   26.0821 C   0  0  0  0  0  0
   -3.4964   45.5002   26.0797 O   0  0  0  0  0  0
   -2.8534   47.7456   25.4962 C   0  0  0  0  0  0
   -1.5247   47.4164   25.2020 C   0  0  0  0  0  0
   -0.6566   48.3670   24.6744 C   0  0  0  0  0  0
   -1.1114   49.6650   24.4002 C   0  0  0  0  0  0
   -2.4478   49.9879   24.6742 C   0  0  0  0  0  0
   -3.3106   49.0406   25.2199 C   0  0  0  0  0  0
   -0.2324   50.6331   23.8469 N   0  0  0  0  0  0
   -0.1771   51.9442   24.2617 C   0  0  0  0  0  0
   -0.6897   52.4813   25.2435 O   0  0  0  0  0  0
    0.5974   52.6559   23.1765 C   0  0  1  0  0  0
   -0.1536   52.8966   22.4217 H   0  0  0  0  0  0
    1.5042   53.8764   23.3380 C   0  0  2  0  0  0
    0.9704   54.8119   23.1732 H   0  0  0  0  0  0
    2.3988   53.6800   22.0814 N   0  3  0  0  0  0
    2.2443   52.2244   21.5128 C   0  0  1  0  0  0
    1.5250   51.6138   22.7494 C   0  0  2  0  0  0
    2.3048   51.3989   23.4900 H   0  0  0  0  0  0
    0.6406   50.3791   22.8138 C   0  0  0  0  0  0
    0.7431   49.3751   22.1119 O   0  0  0  0  0  0
    1.3968   52.1463   20.1767 C   0  0  0  0  0  0
    2.0711   52.1433   18.7583 C   0  0  0  0  0  0
    0.9827   52.1869   17.6570 C   0  0  0  0  0  0
    1.5821   51.9824   16.2489 C   0  0  0  0  0  0
    2.6918   53.0129   15.9509 C   0  0  0  0  0  0
    3.7539   53.0561   17.0667 C   0  0  0  0  0  0
    3.1153   53.2610   18.4534 C   0  0  0  0  0  0
    3.6843   51.6667   21.3015 C   0  0  0  0  0  0
    4.6871   52.3406   21.6455 O   0  0  0  0  0  0
    3.7298   50.4974   20.8784 O   0  5  0  0  0  0
    2.2849   53.9537   24.6463 C   0  0  0  0  0  0
    3.6230   54.0655   24.7814 C   0  0  0  0  0  0
    4.3792   54.0968   26.0484 C   0  0  0  0  0  0
    5.7160   54.5001   26.0157 C   0  0  0  0  0  0
    6.4764   54.4978   27.1784 C   0  0  0  0  0  0
    5.9026   54.0967   28.3802 C   0  0  0  0  0  0
    4.5691   53.7021   28.4324 C   0  0  0  0  0  0
    3.8065   53.7036   27.2675 C   0  0  0  0  0  0
   -4.7678   47.9298   27.5422 H   0  0  0  0  0  0
   -5.7231   47.6188   26.0883 H   0  0  0  0  0  0
   -5.5098   46.3433   27.3048 H   0  0  0  0  0  0
   -1.1390   46.4305   25.4198 H   0  0  0  0  0  0
    0.3714   48.0914   24.4925 H   0  0  0  0  0  0
   -2.8287   50.9775   24.4687 H   0  0  0  0  0  0
   -4.3298   49.3340   25.4222 H   0  0  0  0  0  0
    3.3789   53.8189   22.2932 H   0  0  0  0  0  0
    0.6263   52.9150   20.2023 H   0  0  0  0  0  0
    0.8345   51.2141   20.2023 H   0  0  0  0  0  0
    2.5936   51.1907   18.6384 H   0  0  0  0  0  0
    0.4118   53.1143   17.7194 H   0  0  0  0  0  0
    0.2546   51.3949   17.8373 H   0  0  0  0  0  0
    0.7991   52.0481   15.4949 H   0  0  0  0  0  0
    1.9961   50.9749   16.1699 H   0  0  0  0  0  0
    2.2449   54.0025   15.8398 H   0  0  0  0  0  0
    3.1652   52.7826   14.9951 H   0  0  0  0  0  0
    4.4784   53.8468   16.8650 H   0  0  0  0  0  0
    4.3153   52.1203   17.0602 H   0  0  0  0  0  0
    3.9075   53.2747   19.1956 H   0  0  0  0  0  0
    2.6976   54.2618   18.5095 H   0  0  0  0  0  0
    1.6673   53.9091   25.5309 H   0  0  0  0  0  0
    4.2319   54.1200   23.8908 H   0  0  0  0  0  0
    6.1773   54.8007   25.0842 H   0  0  0  0  0  0
    7.5069   54.8079   27.1607 H   0  0  0  0  0  0
    6.5018   54.1001   29.2809 H   0  0  0  0  0  0
    4.1306   53.3924   29.3691 H   0  0  0  0  0  0
    2.7807   53.3714   27.3241 H   0  0  0  0  0  0
    2.1606   54.3443   21.3478 H   0  0  0  0  0  0
  1  2  1  0  0  0
  1 41  1  0  0  0
  1 42  1  0  0  0
  1 43  1  0  0  0
  2  3  2  0  0  0
  2  4  1  0  0  0
  4  9  2  0  0  0
  4  5  1  0  0  0
  5  6  2  0  0  0
  5 44  1  0  0  0
  6  7  1  0  0  0
  6 45  1  0  0  0
  7  8  2  0  0  0
  7 10  1  0  0  0
  8  9  1  0  0  0
  8 46  1  0  0  0
  9 47  1  0  0  0
 10 21  1  0  0  0
 10 11  1  0  0  0
 11 12  2  0  0  0
 11 13  1  0  0  0
 13 14  1  0  0  0
 13 19  1  0  0  0
 13 15  1  0  0  0
 15 16  1  0  0  0
 15 17  1  0  0  0
 15 33  1  0  0  0
 17 18  1  0  0  0
 17 48  1  0  0  0
 17 69  1  0  0  0
 18 19  1  0  0  0
 18 23  1  0  0  0
 18 30  1  0  0  0
 19 20  1  0  0  0
 19 21  1  0  0  0
 21 22  2  0  0  0
 23 24  1  0  0  0
 23 49  1  0  0  0
 23 50  1  0  0  0
 24 29  1  0  0  0
 24 25  1  0  0  0
 24 51  1  0  0  0
 25 26  1  0  0  0
 25 52  1  0  0  0
 25 53  1  0  0  0
 26 27  1  0  0  0
 26 54  1  0  0  0
 26 55  1  0  0  0
 27 28  1  0  0  0
 27 56  1  0  0  0
 27 57  1  0  0  0
 28 29  1  0  0  0
 28 58  1  0  0  0
 28 59  1  0  0  0
 29 60  1  0  0  0
 29 61  1  0  0  0
 30 31  2  0  0  0
 30 32  1  0  0  0
 33 34  2  0  0  0
 33 62  1  0  0  0
 34 35  1  0  0  0
 34 63  1  0  0  0
 35 40  2  0  0  0
 35 36  1  0  0  0
 36 37  2  0  0  0
 36 64  1  0  0  0
 37 38  1  0  0  0
 37 65  1  0  0  0
 38 39  2  0  0  0
 38 66  1  0  0  0
 39 40  1  0  0  0
 39 67  1  0  0  0
 40 68  1  0  0  0
M  CHG  2  17   1  32  -1
M  END
> <i_i_glide_confnum>
10

> <i_i_glide_lignum>
5498

> <i_i_glide_posenum>
210

> <i_i_glide_rotatable_bonds>
7

> <i_m_Source_File_Index>
3551

> <b_m_subgroup_collapsed>
0

> <r_i_docking_score>
-5.44791

> <r_i_glide_ecoul>
-5.12864

> <r_i_glide_eff_state_penalty>
0

> <r_i_glide_einternal>
2.56526

> <r_i_glide_emodel>
-60.9994

> <r_i_glide_energy>
-46.2032

> <r_i_glide_erotb>
0.407458

> <r_i_glide_esite>
-0.0986818

> <r_i_glide_evdw>
-41.0745

> <r_i_glide_gscore>
-5.44791

> <r_i_glide_hbond>
-0.191484

> <r_i_glide_ligand_efficiency>
-0.147241

> <r_i_glide_ligand_efficiency_ln>
-1.18152

> <r_i_glide_ligand_efficiency_sa>
-0.490639

> <r_i_glide_lipo>
-2.60154

> <r_i_glide_metal>
0

> <r_i_glide_rewards>
-0.140642

> <s_i_glide_gridfile>
wee1_glide-grid

> <s_m_Source_File>
wee1_decoys_glide_SP.sdf

> <s_m_Source_Path>
/Users/zhangxujun/Desktop

> <s_m_entry_id>
3826

> <s_m_entry_name>
wee1_decoys_glide_SP.3551

> <s_m_subgroup_title>
wee1_decoys_glide_SP

> <s_m_subgroupid>
wee1_decoys_glide_SP


$$$$
