@<TRIPOS>MOLECULE
ZINC36053523_5807
64   67    1
SMALL
USER_CHARGES


@<TRIPOS>ATOM
      1 C1          2.4232   54.5590   27.8144 C.3       1 UNK         0.0000 
      2 C2          1.5365   53.5116   27.1386 C.2       1 UNK         0.0000 
      3 C3          0.6501   52.6515   27.7401 C.2       1 UNK         0.0000 
      4 C4         -0.0627   51.5509   26.8862 C.3       1 UNK         0.0000 
      5 H5          0.0704   50.5872   27.3845 H         1 UNK         0.0000 
      6 N6          0.6503   51.4195   25.5838 N.pl3     1 UNK         0.0000 
      7 C7          0.4885   50.3826   24.6844 C.2       1 UNK         0.0000 
      8 C8          0.8778   50.7297   23.4445 C.2       1 UNK         0.0000 
      9 S9          1.5853   52.3425   23.3571 S.3       1 UNK         0.0000 
     10 C10         1.3913   52.4968   25.1125 C.2       1 UNK         0.0000 
     11 N11         1.7909   53.4990   25.7948 N.2       1 UNK         0.0000 
     12 C12        -0.0747   49.0898   25.0286 C.2       1 UNK         0.0000 
     13 C13        -0.8927   48.3387   24.2771 C.2       1 UNK         0.0000 
     14 O14        -1.3964   48.5471   23.1116 O.co2     1 UNK         0.0000 
     15 N15        -1.2966   47.1135   24.7363 N.pl3     1 UNK         0.0000 
     16 C16        -2.6674   46.7057   25.0019 C.3       1 UNK         0.0000 
     17 C17        -3.0535   46.8892   26.4798 C.3       1 UNK         0.0000 
     18 C18        -4.3408   46.1864   26.8941 C.ar      1 UNK         0.0000 
     19 C19        -5.2774   46.8364   27.7040 C.ar      1 UNK         0.0000 
     20 C20        -6.4226   46.1400   28.0946 C.ar      1 UNK         0.0000 
     21 C21        -6.5986   44.8188   27.6809 C.ar      1 UNK         0.0000 
     22 C22        -5.6156   44.2335   26.8812 C.ar      1 UNK         0.0000 
     23 N23        -4.4998   44.8979   26.4822 N.ar      1 UNK         0.0000 
     24 C24        -1.5861   51.7350   26.7117 C.ar      1 UNK         0.0000 
     25 C25        -2.4719   51.1143   27.5962 C.ar      1 UNK         0.0000 
     26 C26        -3.8474   51.2667   27.4481 C.ar      1 UNK         0.0000 
     27 C27        -4.3601   52.0418   26.4058 C.ar      1 UNK         0.0000 
     28 C28        -3.4799   52.6574   25.5110 C.ar      1 UNK         0.0000 
     29 C29        -2.1053   52.4982   25.6599 C.ar      1 UNK         0.0000 
     30 C30        -5.8744   52.1980   26.2468 C.3       1 UNK         0.0000 
     31 C31        -6.3508   53.6069   26.6473 C.3       1 UNK         0.0000 
     32 C32        -6.3593   51.8164   24.8352 C.3       1 UNK         0.0000 
     33 C33         0.3211   52.6479   29.1834 C.2       1 UNK         0.0000 
     34 O34        -0.2464   51.6966   29.7176 O.2       1 UNK         0.0000 
     35 O35         0.6588   53.7709   29.8634 O.3       1 UNK         0.0000 
     36 C36         0.4927   53.8435   31.2739 C.3       1 UNK         0.0000 
     37 H37         2.8566   54.1669   28.7337 H         1 UNK         0.0000 
     38 H38         3.2655   54.8713   27.1915 H         1 UNK         0.0000 
     39 H39         1.8401   55.4468   28.0573 H         1 UNK         0.0000 
     40 H40         0.8273   50.1012   22.5674 H         1 UNK         0.0000 
     41 H41         0.2123   48.6907   25.9910 H         1 UNK         0.0000 
     42 H42        -0.6782   46.7179   25.4318 H         1 UNK         0.0000 
     43 H43        -3.3453   47.2562   24.3477 H         1 UNK         0.0000 
     44 H44        -2.7289   45.6650   24.7123 H         1 UNK         0.0000 
     45 H45        -2.2604   46.4964   27.1180 H         1 UNK         0.0000 
     46 H46        -3.1125   47.9557   26.7058 H         1 UNK         0.0000 
     47 H47        -5.1167   47.8557   28.0254 H         1 UNK         0.0000 
     48 H48        -7.1634   46.6208   28.7171 H         1 UNK         0.0000 
     49 H49        -7.4757   44.2610   27.9746 H         1 UNK         0.0000 
     50 H50        -5.7131   43.2120   26.5480 H         1 UNK         0.0000 
     51 H51        -2.0979   50.4968   28.4011 H         1 UNK         0.0000 
     52 H52        -4.5077   50.7710   28.1463 H         1 UNK         0.0000 
     53 H53        -3.8577   53.2592   24.6979 H         1 UNK         0.0000 
     54 H54        -1.4467   52.9832   24.9549 H         1 UNK         0.0000 
     55 H55        -6.3545   51.4918   26.9287 H         1 UNK         0.0000 
     56 H56        -6.0954   53.8346   27.6815 H         1 UNK         0.0000 
     57 H57        -7.4334   53.6974   26.5559 H         1 UNK         0.0000 
     58 H58        -5.9021   54.3749   26.0163 H         1 UNK         0.0000 
     59 H59        -5.9991   50.8277   24.5496 H         1 UNK         0.0000 
     60 H60        -7.4485   51.7935   24.7855 H         1 UNK         0.0000 
     61 H61        -6.0164   52.5250   24.0817 H         1 UNK         0.0000 
     62 H62         0.6947   54.8546   31.6243 H         1 UNK         0.0000 
     63 H63        -0.5165   53.5746   31.5803 H         1 UNK         0.0000 
     64 H64         1.1806   53.1610   31.7743 H         1 UNK         0.0000 
@<TRIPOS>BOND
     1    1    2 1    
     2    1   37 1    
     3    1   38 1    
     4    1   39 1    
     5    2   11 1    
     6    2    3 2    
     7    3    4 1    
     8    3   33 1    
     9    4    5 1    
    10    4    6 1    
    11    4   24 1    
    12    6   10 1    
    13    6    7 1    
    14    7    8 2    
    15    7   12 1    
    16    8    9 1    
    17    8   40 1    
    18    9   10 1    
    19   10   11 2    
    20   12   13 2    
    21   12   41 1    
    22   13   14 1    
    23   13   15 1    
    24   15   16 1    
    25   15   42 1    
    26   16   17 1    
    27   16   43 1    
    28   16   44 1    
    29   17   18 1    
    30   17   45 1    
    31   17   46 1    
    32   18   23 ar   
    33   18   19 ar   
    34   19   20 ar   
    35   19   47 1    
    36   20   21 ar   
    37   20   48 1    
    38   21   22 ar   
    39   21   49 1    
    40   22   23 ar   
    41   22   50 1    
    42   24   29 ar   
    43   24   25 ar   
    44   25   26 ar   
    45   25   51 1    
    46   26   27 ar   
    47   26   52 1    
    48   27   28 ar   
    49   27   30 1    
    50   28   29 ar   
    51   28   53 1    
    52   29   54 1    
    53   30   31 1    
    54   30   32 1    
    55   30   55 1    
    56   31   56 1    
    57   31   57 1    
    58   31   58 1    
    59   32   59 1    
    60   32   60 1    
    61   32   61 1    
    62   33   34 2    
    63   33   35 1    
    64   35   36 1    
    65   36   62 1    
    66   36   63 1    
    67   36   64 1    
@<TRIPOS>SUBSTRUCTURE
     1 UNK         1 GROUP             0       ****    0 ROOT    
