@<TRIPOS>MOLECULE
ZINC36039468_273
56   59    1
SMALL
USER_CHARGES


@<TRIPOS>ATOM
      1 C1          0.2222   53.8607   32.3500 C.3       1 UNK         0.0000 
      2 C2          0.5848   53.7610   30.8806 C.ar      1 UNK         0.0000 
      3 C3          0.4356   52.5444   30.2202 C.ar      1 UNK         0.0000 
      4 C4          0.8373   52.4226   28.8933 C.ar      1 UNK         0.0000 
      5 C5          1.3821   53.5177   28.2056 C.ar      1 UNK         0.0000 
      6 C6          1.5049   54.7424   28.8789 C.ar      1 UNK         0.0000 
      7 C7          1.1047   54.8652   30.2066 C.ar      1 UNK         0.0000 
      8 N8          1.8104   53.4059   26.8661 N.pl3     1 UNK         0.0000 
      9 C9          2.9949   53.9786   26.4006 C.ar      1 UNK         0.0000 
     10 C10         3.1209   53.7082   25.0943 C.ar      1 UNK         0.0000 
     11 N11         2.0450   52.9181   24.7194 N.pl3     1 UNK         0.0000 
     12 C12         1.1666   52.6787   25.8126 C.ar      1 UNK         0.0000 
     13 N13         0.0712   52.0107   25.8803 N.am      1 UNK         0.0000 
     14 C14        -0.4148   51.2798   24.8044 C.2       1 UNK         0.0000 
     15 O15        -0.3520   51.6371   23.6254 O.2       1 UNK         0.0000 
     16 C16        -1.0840   49.9445   25.1824 C.3       1 UNK         0.0000 
     17 N17        -1.9127   50.0967   26.4817 N.4       1 UNK         0.0000 
     18 C18        -3.4435   50.1240   26.3116 C.3       1 UNK         0.0000 
     19 C19        -3.9108   51.3770   25.5406 C.3       1 UNK         0.0000 
     20 H20        -3.5824   51.2903   24.5010 H         1 UNK         0.0000 
     21 C21        -5.4086   51.6578   25.6403 C.3       1 UNK         0.0000 
     22 C22        -5.5260   53.1614   25.4986 C.3       1 UNK         0.0000 
     23 C23        -4.1056   53.6790   25.7227 C.3       1 UNK         0.0000 
     24 O24        -3.3378   52.5437   26.1220 O.3       1 UNK         0.0000 
     25 C25         4.2321   54.0967   24.1894 C.ar      1 UNK         0.0000 
     26 C26         4.0492   54.0962   22.7999 C.ar      1 UNK         0.0000 
     27 C27         5.0929   54.4543   21.9498 C.ar      1 UNK         0.0000 
     28 C28         6.3258   54.8237   22.4826 C.ar      1 UNK         0.0000 
     29 C29         6.5282   54.8281   23.8600 C.ar      1 UNK         0.0000 
     30 C30         5.4811   54.4754   24.7086 C.ar      1 UNK         0.0000 
     31 Cl31        7.6077   55.2988   21.4284 Cl        1 UNK         0.0000 
     32 H32         0.5579   52.9698   32.8825 H         1 UNK         0.0000 
     33 H33         0.6982   54.7149   32.8278 H         1 UNK         0.0000 
     34 H34        -0.8548   53.9301   32.4798 H         1 UNK         0.0000 
     35 H35         0.0168   51.6972   30.7398 H         1 UNK         0.0000 
     36 H36         0.7336   51.4621   28.4105 H         1 UNK         0.0000 
     37 H37         1.9080   55.6093   28.3764 H         1 UNK         0.0000 
     38 H38         1.2135   55.8155   30.7124 H         1 UNK         0.0000 
     39 H39         3.6526   54.5267   27.0598 H         1 UNK         0.0000 
     40 H40        -0.3220   49.1976   25.4125 H         1 UNK         0.0000 
     41 H41        -1.7557   49.5960   24.3981 H         1 UNK         0.0000 
     42 H42        -1.6371   50.9656   26.9238 H         1 UNK         0.0000 
     43 H43        -3.8162   50.1100   27.3369 H         1 UNK         0.0000 
     44 H44        -3.7143   49.1859   25.8256 H         1 UNK         0.0000 
     45 H45        -5.7772   51.3451   26.6188 H         1 UNK         0.0000 
     46 H46        -5.9887   51.0792   24.9203 H         1 UNK         0.0000 
     47 H47        -6.2268   53.5750   26.2251 H         1 UNK         0.0000 
     48 H48        -5.8835   53.4320   24.5036 H         1 UNK         0.0000 
     49 H49        -4.0537   54.4611   26.4818 H         1 UNK         0.0000 
     50 H50        -3.6937   54.0973   24.8041 H         1 UNK         0.0000 
     51 H51         3.0963   53.8241   22.3693 H         1 UNK         0.0000 
     52 H52         4.9400   54.4506   20.8806 H         1 UNK         0.0000 
     53 H53         7.5000   55.1025   24.2572 H         1 UNK         0.0000 
     54 H54         5.6493   54.4772   25.7756 H         1 UNK         0.0000 
     55 H55        -1.6947   49.3423   27.1464 H         1 UNK         0.0000 
     56 H56         1.8898   52.5504   23.7894 H         1 UNK         0.0000 
@<TRIPOS>BOND
     1    1    2 1    
     2    1   32 1    
     3    1   33 1    
     4    1   34 1    
     5    2    7 ar   
     6    2    3 ar   
     7    3    4 ar   
     8    3   35 1    
     9    4    5 ar   
    10    4   36 1    
    11    5    6 ar   
    12    5    8 1    
    13    6    7 ar   
    14    6   37 1    
    15    7   38 1    
    16    8   12 ar   
    17    8    9 ar   
    18    9   10 ar   
    19    9   39 1    
    20   10   11 ar   
    21   10   25 1    
    22   11   12 ar   
    23   11   56 1    
    24   12   13 2    
    25   13   14 am   BACKBONE|DICT|INTERRES
    26   14   15 2    
    27   14   16 1    
    28   16   17 1    
    29   16   40 1    
    30   16   41 1    
    31   17   18 1    
    32   17   42 1    
    33   17   55 1    
    34   18   19 1    
    35   18   43 1    
    36   18   44 1    
    37   19   20 1    
    38   19   24 1    
    39   19   21 1    
    40   21   22 1    
    41   21   45 1    
    42   21   46 1    
    43   22   23 1    
    44   22   47 1    
    45   22   48 1    
    46   23   24 1    
    47   23   49 1    
    48   23   50 1    
    49   25   30 ar   
    50   25   26 ar   
    51   26   27 ar   
    52   26   51 1    
    53   27   28 ar   
    54   27   52 1    
    55   28   29 ar   
    56   28   31 1    
    57   29   30 ar   
    58   29   53 1    
    59   30   54 1    
@<TRIPOS>SUBSTRUCTURE
     1 UNK         1 GROUP             0       ****    0 ROOT    
