@<TRIPOS>MOLECULE
ZINC35456497_5953
51   54    1
SMALL
USER_CHARGES


@<TRIPOS>ATOM
      1 C1          6.7017   55.0308   26.7002 C.3       1 UNK         0.0000 
      2 C2          6.9108   54.2628   25.3890 C.3       1 UNK         0.0000 
      3 C3          6.0117   54.6224   24.1912 C.3       1 UNK         0.0000 
      4 C4          4.5491   54.2224   24.2747 C.ar      1 UNK         0.0000 
      5 C5          3.6245   53.9060   23.2486 C.ar      1 UNK         0.0000 
      6 C6          2.4702   53.5668   23.9680 C.ar      1 UNK         0.0000 
      7 N7          2.7536   53.7084   25.3139 N.pl3     1 UNK         0.0000 
      8 N8          4.0035   54.1501   25.4602 N.2       1 UNK         0.0000 
      9 C9          1.9954   53.4573   26.4957 C.ar      1 UNK         0.0000 
     10 C10         2.3125   54.1449   27.6806 C.ar      1 UNK         0.0000 
     11 C11         1.6474   53.8609   28.8642 C.ar      1 UNK         0.0000 
     12 C12         0.6669   52.8778   28.8794 C.ar      1 UNK         0.0000 
     13 C13         0.3195   52.1991   27.7117 C.ar      1 UNK         0.0000 
     14 C14         0.9785   52.4936   26.5175 C.ar      1 UNK         0.0000 
     15 Cl15       -0.0956   52.4971   30.3741 Cl        1 UNK         0.0000 
     16 O16         1.3337   53.2103   23.5194 O.co2     1 UNK         0.0000 
     17 C17         3.7893   53.8730   21.7875 C.2       1 UNK         0.0000 
     18 C18         4.7043   54.4802   20.9907 C.2       1 UNK         0.0000 
     19 C19         4.7043   54.3461   19.5662 C.2       1 UNK         0.0000 
     20 O20         3.9816   53.6528   18.8491 O.2       1 UNK         0.0000 
     21 N21         5.7011   55.1680   19.1755 N.am      1 UNK         0.0000 
     22 C22         6.3046   55.8075   20.2009 C.2       1 UNK         0.0000 
     23 O23         7.0995   56.7471   20.1795 O.2       1 UNK         0.0000 
     24 N24         5.7192   55.2966   21.2817 N.am      1 UNK         0.0000 
     25 C25         6.1981   55.2101   17.7931 C.3       1 UNK         0.0000 
     26 C26         7.3720   54.2773   17.5119 C.ar      1 UNK         0.0000 
     27 C27         7.1247   52.9482   17.1524 C.ar      1 UNK         0.0000 
     28 C28         8.1845   52.0965   16.8406 C.ar      1 UNK         0.0000 
     29 C29         9.4960   52.5665   16.8816 C.ar      1 UNK         0.0000 
     30 C30         9.7513   53.8885   17.2436 C.ar      1 UNK         0.0000 
     31 C31         8.6931   54.7462   17.5550 C.ar      1 UNK         0.0000 
     32 F32         8.9541   56.0338   17.8826 F         1 UNK         0.0000 
     33 F33        11.0275   54.3357   17.2823 F         1 UNK         0.0000 
     34 H34         7.5034   54.8143   27.4070 H         1 UNK         0.0000 
     35 H35         6.7047   56.0971   26.5135 H         1 UNK         0.0000 
     36 H36         5.7679   54.7758   27.1982 H         1 UNK         0.0000 
     37 H37         6.8922   53.1947   25.5856 H         1 UNK         0.0000 
     38 H38         7.9044   54.4967   25.0420 H         1 UNK         0.0000 
     39 H39         6.4617   54.1078   23.3436 H         1 UNK         0.0000 
     40 H40         6.1002   55.6925   24.0031 H         1 UNK         0.0000 
     41 H41         3.0862   54.8987   27.6958 H         1 UNK         0.0000 
     42 H42         1.9052   54.3894   29.7691 H         1 UNK         0.0000 
     43 H43        -0.4430   51.4332   27.7361 H         1 UNK         0.0000 
     44 H44         0.7190   51.9378   25.6283 H         1 UNK         0.0000 
     45 H45         3.0237   53.2713   21.3111 H         1 UNK         0.0000 
     46 H46         6.0179   55.4956   22.2243 H         1 UNK         0.0000 
     47 H47         5.3902   54.9755   17.0973 H         1 UNK         0.0000 
     48 H48         6.4887   56.2343   17.5524 H         1 UNK         0.0000 
     49 H49         6.1120   52.5661   17.1237 H         1 UNK         0.0000 
     50 H50         7.9877   51.0698   16.5710 H         1 UNK         0.0000 
     51 H51        10.3166   51.9040   16.6483 H         1 UNK         0.0000 
@<TRIPOS>BOND
     1    1    2 1    
     2    1   34 1    
     3    1   35 1    
     4    1   36 1    
     5    2    3 1    
     6    2   37 1    
     7    2   38 1    
     8    3    4 1    
     9    3   39 1    
    10    3   40 1    
    11    4    8 ar   
    12    4    5 ar   
    13    5    6 ar   
    14    5   17 1    
    15    6    7 ar   
    16    6   16 1    
    17    7    8 ar   
    18    7    9 1    
    19    9   14 ar   
    20    9   10 ar   
    21   10   11 ar   
    22   10   41 1    
    23   11   12 ar   
    24   11   42 1    
    25   12   13 ar   
    26   12   15 1    
    27   13   14 ar   
    28   13   43 1    
    29   14   44 1    
    30   17   18 2    
    31   17   45 1    
    32   18   24 1    
    33   18   19 1    
    34   19   20 2    
    35   19   21 am   BACKBONE|DICT|INTERRES
    36   21   22 am   BACKBONE|DICT|INTERRES
    37   21   25 1    
    38   22   23 2    
    39   22   24 am   BACKBONE|DICT|INTERRES
    40   24   46 1    
    41   25   26 1    
    42   25   47 1    
    43   25   48 1    
    44   26   31 ar   
    45   26   27 ar   
    46   27   28 ar   
    47   27   49 1    
    48   28   29 ar   
    49   28   50 1    
    50   29   30 ar   
    51   29   51 1    
    52   30   31 ar   
    53   30   33 1    
    54   31   32 1    
@<TRIPOS>SUBSTRUCTURE
     1 UNK         1 GROUP             0       ****    0 ROOT    
