@<TRIPOS>MOLECULE
ZINC04222050_4209
72   76    1
SMALL
USER_CHARGES


@<TRIPOS>ATOM
      1 C1          2.3482   50.0565   21.4928 C.3       1 UNK         0.0000 
      2 C2          2.1755   51.5144   21.9936 C.3       1 UNK         0.0000 
      3 H3          1.3041   51.9150   21.4806 H         1 UNK         0.0000 
      4 C4          3.3324   52.4252   21.5762 C.2       1 UNK         0.0000 
      5 C5          3.8640   53.4280   22.3874 C.2       1 UNK         0.0000 
      6 S6          5.1011   54.2863   21.5233 S.3       1 UNK         0.0000 
      7 C7          4.7839   53.2534   20.1557 C.2       1 UNK         0.0000 
      8 N8          3.8509   52.3611   20.3611 N.2       1 UNK         0.0000 
      9 N9          5.4616   53.2961   18.9446 N.am      1 UNK         0.0000 
     10 C10         6.3742   54.2018   18.5241 C.2       1 UNK         0.0000 
     11 O11         6.7331   55.1808   19.1853 O.2       1 UNK         0.0000 
     12 C12         6.9729   53.9617   17.1510 C.ar      1 UNK         0.0000 
     13 C13         7.9705   54.8388   16.6617 C.ar      1 UNK         0.0000 
     14 C14         8.5583   54.6534   15.4033 C.ar      1 UNK         0.0000 
     15 C15         8.1375   53.5643   14.6509 C.ar      1 UNK         0.0000 
     16 C16         7.1799   52.7061   15.1043 C.ar      1 UNK         0.0000 
     17 C17         6.5687   52.8753   16.3403 C.ar      1 UNK         0.0000 
     18 O18         6.9473   51.7547   14.1620 O.3       1 UNK         0.0000 
     19 C19         7.9632   51.9169   13.2081 C.3       1 UNK         0.0000 
     20 O20         8.5330   53.1833   13.4078 O.3       1 UNK         0.0000 
     21 C21         3.5052   53.6951   23.8262 C.3       1 UNK         0.0000 
     22 C22         2.1444   53.0252   24.2036 C.3       1 UNK         0.0000 
     23 C23         1.9255   51.5923   23.5507 C.3       1 UNK         0.0000 
     24 H24         2.6523   50.9257   23.9989 H         1 UNK         0.0000 
     25 C25         0.5186   50.9877   23.9147 C.3       1 UNK         0.0000 
     26 H26         0.3933   50.0604   23.3607 H         1 UNK         0.0000 
     27 C27        -0.6724   51.9287   23.5317 C.3       1 UNK         0.0000 
     28 H28        -0.6363   52.0666   22.4507 H         1 UNK         0.0000 
     29 C29        -0.3892   53.3481   24.1056 C.3       1 UNK         0.0000 
     30 C30         0.9880   53.8968   23.6816 C.3       1 UNK         0.0000 
     31 C31        -2.0761   51.2874   23.8713 C.3       1 UNK         0.0000 
     32 H32        -1.9451   50.6941   24.7707 H         1 UNK         0.0000 
     33 C33        -2.5190   50.3102   22.7561 C.3       1 UNK         0.0000 
     34 C34        -3.2208   52.2941   24.1661 C.2       1 UNK         0.0000 
     35 O35        -3.2961   53.2963   23.4551 O.2       1 UNK         0.0000 
     36 N36        -4.0962   52.0793   25.1859 N.am      1 UNK         0.0000 
     37 C37        -5.1290   53.0631   25.5369 C.3       1 UNK         0.0000 
     38 C38        -4.1527   50.8599   26.0125 C.3       1 UNK         0.0000 
     39 C39        -3.1519   50.7607   27.1575 C.2       1 UNK         0.0000 
     40 C40        -2.1577   51.6201   27.4409 C.2       1 UNK         0.0000 
     41 O41         0.4835   50.5409   25.2615 O.3       1 UNK         0.0000 
     42 C42         2.1531   53.0330   25.7633 C.3       1 UNK         0.0000 
     43 H43         2.6363   50.0110   20.4434 H         1 UNK         0.0000 
     44 H44         3.1038   49.5217   22.0678 H         1 UNK         0.0000 
     45 H45         1.4271   49.4829   21.5726 H         1 UNK         0.0000 
     46 H46         5.2350   52.5404   18.3137 H         1 UNK         0.0000 
     47 H47         8.3005   55.6785   17.2573 H         1 UNK         0.0000 
     48 H48         9.3123   55.3347   15.0388 H         1 UNK         0.0000 
     49 H49         5.8132   52.1668   16.6498 H         1 UNK         0.0000 
     50 H50         7.5630   51.8268   12.1981 H         1 UNK         0.0000 
     51 H51         8.7278   51.1520   13.3612 H         1 UNK         0.0000 
     52 H52         3.4898   54.7660   24.0333 H         1 UNK         0.0000 
     53 H53         4.3224   53.2965   24.4235 H         1 UNK         0.0000 
     54 H54        -1.1221   54.0801   23.7847 H         1 UNK         0.0000 
     55 H55        -0.4992   53.2967   25.1876 H         1 UNK         0.0000 
     56 H56         1.0708   54.0251   22.6024 H         1 UNK         0.0000 
     57 H57         1.1036   54.8968   24.0892 H         1 UNK         0.0000 
     58 H58        -3.4509   49.8033   23.0085 H         1 UNK         0.0000 
     59 H59        -2.6773   50.8272   21.8082 H         1 UNK         0.0000 
     60 H60        -1.7739   49.5312   22.5858 H         1 UNK         0.0000 
     61 H61        -5.0725   53.9783   24.9449 H         1 UNK         0.0000 
     62 H62        -6.1219   52.6349   25.3900 H         1 UNK         0.0000 
     63 H63        -5.0377   53.3439   26.5869 H         1 UNK         0.0000 
     64 H64        -3.9910   49.9833   25.3836 H         1 UNK         0.0000 
     65 H65        -5.1613   50.7084   26.4040 H         1 UNK         0.0000 
     66 H66        -3.2680   49.8890   27.7915 H         1 UNK         0.0000 
     67 H67        -1.9836   52.5090   26.8497 H         1 UNK         0.0000 
     68 H68        -1.4985   51.4363   28.2789 H         1 UNK         0.0000 
     69 H69        -0.2582   49.9439   25.3862 H         1 UNK         0.0000 
     70 H70         3.0042   52.4966   26.1705 H         1 UNK         0.0000 
     71 H71         2.2273   54.0523   26.1446 H         1 UNK         0.0000 
     72 H72         1.2671   52.6146   26.2318 H         1 UNK         0.0000 
@<TRIPOS>BOND
     1    1    2 1    
     2    1   43 1    
     3    1   44 1    
     4    1   45 1    
     5    2    3 1    
     6    2   23 1    
     7    2    4 1    
     8    4    8 1    
     9    4    5 2    
    10    5    6 1    
    11    5   21 1    
    12    6    7 1    
    13    7    8 2    
    14    7    9 am   BACKBONE|DICT|INTERRES
    15    9   10 am   BACKBONE|DICT|INTERRES
    16    9   46 1    
    17   10   11 2    
    18   10   12 1    
    19   12   17 ar   
    20   12   13 ar   
    21   13   14 ar   
    22   13   47 1    
    23   14   15 ar   
    24   14   48 1    
    25   15   20 1    
    26   15   16 ar   
    27   16   17 ar   
    28   16   18 1    
    29   17   49 1    
    30   18   19 1    
    31   19   20 1    
    32   19   50 1    
    33   19   51 1    
    34   21   22 1    
    35   21   52 1    
    36   21   53 1    
    37   22   30 1    
    38   22   23 1    
    39   22   42 1    
    40   23   24 1    
    41   23   25 1    
    42   25   26 1    
    43   25   27 1    
    44   25   41 1    
    45   27   28 1    
    46   27   29 1    
    47   27   31 1    
    48   29   30 1    
    49   29   54 1    
    50   29   55 1    
    51   30   56 1    
    52   30   57 1    
    53   31   32 1    
    54   31   33 1    
    55   31   34 1    
    56   33   58 1    
    57   33   59 1    
    58   33   60 1    
    59   34   35 2    
    60   34   36 am   BACKBONE|DICT|INTERRES
    61   36   37 1    
    62   36   38 1    
    63   37   61 1    
    64   37   62 1    
    65   37   63 1    
    66   38   39 1    
    67   38   64 1    
    68   38   65 1    
    69   39   40 2    
    70   39   66 1    
    71   40   67 1    
    72   40   68 1    
    73   41   69 1    
    74   42   70 1    
    75   42   71 1    
    76   42   72 1    
@<TRIPOS>SUBSTRUCTURE
     1 UNK         1 GROUP             0       ****    0 ROOT    
