ZINC08907264_2338
                    3D
 Schrodinger Suite 2024-2.
 56 59  0  0  1  0            999 V2000
    0.8586   54.0876   28.2266 C   0  0  0  0  0  0
    1.4181   52.9529   27.3341 C   0  0  0  0  0  0
    1.6573   51.7171   28.2490 C   0  0  0  0  0  0
    0.3407   52.4997   26.3093 C   0  0  0  0  0  0
    2.7128   53.4700   26.6414 C   0  0  0  0  0  0
    2.7032   53.9644   25.3254 C   0  0  0  0  0  0
    3.8525   54.4926   24.7403 C   0  0  0  0  0  0
    5.0666   54.4994   25.4351 C   0  0  0  0  0  0
    5.0801   54.0127   26.7496 C   0  0  0  0  0  0
    3.9232   53.5191   27.3455 C   0  0  0  0  0  0
    6.3423   55.0981   24.8694 C   0  0  0  0  0  0
    7.1038   55.6569   25.6508 O   0  0  0  0  0  0
    6.7039   55.0561   23.5643 N   0  0  0  0  0  0
    6.0674   54.5063   22.4384 C   0  0  0  0  0  0
    5.4857   53.2378   22.4732 C   0  0  0  0  0  0
    4.8242   52.7242   21.3579 C   0  0  0  0  0  0
    4.7593   53.4628   20.1756 C   0  0  0  0  0  0
    5.4195   54.6982   20.1075 C   0  0  0  0  0  0
    6.0725   55.2183   21.2252 C   0  0  0  0  0  0
    6.7000   56.4319   21.0887 O   0  0  0  0  0  0
    4.0388   52.8971   19.1108 N   0  0  0  0  0  0
    3.4511   53.5245   18.0677 C   0  0  0  0  0  0
    3.5534   54.7240   17.7994 O   0  0  0  0  0  0
    2.6129   52.6666   17.2637 C   0  0  0  0  0  0
    1.9788   52.9205   16.0477 C   0  0  0  0  0  0
    1.2595   51.7340   15.7071 C   0  0  0  0  0  0
    0.4403   51.3133   14.6470 C   0  0  0  0  0  0
   -0.0975   50.0221   14.6872 C   0  0  0  0  0  0
    0.1647   49.1562   15.7511 C   0  0  0  0  0  0
    0.9716   49.5467   16.8211 C   0  0  0  0  0  0
    1.5035   50.8401   16.7737 C   0  0  0  0  0  0
    2.3037   51.4120   17.7196 O   0  0  0  0  0  0
   -0.1021   53.8186   28.6672 H   0  0  0  0  0  0
    0.7154   55.0197   27.6818 H   0  0  0  0  0  0
    1.5370   54.3130   29.0511 H   0  0  0  0  0  0
    1.9128   50.8249   27.6820 H   0  0  0  0  0  0
    2.4273   51.8710   29.0022 H   0  0  0  0  0  0
    0.7507   51.4590   28.7986 H   0  0  0  0  0  0
    0.7067   51.6818   25.6872 H   0  0  0  0  0  0
   -0.5630   52.1433   26.8072 H   0  0  0  0  0  0
    0.0296   53.2964   25.6353 H   0  0  0  0  0  0
    1.8018   53.9875   24.7353 H   0  0  0  0  0  0
    3.7758   54.9006   23.7435 H   0  0  0  0  0  0
    5.9907   54.0277   27.3330 H   0  0  0  0  0  0
    3.9876   53.1840   28.3678 H   0  0  0  0  0  0
    7.5619   55.5505   23.3532 H   0  0  0  0  0  0
    5.5220   52.6545   23.3735 H   0  0  0  0  0  0
    4.3512   51.7543   21.4238 H   0  0  0  0  0  0
    5.4303   55.2652   19.1897 H   0  0  0  0  0  0
    6.6057   56.7544   20.1888 H   0  0  0  0  0  0
    3.8838   51.8984   19.1562 H   0  0  0  0  0  0
    2.0453   53.8441   15.4921 H   0  0  0  0  0  0
    0.2329   51.9709   13.8169 H   0  0  0  0  0  0
   -0.7265   49.6843   13.8757 H   0  0  0  0  0  0
   -0.2623   48.1635   15.7404 H   0  0  0  0  0  0
    1.1969   48.8821   17.6415 H   0  0  0  0  0  0
  1  2  1  0  0  0
  1 33  1  0  0  0
  1 34  1  0  0  0
  1 35  1  0  0  0
  2  3  1  0  0  0
  2  4  1  0  0  0
  2  5  1  0  0  0
  3 36  1  0  0  0
  3 37  1  0  0  0
  3 38  1  0  0  0
  4 39  1  0  0  0
  4 40  1  0  0  0
  4 41  1  0  0  0
  5 10  2  0  0  0
  5  6  1  0  0  0
  6  7  2  0  0  0
  6 42  1  0  0  0
  7  8  1  0  0  0
  7 43  1  0  0  0
  8  9  2  0  0  0
  8 11  1  0  0  0
  9 10  1  0  0  0
  9 44  1  0  0  0
 10 45  1  0  0  0
 11 12  2  0  0  0
 11 13  1  0  0  0
 13 14  1  0  0  0
 13 46  1  0  0  0
 14 19  2  0  0  0
 14 15  1  0  0  0
 15 16  2  0  0  0
 15 47  1  0  0  0
 16 17  1  0  0  0
 16 48  1  0  0  0
 17 18  2  0  0  0
 17 21  1  0  0  0
 18 19  1  0  0  0
 18 49  1  0  0  0
 19 20  1  0  0  0
 20 50  1  0  0  0
 21 22  1  0  0  0
 21 51  1  0  0  0
 22 23  2  0  0  0
 22 24  1  0  0  0
 24 32  1  0  0  0
 24 25  2  0  0  0
 25 26  1  0  0  0
 25 52  1  0  0  0
 26 31  2  0  0  0
 26 27  1  0  0  0
 27 28  2  0  0  0
 27 53  1  0  0  0
 28 29  1  0  0  0
 28 54  1  0  0  0
 29 30  2  0  0  0
 29 55  1  0  0  0
 30 31  1  0  0  0
 30 56  1  0  0  0
 31 32  1  0  0  0
M  END
> <i_i_glide_confnum>
38

> <i_i_glide_lignum>
2339

> <i_i_glide_posenum>
149

> <i_i_glide_rotatable_bonds>
8

> <i_m_Source_File_Index>
4887

> <b_m_subgroup_collapsed>
0

> <r_i_docking_score>
-4.53937

> <r_i_glide_ecoul>
-5.91401

> <r_i_glide_eff_state_penalty>
0

> <r_i_glide_einternal>
10.8085

> <r_i_glide_emodel>
-43.0375

> <r_i_glide_energy>
-41.1674

> <r_i_glide_erotb>
0.454419

> <r_i_glide_esite>
-0.0772032

> <r_i_glide_evdw>
-35.2534

> <r_i_glide_gscore>
-4.53937

> <r_i_glide_hbond>
-0.620722

> <r_i_glide_ligand_efficiency>
-0.141855

> <r_i_glide_ligand_efficiency_ln>
-1.01649

> <r_i_glide_ligand_efficiency_sa>
-0.450362

> <r_i_glide_lipo>
-2.60036

> <r_i_glide_metal>
0

> <r_i_glide_rewards>
0.954265

> <s_i_glide_gridfile>
wee1_glide-grid

> <s_m_Source_File>
wee1_decoys_glide_SP.sdf

> <s_m_Source_Path>
/Users/zhangxujun/Desktop

> <s_m_entry_id>
5162

> <s_m_entry_name>
wee1_decoys_glide_SP.4887

> <s_m_subgroup_title>
wee1_decoys_glide_SP

> <s_m_subgroupid>
wee1_decoys_glide_SP


$$$$
