ZINC08867629_817
                    3D
 Schrodinger Suite 2024-2.
 52 55  0  0  1  0            999 V2000
    5.2828   57.9561   15.4039 C   0  0  0  0  0  0
    5.3614   57.2507   16.6396 O   0  0  0  0  0  0
    6.5966   57.0401   17.2260 C   0  0  0  0  0  0
    7.8157   57.3466   16.6043 C   0  0  0  0  0  0
    9.0187   57.1309   17.2675 C   0  0  0  0  0  0
    9.0171   56.6203   18.5623 C   0  0  0  0  0  0
    7.8244   56.3011   19.2209 C   0  0  0  0  0  0
    6.6098   56.4890   18.5202 C   0  0  0  0  0  0
    5.4038   56.1800   19.1041 O   0  0  0  0  0  0
    4.8672   54.9169   18.7219 C   0  0  0  0  0  0
    7.9205   55.8211   20.6174 C   0  0  0  0  0  0
    6.9130   55.5250   21.3269 N   0  0  0  0  0  0
    7.1034   55.1568   22.6637 N   0  0  0  0  0  0
    6.0743   54.6999   23.4550 C   0  0  0  0  0  0
    4.9140   54.2942   23.0117 N   0  0  0  0  0  0
    4.0634   53.9712   23.9711 C   0  0  0  0  0  0
    4.5992   54.0982   25.2677 C   0  0  0  0  0  0
    6.2516   54.6925   25.1710 S   0  0  0  0  0  0
    3.9505   53.7650   26.4471 N   0  0  0  0  0  0
    4.4503   53.6634   27.6953 C   0  0  0  0  0  0
    5.6255   53.8361   28.0241 O   0  0  0  0  0  0
    3.4435   53.2864   28.6548 C   0  0  0  0  0  0
    2.0695   53.5631   28.6409 C   0  0  0  0  0  0
    1.4017   53.0971   29.7778 C   0  0  0  0  0  0
    2.2585   52.4971   30.6885 C   0  0  0  0  0  0
    3.9019   52.4971   30.1329 S   0  0  0  0  0  0
    2.7058   53.4480   23.5832 C   0  0  0  0  0  0
    1.5860   53.6681   24.3968 C   0  0  0  0  0  0
    0.3499   53.1269   24.0593 C   0  0  0  0  0  0
    0.2193   52.3684   22.8992 C   0  0  0  0  0  0
    1.3128   52.1649   22.0620 C   0  0  0  0  0  0
    2.5502   52.7047   22.4029 C   0  0  0  0  0  0
    4.2345   58.0808   15.1320 H   0  0  0  0  0  0
    5.7207   58.9548   15.4796 H   0  0  0  0  0  0
    5.7697   57.4074   14.5947 H   0  0  0  0  0  0
    7.8510   57.7539   15.6049 H   0  0  0  0  0  0
    9.9554   57.3696   16.7811 H   0  0  0  0  0  0
    9.9678   56.4918   19.0554 H   0  0  0  0  0  0
    3.9331   54.7421   19.2576 H   0  0  0  0  0  0
    4.6510   54.8709   17.6533 H   0  0  0  0  0  0
    5.5527   54.1067   18.9736 H   0  0  0  0  0  0
    8.9325   55.7494   21.0133 H   0  0  0  0  0  0
    8.0618   55.2338   22.9985 H   0  0  0  0  0  0
    2.9982   53.4527   26.3413 H   0  0  0  0  0  0
    1.5643   54.0866   27.8404 H   0  0  0  0  0  0
    0.3402   53.2127   29.9422 H   0  0  0  0  0  0
    2.0015   52.0931   31.6572 H   0  0  0  0  0  0
    1.6619   54.2614   25.2922 H   0  0  0  0  0  0
   -0.5094   53.2960   24.6926 H   0  0  0  0  0  0
   -0.7387   51.9435   22.6419 H   0  0  0  0  0  0
    1.2054   51.5854   21.1570 H   0  0  0  0  0  0
    3.3923   52.5267   21.7495 H   0  0  0  0  0  0
  1  2  1  0  0  0
  1 33  1  0  0  0
  1 34  1  0  0  0
  1 35  1  0  0  0
  2  3  1  0  0  0
  3  8  2  0  0  0
  3  4  1  0  0  0
  4  5  2  0  0  0
  4 36  1  0  0  0
  5  6  1  0  0  0
  5 37  1  0  0  0
  6  7  2  0  0  0
  6 38  1  0  0  0
  7  8  1  0  0  0
  7 11  1  0  0  0
  8  9  1  0  0  0
  9 10  1  0  0  0
 10 39  1  0  0  0
 10 40  1  0  0  0
 10 41  1  0  0  0
 11 12  2  0  0  0
 11 42  1  0  0  0
 12 13  1  0  0  0
 13 14  1  0  0  0
 13 43  1  0  0  0
 14 18  1  0  0  0
 14 15  2  0  0  0
 15 16  1  0  0  0
 16 17  2  0  0  0
 16 27  1  0  0  0
 17 18  1  0  0  0
 17 19  1  0  0  0
 19 20  1  0  0  0
 19 44  1  0  0  0
 20 21  2  0  0  0
 20 22  1  0  0  0
 22 26  1  0  0  0
 22 23  2  0  0  0
 23 24  1  0  0  0
 23 45  1  0  0  0
 24 25  2  0  0  0
 24 46  1  0  0  0
 25 26  1  0  0  0
 25 47  1  0  0  0
 27 32  2  0  0  0
 27 28  1  0  0  0
 28 29  2  0  0  0
 28 48  1  0  0  0
 29 30  1  0  0  0
 29 49  1  0  0  0
 30 31  2  0  0  0
 30 50  1  0  0  0
 31 32  1  0  0  0
 31 51  1  0  0  0
 32 52  1  0  0  0
M  END
> <i_i_glide_confnum>
76

> <i_i_glide_lignum>
818

> <i_i_glide_posenum>
177

> <i_i_glide_rotatable_bonds>
9

> <i_m_Source_File_Index>
3766

> <b_m_subgroup_collapsed>
0

> <r_i_docking_score>
-6.59586

> <r_i_glide_ecoul>
-5.47486

> <r_i_glide_eff_state_penalty>
0

> <r_i_glide_einternal>
2.93926

> <r_i_glide_emodel>
-75.4309

> <r_i_glide_energy>
-54.3973

> <r_i_glide_erotb>
0.653896

> <r_i_glide_esite>
0

> <r_i_glide_evdw>
-48.9225

> <r_i_glide_gscore>
-6.59586

> <r_i_glide_hbond>
-0.32

> <r_i_glide_ligand_efficiency>
-0.206121

> <r_i_glide_ligand_efficiency_ln>
-1.47699

> <r_i_glide_ligand_efficiency_sa>
-0.654392

> <r_i_glide_lipo>
-2.74985

> <r_i_glide_metal>
0

> <r_i_glide_rewards>
-0.912553

> <s_i_glide_gridfile>
wee1_glide-grid

> <s_m_Source_File>
wee1_decoys_glide_SP.sdf

> <s_m_Source_Path>
/Users/zhangxujun/Desktop

> <s_m_entry_id>
4041

> <s_m_entry_name>
wee1_decoys_glide_SP.3766

> <s_m_subgroup_title>
wee1_decoys_glide_SP

> <s_m_subgroupid>
wee1_decoys_glide_SP


$$$$
