@<TRIPOS>MOLECULE
ZINC43259645_3181
63   66    1
SMALL
USER_CHARGES


@<TRIPOS>ATOM
      1 C1          0.6796   52.2552   30.1299 C.3       1 UNK         0.0000 
      2 C2          1.9782   52.9213   29.7100 C.ar      1 UNK         0.0000 
      3 C3          2.0716   54.3135   29.7089 C.ar      1 UNK         0.0000 
      4 C4          3.2487   54.9286   29.2954 C.ar      1 UNK         0.0000 
      5 C5          4.3145   54.1551   28.8328 C.ar      1 UNK         0.0000 
      6 C6          4.2392   52.7628   28.8704 C.ar      1 UNK         0.0000 
      7 C7          3.0645   52.1464   29.2971 C.ar      1 UNK         0.0000 
      8 N8          5.4556   54.7874   28.3216 N.am      1 UNK         0.0000 
      9 C9          5.8673   54.8194   27.0302 C.2       1 UNK         0.0000 
     10 O10         7.0769   54.8938   26.8241 O.2       1 UNK         0.0000 
     11 N11         4.9716   54.8984   25.9977 N.am      1 UNK         0.0000 
     12 C12         3.5112   55.0161   26.1025 C.3       1 UNK         0.0000 
     13 C13         2.9252   53.6634   25.7332 C.3       1 UNK         0.0000 
     14 N14         3.2162   53.3703   24.3188 N.pl3     1 UNK         0.0000 
     15 C15         4.6442   53.6648   23.8828 C.3       1 UNK         0.0000 
     16 H16         5.2527   52.8967   24.2902 H         1 UNK         0.0000 
     17 C17         5.4187   54.7952   24.5912 C.3       1 UNK         0.0000 
     18 C18         4.9412   53.5286   22.3809 C.2       1 UNK         0.0000 
     19 O19         5.5043   52.5099   21.9861 O.2       1 UNK         0.0000 
     20 N20         4.5201   54.4964   21.5511 N.am      1 UNK         0.0000 
     21 C21         4.6090   54.4304   20.0863 C.3       1 UNK         0.0000 
     22 C22         5.5541   55.4648   19.4825 C.ar      1 UNK         0.0000 
     23 C23         5.0967   56.3240   18.4782 C.ar      1 UNK         0.0000 
     24 C24         5.9535   57.2739   17.9276 C.ar      1 UNK         0.0000 
     25 C25         7.2737   57.3475   18.3657 C.ar      1 UNK         0.0000 
     26 C26         7.7430   56.4851   19.3538 C.ar      1 UNK         0.0000 
     27 C27         6.8798   55.5524   19.9211 C.ar      1 UNK         0.0000 
     28 S28         1.8040   53.2073   23.2390 S.o2      1 UNK         0.0000 
     29 O29         1.1101   54.4965   23.2820 O.2       1 UNK         0.0000 
     30 O30         2.2089   52.6283   21.9550 O.2       1 UNK         0.0000 
     31 C31         0.7242   51.9935   23.9985 C.ar      1 UNK         0.0000 
     32 C32        -0.5030   52.3885   24.5365 C.ar      1 UNK         0.0000 
     33 C33        -1.3428   51.4390   25.1125 C.ar      1 UNK         0.0000 
     34 C34        -0.9556   50.1012   25.1444 C.ar      1 UNK         0.0000 
     35 C35         0.2681   49.7033   24.6112 C.ar      1 UNK         0.0000 
     36 C36         1.1056   50.6502   24.0280 C.ar      1 UNK         0.0000 
     37 F37        -1.7853   49.1804   25.6805 F         1 UNK         0.0000 
     38 H38        -0.1793   52.8689   29.8555 H         1 UNK         0.0000 
     39 H39         0.5444   51.2981   29.6247 H         1 UNK         0.0000 
     40 H40         0.6550   52.0969   31.2088 H         1 UNK         0.0000 
     41 H41         1.2345   54.9192   30.0259 H         1 UNK         0.0000 
     42 H42         3.3071   56.0072   29.2820 H         1 UNK         0.0000 
     43 H43         5.0684   52.1611   28.5248 H         1 UNK         0.0000 
     44 H44         2.9921   51.0699   29.2798 H         1 UNK         0.0000 
     45 H45         6.1884   54.9568   28.9974 H         1 UNK         0.0000 
     46 H46         3.1064   55.5026   26.9811 H         1 UNK         0.0000 
     47 H47         3.2203   55.6962   25.3084 H         1 UNK         0.0000 
     48 H48         3.3708   52.8660   26.3248 H         1 UNK         0.0000 
     49 H49         1.8525   53.6492   25.9267 H         1 UNK         0.0000 
     50 H50         6.4978   54.6488   24.4947 H         1 UNK         0.0000 
     51 H51         5.1828   55.6967   24.0818 H         1 UNK         0.0000 
     52 H52         4.0124   55.2784   21.9347 H         1 UNK         0.0000 
     53 H53         3.5975   54.5395   19.6868 H         1 UNK         0.0000 
     54 H54         4.9503   53.4506   19.7426 H         1 UNK         0.0000 
     55 H55         4.0752   56.2676   18.1304 H         1 UNK         0.0000 
     56 H56         5.5973   57.9479   17.1614 H         1 UNK         0.0000 
     57 H57         7.9397   58.0787   17.9310 H         1 UNK         0.0000 
     58 H58         8.7711   56.5401   19.6828 H         1 UNK         0.0000 
     59 H59         7.2452   54.8963   20.6970 H         1 UNK         0.0000 
     60 H60        -0.8144   53.4218   24.4926 H         1 UNK         0.0000 
     61 H61        -2.2958   51.7313   25.5274 H         1 UNK         0.0000 
     62 H62         0.5621   48.6639   24.6485 H         1 UNK         0.0000 
     63 H63         2.0509   50.3392   23.6050 H         1 UNK         0.0000 
@<TRIPOS>BOND
     1    1    2 1    
     2    1   38 1    
     3    1   39 1    
     4    1   40 1    
     5    2    7 ar   
     6    2    3 ar   
     7    3    4 ar   
     8    3   41 1    
     9    4    5 ar   
    10    4   42 1    
    11    5    6 ar   
    12    5    8 1    
    13    6    7 ar   
    14    6   43 1    
    15    7   44 1    
    16    8    9 am   BACKBONE|DICT|INTERRES
    17    8   45 1    
    18    9   10 2    
    19    9   11 am   BACKBONE|DICT|INTERRES
    20   11   17 1    
    21   11   12 1    
    22   12   13 1    
    23   12   46 1    
    24   12   47 1    
    25   13   14 1    
    26   13   48 1    
    27   13   49 1    
    28   14   15 1    
    29   14   28 1    
    30   15   16 1    
    31   15   17 1    
    32   15   18 1    
    33   17   50 1    
    34   17   51 1    
    35   18   19 2    
    36   18   20 am   BACKBONE|DICT|INTERRES
    37   20   21 1    
    38   20   52 1    
    39   21   22 1    
    40   21   53 1    
    41   21   54 1    
    42   22   27 ar   
    43   22   23 ar   
    44   23   24 ar   
    45   23   55 1    
    46   24   25 ar   
    47   24   56 1    
    48   25   26 ar   
    49   25   57 1    
    50   26   27 ar   
    51   26   58 1    
    52   27   59 1    
    53   28   29 2    
    54   28   30 2    
    55   28   31 1    
    56   31   36 ar   
    57   31   32 ar   
    58   32   33 ar   
    59   32   60 1    
    60   33   34 ar   
    61   33   61 1    
    62   34   35 ar   
    63   34   37 1    
    64   35   36 ar   
    65   35   62 1    
    66   36   63 1    
@<TRIPOS>SUBSTRUCTURE
     1 UNK         1 GROUP             0       ****    0 ROOT    
