ZINC44590379_5614
                    3D
 Schrodinger Suite 2024-2.
 63 67  0  0  1  0            999 V2000
    3.4215   52.4950   18.9940 C   0  0  0  0  0  0
    4.1215   52.3916   20.3568 C   0  0  0  0  0  0
    3.1588   52.0962   21.5000 C   0  0  0  0  0  0
    2.7683   53.1142   22.3714 C   0  0  0  0  0  0
    1.9122   52.8299   23.4339 C   0  0  0  0  0  0
    1.4308   51.5268   23.6351 C   0  0  0  0  0  0
    1.8196   50.5153   22.7435 C   0  0  0  0  0  0
    2.6776   50.7991   21.6829 C   0  0  0  0  0  0
    0.5343   51.2379   24.7792 C   0  0  0  0  0  0
    0.7104   51.8508   25.9001 N   0  0  0  0  0  0
   -0.2116   51.7542   27.0173 N   0  0  0  0  0  0
   -1.5759   51.2172   26.7195 C   0  0  1  0  0  0
   -1.4027   49.9577   25.8429 C   0  0  0  0  0  0
   -0.6088   50.2308   24.5537 C   0  0  0  0  0  0
   -2.4157   50.8968   27.8718 N   0  0  0  0  0  0
   -3.8601   51.0037   27.5575 N   0  0  0  0  0  0
   -4.0843   51.9117   26.4216 C   0  0  1  0  0  0
   -2.4929   52.4980   25.8353 S   0  0  0  0  0  0
   -4.8333   51.1943   25.2643 C   0  0  0  0  0  0
   -4.2763   50.7973   24.2385 O   0  0  0  0  0  0
   -6.3436   51.0224   25.3958 C   0  0  0  0  0  0
   -4.8511   50.5593   28.4512 C   0  0  0  0  0  0
   -6.0337   51.2845   28.6505 C   0  0  0  0  0  0
   -7.0057   50.8358   29.5431 C   0  0  0  0  0  0
   -6.8119   49.6501   30.2443 C   0  0  0  0  0  0
   -5.6418   48.8982   30.0702 C   0  0  0  0  0  0
   -4.6574   49.3873   29.1940 C   0  0  0  0  0  0
   -5.4579   47.6087   30.7763 N   0  3  0  0  0  0
   -4.5103   46.8969   30.4633 O   0  0  0  0  0  0
   -6.2717   47.2910   31.6389 O   0  5  0  0  0  0
    0.0976   52.4920   28.1734 C   0  0  0  0  0  0
   -0.1951   52.0118   29.4604 C   0  0  0  0  0  0
    0.1306   52.7472   30.5977 C   0  0  0  0  0  0
    0.7523   53.9825   30.4682 C   0  0  0  0  0  0
    1.1044   54.4581   29.2112 C   0  0  0  0  0  0
    0.7996   53.7063   28.0815 C   0  0  0  0  0  0
    4.1411   52.7053   18.2034 H   0  0  0  0  0  0
    2.9222   51.5593   18.7335 H   0  0  0  0  0  0
    2.6765   53.2923   18.9913 H   0  0  0  0  0  0
    4.6685   53.3136   20.5604 H   0  0  0  0  0  0
    4.8810   51.6075   20.3188 H   0  0  0  0  0  0
    3.1249   54.1250   22.2294 H   0  0  0  0  0  0
    1.6249   53.6333   24.0991 H   0  0  0  0  0  0
    1.4890   49.4955   22.8676 H   0  0  0  0  0  0
    2.9787   50.0072   21.0099 H   0  0  0  0  0  0
   -0.8738   49.1957   26.4190 H   0  0  0  0  0  0
   -2.3689   49.5176   25.5935 H   0  0  0  0  0  0
   -0.2313   49.2936   24.1460 H   0  0  0  0  0  0
   -1.2653   50.6306   23.7800 H   0  0  0  0  0  0
   -2.2045   49.9154   28.0810 H   0  0  0  0  0  0
   -6.8345   51.9822   25.5669 H   0  0  0  0  0  0
   -6.7494   50.5939   24.4765 H   0  0  0  0  0  0
   -6.5823   50.3375   26.2104 H   0  0  0  0  0  0
   -6.2135   52.2043   28.1176 H   0  0  0  0  0  0
   -7.9138   51.4032   29.6874 H   0  0  0  0  0  0
   -7.5865   49.3059   30.9156 H   0  0  0  0  0  0
   -3.7367   48.8312   29.0639 H   0  0  0  0  0  0
   -0.6541   51.0459   29.5990 H   0  0  0  0  0  0
   -0.0946   52.3577   31.5820 H   0  0  0  0  0  0
    0.9817   54.5660   31.3470 H   0  0  0  0  0  0
    1.6181   55.4029   29.1084 H   0  0  0  0  0  0
    1.1043   54.0922   27.1195 H   0  0  0  0  0  0
   -4.6534   52.7876   26.7253 H   0  0  0  0  0  0
  1  2  1  0  0  0
  1 37  1  0  0  0
  1 38  1  0  0  0
  1 39  1  0  0  0
  2  3  1  0  0  0
  2 40  1  0  0  0
  2 41  1  0  0  0
  3  8  2  0  0  0
  3  4  1  0  0  0
  4  5  2  0  0  0
  4 42  1  0  0  0
  5  6  1  0  0  0
  5 43  1  0  0  0
  6  7  2  0  0  0
  6  9  1  0  0  0
  7  8  1  0  0  0
  7 44  1  0  0  0
  8 45  1  0  0  0
  9 14  1  0  0  0
  9 10  2  0  0  0
 10 11  1  0  0  0
 11 12  1  0  0  0
 11 31  1  0  0  0
 12 18  1  0  0  0
 12 13  1  0  0  0
 12 15  1  0  0  0
 13 14  1  0  0  0
 13 46  1  0  0  0
 13 47  1  0  0  0
 14 48  1  0  0  0
 14 49  1  0  0  0
 15 16  1  0  0  0
 15 50  1  0  0  0
 16 17  1  0  0  0
 16 22  1  0  0  0
 17 18  1  0  0  0
 17 19  1  0  0  0
 17 63  1  0  0  0
 19 20  2  0  0  0
 19 21  1  0  0  0
 21 51  1  0  0  0
 21 52  1  0  0  0
 21 53  1  0  0  0
 22 27  2  0  0  0
 22 23  1  0  0  0
 23 24  2  0  0  0
 23 54  1  0  0  0
 24 25  1  0  0  0
 24 55  1  0  0  0
 25 26  2  0  0  0
 25 56  1  0  0  0
 26 27  1  0  0  0
 26 28  1  0  0  0
 27 57  1  0  0  0
 28 29  2  0  0  0
 28 30  1  0  0  0
 31 36  2  0  0  0
 31 32  1  0  0  0
 32 33  2  0  0  0
 32 58  1  0  0  0
 33 34  1  0  0  0
 33 59  1  0  0  0
 34 35  2  0  0  0
 34 60  1  0  0  0
 35 36  1  0  0  0
 35 61  1  0  0  0
 36 62  1  0  0  0
M  CHG  2  28   1  30  -1
M  END
> <i_i_glide_confnum>
61

> <i_i_glide_lignum>
5615

> <i_i_glide_posenum>
149

> <i_i_glide_rotatable_bonds>
6

> <i_m_Source_File_Index>
1246

> <b_m_subgroup_collapsed>
0

> <r_i_docking_score>
-4.49704

> <r_i_glide_ecoul>
-6.36266

> <r_i_glide_eff_state_penalty>
0

> <r_i_glide_einternal>
9.07579

> <r_i_glide_emodel>
-55.8421

> <r_i_glide_energy>
-47.1583

> <r_i_glide_erotb>
0.243568

> <r_i_glide_esite>
-0.255437

> <r_i_glide_evdw>
-40.7957

> <r_i_glide_gscore>
-4.49704

> <r_i_glide_hbond>
-0.16

> <r_i_glide_ligand_efficiency>
-0.124918

> <r_i_glide_ligand_efficiency_ln>
-0.981133

> <r_i_glide_ligand_efficiency_sa>
-0.412469

> <r_i_glide_lipo>
-1.26064

> <r_i_glide_metal>
0

> <r_i_glide_rewards>
-0.0703459

> <s_i_glide_gridfile>
wee1_glide-grid

> <s_m_Source_File>
wee1_decoys_glide_SP.sdf

> <s_m_Source_Path>
/Users/zhangxujun/Desktop

> <s_m_entry_id>
1521

> <s_m_entry_name>
wee1_decoys_glide_SP.1246

> <s_m_subgroup_title>
wee1_decoys_glide_SP

> <s_m_subgroupid>
wee1_decoys_glide_SP


$$$$
