@<TRIPOS>MOLECULE
ZINC42420884_1900
39   40    1
SMALL
USER_CHARGES


@<TRIPOS>ATOM
      1 C1          6.2353   54.2082   28.3310 C.3       1 UNK         0.0000 
      2 N2          4.8867   54.2958   28.8821 N.am      1 UNK         0.0000 
      3 C3          4.1761   53.2267   29.2792 C.2       1 UNK         0.0000 
      4 O4          4.6563   52.0967   29.2768 O.2       1 UNK         0.0000 
      5 C5          2.7272   53.4629   29.7914 C.3       1 UNK         0.0000 
      6 H6          2.6889   54.5100   30.0926 H         1 UNK         0.0000 
      7 C7          2.5008   52.4989   31.0043 C.3       1 UNK         0.0000 
      8 C8          1.1218   52.6824   31.6479 C.3       1 UNK         0.0000 
      9 C9          0.0391   52.6231   30.5690 C.3       1 UNK         0.0000 
     10 C10         0.3647   53.5274   29.3624 C.3       1 UNK         0.0000 
     11 N11         1.6715   53.1711   28.7736 N.pl3     1 UNK         0.0000 
     12 C12         1.7655   53.0920   27.3776 C.ar      1 UNK         0.0000 
     13 C13         2.5818   53.9784   26.6628 C.ar      1 UNK         0.0000 
     14 C14         2.7128   53.8920   25.2788 C.ar      1 UNK         0.0000 
     15 C15         1.9899   52.9415   24.5549 C.ar      1 UNK         0.0000 
     16 C16         1.1046   52.1038   25.2425 C.ar      1 UNK         0.0000 
     17 C17         1.0007   52.1611   26.6351 C.ar      1 UNK         0.0000 
     18 N18         0.1497   51.2341   27.2494 N.pl3     1 UNK         0.0000 
     19 C19         2.1729   52.7985   23.0448 C.3       1 UNK         0.0000 
     20 F20         2.2977   51.5149   22.7055 F         1 UNK         0.0000 
     21 F21         1.1050   53.2962   22.4324 F         1 UNK         0.0000 
     22 F22         3.2489   53.4537   22.6068 F         1 UNK         0.0000 
     23 H23         6.4653   55.1123   27.7674 H         1 UNK         0.0000 
     24 H24         6.3380   53.3573   27.6565 H         1 UNK         0.0000 
     25 H25         6.9726   54.0961   29.1244 H         1 UNK         0.0000 
     26 H26         4.4879   55.2182   28.9660 H         1 UNK         0.0000 
     27 H27         2.5527   51.4762   30.6404 H         1 UNK         0.0000 
     28 H28         3.2913   52.5482   31.7546 H         1 UNK         0.0000 
     29 H29         0.9455   51.9251   32.4122 H         1 UNK         0.0000 
     30 H30         1.0769   53.6440   32.1522 H         1 UNK         0.0000 
     31 H31        -0.1301   51.6014   30.2316 H         1 UNK         0.0000 
     32 H32        -0.8959   52.9243   31.0265 H         1 UNK         0.0000 
     33 H33        -0.4349   53.4313   28.6276 H         1 UNK         0.0000 
     34 H34         0.3726   54.5766   29.6603 H         1 UNK         0.0000 
     35 H35         3.1180   54.7639   27.1699 H         1 UNK         0.0000 
     36 H36         3.3833   54.5729   24.7753 H         1 UNK         0.0000 
     37 H37         0.5295   51.3726   24.6895 H         1 UNK         0.0000 
     38 H38        -0.3435   50.5382   26.7084 H         1 UNK         0.0000 
     39 H39         0.0976   51.2242   28.2600 H         1 UNK         0.0000 
@<TRIPOS>BOND
     1    1    2 1    
     2    1   23 1    
     3    1   24 1    
     4    1   25 1    
     5    2    3 am   BACKBONE|DICT|INTERRES
     6    2   26 1    
     7    3    4 2    
     8    3    5 1    
     9    5    6 1    
    10    5   11 1    
    11    5    7 1    
    12    7    8 1    
    13    7   27 1    
    14    7   28 1    
    15    8    9 1    
    16    8   29 1    
    17    8   30 1    
    18    9   10 1    
    19    9   31 1    
    20    9   32 1    
    21   10   11 1    
    22   10   33 1    
    23   10   34 1    
    24   11   12 1    
    25   12   17 ar   
    26   12   13 ar   
    27   13   14 ar   
    28   13   35 1    
    29   14   15 ar   
    30   14   36 1    
    31   15   16 ar   
    32   15   19 1    
    33   16   17 ar   
    34   16   37 1    
    35   17   18 1    
    36   18   38 1    
    37   18   39 1    
    38   19   20 1    
    39   19   21 1    
    40   19   22 1    
@<TRIPOS>SUBSTRUCTURE
     1 UNK         1 GROUP             0       ****    0 ROOT    
