@<TRIPOS>MOLECULE
ZINC09704406_1373
45   47    1
SMALL
USER_CHARGES


@<TRIPOS>ATOM
      1 C1         -0.6751   49.1189   23.0702 C.3       1 UNK         0.0000 
      2 C2         -1.2144   50.0506   24.1668 C.3       1 UNK         0.0000 
      3 O3         -0.1742   50.8562   24.7155 O.3       1 UNK         0.0000 
      4 C4          0.1570   52.0121   24.0435 C.2       1 UNK         0.0000 
      5 O5         -0.3966   52.4967   23.0531 O.2       1 UNK         0.0000 
      6 N6          1.2272   52.4967   24.6926 N.am      1 UNK         0.0000 
      7 C7          1.9440   53.6137   24.4460 C.2       1 UNK         0.0000 
      8 O8          1.7012   54.4565   23.5790 O.2       1 UNK         0.0000 
      9 C9          3.1115   53.7246   25.3043 C.2       1 UNK         0.0000 
     10 C10         3.0944   53.4837   26.7112 C.2       1 UNK         0.0000 
     11 C11         4.3538   53.6802   27.3047 C.2       1 UNK         0.0000 
     12 S12         5.5163   54.3062   26.1946 S.3       1 UNK         0.0000 
     13 C13         4.3909   54.1639   24.8881 C.2       1 UNK         0.0000 
     14 N14         4.9299   54.4967   23.6551 N.am      1 UNK         0.0000 
     15 C15         4.7110   53.8869   22.4710 C.2       1 UNK         0.0000 
     16 O16         4.0013   52.8968   22.2925 O.2       1 UNK         0.0000 
     17 C17         5.4165   54.4968   21.3709 C.2       1 UNK         0.0000 
     18 C18         5.3922   54.2382   20.0137 C.2       1 UNK         0.0000 
     19 C19         6.3027   55.1401   19.4711 C.2       1 UNK         0.0000 
     20 N20         6.8706   55.8985   20.3807 N.2       1 UNK         0.0000 
     21 O21         6.3217   55.4916   21.5985 O.3       1 UNK         0.0000 
     22 C22         4.6837   53.4184   28.7696 C.3       1 UNK         0.0000 
     23 C23         3.5774   52.5081   29.3555 C.3       1 UNK         0.0000 
     24 H24         3.6365   51.5245   28.8877 H         1 UNK         0.0000 
     25 C25         2.2071   53.1447   29.0627 C.3       1 UNK         0.0000 
     26 C26         1.8773   53.0623   27.5579 C.3       1 UNK         0.0000 
     27 C27         3.8020   52.2794   30.8564 C.3       1 UNK         0.0000 
     28 H28        -1.4596   48.4575   22.7042 H         1 UNK         0.0000 
     29 H29         0.1363   48.4973   23.4506 H         1 UNK         0.0000 
     30 H30        -0.2938   49.6846   22.2196 H         1 UNK         0.0000 
     31 H31        -2.0447   50.6561   23.7982 H         1 UNK         0.0000 
     32 H32        -1.6181   49.4429   24.9777 H         1 UNK         0.0000 
     33 H33         1.5420   51.9250   25.4579 H         1 UNK         0.0000 
     34 H34         5.7103   55.1366   23.6715 H         1 UNK         0.0000 
     35 H35         4.7967   53.4998   19.4940 H         1 UNK         0.0000 
     36 H36         6.5509   55.2368   18.4240 H         1 UNK         0.0000 
     37 H37         5.6602   52.9431   28.8697 H         1 UNK         0.0000 
     38 H38         4.7286   54.3642   29.3120 H         1 UNK         0.0000 
     39 H39         1.4304   52.6025   29.6051 H         1 UNK         0.0000 
     40 H40         2.1518   54.1604   29.4587 H         1 UNK         0.0000 
     41 H41         1.0082   53.6844   27.3418 H         1 UNK         0.0000 
     42 H42         1.5947   52.0350   27.3241 H         1 UNK         0.0000 
     43 H43         3.9223   53.2264   31.3736 H         1 UNK         0.0000 
     44 H44         2.9721   51.7432   31.3187 H         1 UNK         0.0000 
     45 H45         4.7045   51.6966   31.0351 H         1 UNK         0.0000 
@<TRIPOS>BOND
     1    1    2 1    
     2    1   28 1    
     3    1   29 1    
     4    1   30 1    
     5    2    3 1    
     6    2   31 1    
     7    2   32 1    
     8    3    4 1    
     9    4    5 2    
    10    4    6 am   BACKBONE|DICT|INTERRES
    11    6    7 am   BACKBONE|DICT|INTERRES
    12    6   33 1    
    13    7    8 2    
    14    7    9 1    
    15    9   13 2    
    16    9   10 1    
    17   10   26 1    
    18   10   11 2    
    19   11   12 1    
    20   11   22 1    
    21   12   13 1    
    22   13   14 am   BACKBONE|DICT|INTERRES
    23   14   15 am   BACKBONE|DICT|INTERRES
    24   14   34 1    
    25   15   16 2    
    26   15   17 1    
    27   17   21 1    
    28   17   18 2    
    29   18   19 1    
    30   18   35 1    
    31   19   20 2    
    32   19   36 1    
    33   20   21 1    
    34   22   23 1    
    35   22   37 1    
    36   22   38 1    
    37   23   24 1    
    38   23   25 1    
    39   23   27 1    
    40   25   26 1    
    41   25   39 1    
    42   25   40 1    
    43   26   41 1    
    44   26   42 1    
    45   27   43 1    
    46   27   44 1    
    47   27   45 1    
@<TRIPOS>SUBSTRUCTURE
     1 UNK         1 GROUP             0       ****    0 ROOT    
