@<TRIPOS>MOLECULE
ZINC66981386_1360
51   53    1
SMALL
USER_CHARGES


@<TRIPOS>ATOM
      1 C1          2.0375   58.5073   15.6280 C.3       1 UNK         0.0000 
      2 C2          2.8507   57.4608   16.3783 C.2       1 UNK         0.0000 
      3 O3          2.2763   56.4948   16.8812 O.2       1 UNK         0.0000 
      4 N4          4.1784   57.6796   16.4184 N.am      1 UNK         0.0000 
      5 C5          5.1672   56.9232   17.0753 C.ar      1 UNK         0.0000 
      6 C6          4.9108   56.1655   18.2297 C.ar      1 UNK         0.0000 
      7 C7          5.9564   55.5394   18.9113 C.ar      1 UNK         0.0000 
      8 C8          7.2526   55.5602   18.3672 C.ar      1 UNK         0.0000 
      9 C9          7.5018   56.2798   17.1999 C.ar      1 UNK         0.0000 
     10 C10         6.4730   56.9747   16.5672 C.ar      1 UNK         0.0000 
     11 F11         6.7535   57.6967   15.4547 F         1 UNK         0.0000 
     12 F12         8.2755   54.9032   18.9642 F         1 UNK         0.0000 
     13 N13         5.6685   54.9127   20.1354 N.am      1 UNK         0.0000 
     14 C14         6.2601   55.2462   21.3084 C.2       1 UNK         0.0000 
     15 O15         7.1055   56.1423   21.3672 O.2       1 UNK         0.0000 
     16 N16         5.8717   54.5437   22.4149 N.am      1 UNK         0.0000 
     17 C17         4.6513   53.7000   22.4691 C.3       1 UNK         0.0000 
     18 C18         3.8177   54.0959   23.7157 C.3       1 UNK         0.0000 
     19 C19         4.6369   54.0980   25.0246 C.3       1 UNK         0.0000 
     20 C20         5.8468   55.0237   24.8568 C.3       1 UNK         0.0000 
     21 C21         6.7060   54.6302   23.6399 C.3       1 UNK         0.0000 
     22 N22         3.7768   54.5489   26.2311 N.4       1 UNK         0.0000 
     23 C23         2.5108   53.6959   26.4707 C.3       1 UNK         0.0000 
     24 C24         2.1756   53.8599   27.9574 C.3       1 UNK         0.0000 
     25 C25         3.3963   54.4935   28.6256 C.3       1 UNK         0.0000 
     26 C26         4.5127   54.4624   27.5844 C.3       1 UNK         0.0000 
     27 H27         2.4304   59.5115   15.8081 H         1 UNK         0.0000 
     28 H28         0.9977   58.4910   15.9600 H         1 UNK         0.0000 
     29 H29         2.0607   58.3076   14.5565 H         1 UNK         0.0000 
     30 H30         4.5270   58.4472   15.8611 H         1 UNK         0.0000 
     31 H31         3.9128   56.1044   18.6355 H         1 UNK         0.0000 
     32 H32         8.5030   56.3130   16.7961 H         1 UNK         0.0000 
     33 H33         4.9409   54.2148   20.1293 H         1 UNK         0.0000 
     34 H34         4.0068   53.8289   21.5992 H         1 UNK         0.0000 
     35 H35         4.9642   52.6580   22.5348 H         1 UNK         0.0000 
     36 H36         3.3839   55.0828   23.5526 H         1 UNK         0.0000 
     37 H37         2.9457   53.4473   23.8023 H         1 UNK         0.0000 
     38 H38         5.0114   53.0972   25.2143 H         1 UNK         0.0000 
     39 H39         6.4595   55.0417   25.7579 H         1 UNK         0.0000 
     40 H40         5.5089   56.0551   24.7506 H         1 UNK         0.0000 
     41 H41         7.1554   53.6511   23.8091 H         1 UNK         0.0000 
     42 H42         7.5042   55.3669   23.5524 H         1 UNK         0.0000 
     43 H43         1.7314   54.0279   25.7833 H         1 UNK         0.0000 
     44 H44         2.7805   52.6649   26.2359 H         1 UNK         0.0000 
     45 H45         1.2906   54.4830   28.0894 H         1 UNK         0.0000 
     46 H46         1.9478   52.8878   28.3989 H         1 UNK         0.0000 
     47 H47         3.6885   53.9545   29.5279 H         1 UNK         0.0000 
     48 H48         3.1836   55.5232   28.9193 H         1 UNK         0.0000 
     49 H49         5.0569   53.5145   27.5823 H         1 UNK         0.0000 
     50 H50         5.2301   55.2803   27.6611 H         1 UNK         0.0000 
     51 H51         3.5006   55.5073   26.0730 H         1 UNK         0.0000 
@<TRIPOS>BOND
     1    1    2 1    
     2    1   27 1    
     3    1   28 1    
     4    1   29 1    
     5    2    3 2    
     6    2    4 am   BACKBONE|DICT|INTERRES
     7    4    5 1    
     8    4   30 1    
     9    5   10 ar   
    10    5    6 ar   
    11    6    7 ar   
    12    6   31 1    
    13    7    8 ar   
    14    7   13 1    
    15    8    9 ar   
    16    8   12 1    
    17    9   10 ar   
    18    9   32 1    
    19   10   11 1    
    20   13   14 am   BACKBONE|DICT|INTERRES
    21   13   33 1    
    22   14   15 2    
    23   14   16 am   BACKBONE|DICT|INTERRES
    24   16   21 1    
    25   16   17 1    
    26   17   18 1    
    27   17   34 1    
    28   17   35 1    
    29   18   19 1    
    30   18   36 1    
    31   18   37 1    
    32   19   20 1    
    33   19   22 1    
    34   19   38 1    
    35   20   21 1    
    36   20   39 1    
    37   20   40 1    
    38   21   41 1    
    39   21   42 1    
    40   22   26 1    
    41   22   23 1    
    42   22   51 1    
    43   23   24 1    
    44   23   43 1    
    45   23   44 1    
    46   24   25 1    
    47   24   45 1    
    48   24   46 1    
    49   25   26 1    
    50   25   47 1    
    51   25   48 1    
    52   26   49 1    
    53   26   50 1    
@<TRIPOS>SUBSTRUCTURE
     1 UNK         1 GROUP             0       ****    0 ROOT    
