@<TRIPOS>MOLECULE
ZINC66644340_1404
56   58    1
SMALL
USER_CHARGES


@<TRIPOS>ATOM
      1 C1          5.8436   53.6833   28.3802 C.3       1 UNK         0.0000 
      2 O2          4.4246   53.6149   28.3814 O.3       1 UNK         0.0000 
      3 C3          3.7603   52.7566   29.1906 C.2       1 UNK         0.0000 
      4 O4          4.3040   52.0964   30.0785 O.2       1 UNK         0.0000 
      5 N5          2.3873   52.7172   28.8948 N.am      1 UNK         0.0000 
      6 C6          1.4659   51.9083   29.6989 C.3       1 UNK         0.0000 
      7 C7          0.1368   52.6407   29.6060 C.3       1 UNK         0.0000 
      8 C8          0.1562   53.1922   28.1898 C.3       1 UNK         0.0000 
      9 C9          1.6409   53.5231   27.8917 C.3       1 UNK         0.0000 
     10 H10         1.8068   54.5741   28.1376 H         1 UNK         0.0000 
     11 C11         2.0319   53.2970   26.4058 C.2       1 UNK         0.0000 
     12 O12         1.3958   52.4964   25.7204 O.2       1 UNK         0.0000 
     13 N13         3.0715   54.0362   25.9663 N.am      1 UNK         0.0000 
     14 C14         3.6461   54.0685   24.6857 C.ar      1 UNK         0.0000 
     15 C15         2.9376   53.7916   23.5064 C.ar      1 UNK         0.0000 
     16 C16         3.5792   53.8846   22.2728 C.ar      1 UNK         0.0000 
     17 C17         4.9218   54.2638   22.2102 C.ar      1 UNK         0.0000 
     18 C18         5.6403   54.4964   23.3889 C.ar      1 UNK         0.0000 
     19 C19         4.9950   54.4229   24.6180 C.ar      1 UNK         0.0000 
     20 N20         5.5025   54.4081   20.9424 N.am      1 UNK         0.0000 
     21 C21         6.3493   55.3866   20.5572 C.2       1 UNK         0.0000 
     22 O22         6.7066   56.3221   21.2783 O.2       1 UNK         0.0000 
     23 N23         6.6484   55.3561   19.2430 N.am      1 UNK         0.0000 
     24 C24         7.9888   54.9160   18.8367 C.3       1 UNK         0.0000 
     25 C25         8.0440   53.9426   17.6354 C.3       1 UNK         0.0000 
     26 C26         6.9097   52.8992   17.5273 C.3       1 UNK         0.0000 
     27 C27         5.6013   53.4297   16.9029 C.3       1 UNK         0.0000 
     28 C28         4.8160   54.4572   17.7416 C.3       1 UNK         0.0000 
     29 C29         5.6448   55.6683   18.2157 C.3       1 UNK         0.0000 
     30 H30         6.1798   54.2873   27.5398 H         1 UNK         0.0000 
     31 H31         6.2950   52.6948   28.2814 H         1 UNK         0.0000 
     32 H32         6.2190   54.1610   29.2821 H         1 UNK         0.0000 
     33 H33         1.3936   50.9010   29.2765 H         1 UNK         0.0000 
     34 H34         1.7676   51.8061   30.7429 H         1 UNK         0.0000 
     35 H35        -0.7248   52.0030   29.8149 H         1 UNK         0.0000 
     36 H36         0.1244   53.4650   30.3208 H         1 UNK         0.0000 
     37 H37        -0.2309   52.4163   27.5265 H         1 UNK         0.0000 
     38 H38        -0.4937   54.0596   28.0822 H         1 UNK         0.0000 
     39 H39         3.5629   54.5619   26.6727 H         1 UNK         0.0000 
     40 H40         1.8907   53.5297   23.5267 H         1 UNK         0.0000 
     41 H41         3.0165   53.6945   21.3695 H         1 UNK         0.0000 
     42 H42         6.6846   54.7736   23.3542 H         1 UNK         0.0000 
     43 H43         5.5561   54.6371   25.5130 H         1 UNK         0.0000 
     44 H44         5.1726   53.7791   20.2260 H         1 UNK         0.0000 
     45 H45         8.5243   55.8115   18.5183 H         1 UNK         0.0000 
     46 H46         8.5411   54.4967   19.6803 H         1 UNK         0.0000 
     47 H47         8.0661   54.5240   16.7128 H         1 UNK         0.0000 
     48 H48         9.0101   53.4354   17.6580 H         1 UNK         0.0000 
     49 H49         7.2623   52.0663   16.9157 H         1 UNK         0.0000 
     50 H50         6.7041   52.4675   18.5062 H         1 UNK         0.0000 
     51 H51         4.9460   52.5785   16.7016 H         1 UNK         0.0000 
     52 H52         5.8252   53.8597   15.9242 H         1 UNK         0.0000 
     53 H53         4.3330   53.9613   18.5835 H         1 UNK         0.0000 
     54 H54         3.9957   54.8285   17.1245 H         1 UNK         0.0000 
     55 H55         4.9521   56.4025   18.6309 H         1 UNK         0.0000 
     56 H56         6.1224   56.2173   17.4048 H         1 UNK         0.0000 
@<TRIPOS>BOND
     1    1    2 1    
     2    1   30 1    
     3    1   31 1    
     4    1   32 1    
     5    2    3 1    
     6    3    4 2    
     7    3    5 am   BACKBONE|DICT|INTERRES
     8    5    9 1    
     9    5    6 1    
    10    6    7 1    
    11    6   33 1    
    12    6   34 1    
    13    7    8 1    
    14    7   35 1    
    15    7   36 1    
    16    8    9 1    
    17    8   37 1    
    18    8   38 1    
    19    9   10 1    
    20    9   11 1    
    21   11   12 2    
    22   11   13 am   BACKBONE|DICT|INTERRES
    23   13   14 1    
    24   13   39 1    
    25   14   19 ar   
    26   14   15 ar   
    27   15   16 ar   
    28   15   40 1    
    29   16   17 ar   
    30   16   41 1    
    31   17   18 ar   
    32   17   20 1    
    33   18   19 ar   
    34   18   42 1    
    35   19   43 1    
    36   20   21 am   BACKBONE|DICT|INTERRES
    37   20   44 1    
    38   21   22 2    
    39   21   23 am   BACKBONE|DICT|INTERRES
    40   23   29 1    
    41   23   24 1    
    42   24   25 1    
    43   24   45 1    
    44   24   46 1    
    45   25   26 1    
    46   25   47 1    
    47   25   48 1    
    48   26   27 1    
    49   26   49 1    
    50   26   50 1    
    51   27   28 1    
    52   27   51 1    
    53   27   52 1    
    54   28   29 1    
    55   28   53 1    
    56   28   54 1    
    57   29   55 1    
    58   29   56 1    
@<TRIPOS>SUBSTRUCTURE
     1 UNK         1 GROUP             0       ****    0 ROOT    
