@<TRIPOS>MOLECULE
ZINC00930813_1056
75   79    1
SMALL
USER_CHARGES


@<TRIPOS>ATOM
      1 C1          3.9176   51.3942   20.1221 C.3       1 UNK         0.0000 
      2 C2          2.9425   51.6244   21.2528 C.ar      1 UNK         0.0000 
      3 C3          2.2288   50.5501   21.7757 C.ar      1 UNK         0.0000 
      4 C4          1.2943   50.7711   22.7800 C.ar      1 UNK         0.0000 
      5 C5          1.0888   52.0553   23.3022 C.ar      1 UNK         0.0000 
      6 C6          1.8005   53.1258   22.7511 C.ar      1 UNK         0.0000 
      7 C7          2.7200   52.9134   21.7293 C.ar      1 UNK         0.0000 
      8 C8          0.0250   52.3562   24.3496 C.3       1 UNK         0.0000 
      9 H9          0.2178   53.3716   24.6973 H         1 UNK         0.0000 
     10 C10        -1.3852   52.4949   23.6924 C.2       1 UNK         0.0000 
     11 O11        -1.5360   52.2459   22.4929 O.2       1 UNK         0.0000 
     12 N12        -2.4064   52.8972   24.4726 N.am      1 UNK         0.0000 
     13 C13        -3.7633   53.1404   23.9686 C.3       1 UNK         0.0000 
     14 C14        -4.7625   52.0025   24.3182 C.3       1 UNK         0.0000 
     15 C15        -5.2357   51.9784   25.7940 C.3       1 UNK         0.0000 
     16 C16        -5.6935   53.3590   26.3003 C.3       1 UNK         0.0000 
     17 C17        -4.6496   54.4475   25.9938 C.3       1 UNK         0.0000 
     18 C18        -4.3564   54.4734   24.4821 C.3       1 UNK         0.0000 
     19 N19         0.1039   51.4705   25.5632 N.am      1 UNK         0.0000 
     20 C20        -0.6767   50.2804   25.6135 C.ar      1 UNK         0.0000 
     21 C21        -1.9951   50.3347   26.0763 C.ar      1 UNK         0.0000 
     22 C22        -2.7976   49.1979   26.0810 C.ar      1 UNK         0.0000 
     23 C23        -2.2564   47.9729   25.6684 C.ar      1 UNK         0.0000 
     24 C24        -0.9327   47.9119   25.2293 C.ar      1 UNK         0.0000 
     25 C25        -0.1358   49.0525   25.2271 C.ar      1 UNK         0.0000 
     26 N26        -2.9178   46.7477   25.8418 N.am      1 UNK         0.0000 
     27 C27        -4.2462   46.5131   25.8559 C.2       1 UNK         0.0000 
     28 O28        -5.1129   47.3383   25.5701 O.2       1 UNK         0.0000 
     29 C29        -4.6655   45.0984   26.2479 C.3       1 UNK         0.0000 
     30 C30         0.6959   51.8742   26.7439 C.2       1 UNK         0.0000 
     31 O31         0.4459   51.2968   27.8084 O.2       1 UNK         0.0000 
     32 C32         1.6937   53.0791   26.8492 C.3       1 UNK         0.0000 
     33 H33         1.1043   53.9921   26.8766 H         1 UNK         0.0000 
     34 C34         2.5427   52.9590   28.1586 C.3       1 UNK         0.0000 
     35 O35         3.4557   54.0480   28.2590 O.3       1 UNK         0.0000 
     36 C36         4.1894   54.2321   27.1090 C.ar      1 UNK         0.0000 
     37 C37         5.4155   54.8848   27.2271 C.ar      1 UNK         0.0000 
     38 C38         6.1697   55.1474   26.0842 C.ar      1 UNK         0.0000 
     39 C39         5.7045   54.7557   24.8299 C.ar      1 UNK         0.0000 
     40 C40         4.4803   54.0959   24.7127 C.ar      1 UNK         0.0000 
     41 C41         3.7125   53.8322   25.8485 C.ar      1 UNK         0.0000 
     42 O42         2.5466   53.0962   25.6934 O.3       1 UNK         0.0000 
     43 H43         4.1136   52.3056   19.5563 H         1 UNK         0.0000 
     44 H44         4.8601   50.9981   20.4970 H         1 UNK         0.0000 
     45 H45         3.5005   50.6752   19.4151 H         1 UNK         0.0000 
     46 H46         2.3689   49.5537   21.3811 H         1 UNK         0.0000 
     47 H47         0.6902   49.9404   23.0882 H         1 UNK         0.0000 
     48 H48         1.6305   54.1350   23.1009 H         1 UNK         0.0000 
     49 H49         3.2467   53.7545   21.3009 H         1 UNK         0.0000 
     50 H50        -2.2504   53.0352   25.4593 H         1 UNK         0.0000 
     51 H51        -3.6938   53.2324   22.8852 H         1 UNK         0.0000 
     52 H52        -4.3322   51.0358   24.0487 H         1 UNK         0.0000 
     53 H53        -5.6425   52.1016   23.6812 H         1 UNK         0.0000 
     54 H54        -4.4426   51.6264   26.4448 H         1 UNK         0.0000 
     55 H55        -6.0461   51.2561   25.9073 H         1 UNK         0.0000 
     56 H56        -5.8923   53.3156   27.3709 H         1 UNK         0.0000 
     57 H57        -6.6430   53.6201   25.8289 H         1 UNK         0.0000 
     58 H58        -3.7286   54.2458   26.5415 H         1 UNK         0.0000 
     59 H59        -4.9985   55.4164   26.3452 H         1 UNK         0.0000 
     60 H60        -5.2814   54.6878   23.9437 H         1 UNK         0.0000 
     61 H61        -3.6952   55.2965   24.2275 H         1 UNK         0.0000 
     62 H62        -2.3797   51.2591   26.4709 H         1 UNK         0.0000 
     63 H63        -3.7944   49.2592   26.4898 H         1 UNK         0.0000 
     64 H64        -0.4889   46.9668   24.9569 H         1 UNK         0.0000 
     65 H65         0.9062   48.9665   24.9531 H         1 UNK         0.0000 
     66 H66        -2.2994   45.9799   26.0504 H         1 UNK         0.0000 
     67 H67        -4.9238   44.5145   25.3635 H         1 UNK         0.0000 
     68 H68        -3.8802   44.5821   26.8029 H         1 UNK         0.0000 
     69 H69        -5.5437   45.1387   26.8907 H         1 UNK         0.0000 
     70 H70         1.9151   52.9844   29.0516 H         1 UNK         0.0000 
     71 H71         3.1108   52.0262   28.1557 H         1 UNK         0.0000 
     72 H72         5.7737   55.2008   28.1970 H         1 UNK         0.0000 
     73 H73         7.1050   55.6719   26.1749 H         1 UNK         0.0000 
     74 H74         6.2946   54.9590   23.9474 H         1 UNK         0.0000 
     75 H75         4.1541   53.7662   23.7424 H         1 UNK         0.0000 
@<TRIPOS>BOND
     1    1    2 1    
     2    1   43 1    
     3    1   44 1    
     4    1   45 1    
     5    2    7 ar   
     6    2    3 ar   
     7    3    4 ar   
     8    3   46 1    
     9    4    5 ar   
    10    4   47 1    
    11    5    6 ar   
    12    5    8 1    
    13    6    7 ar   
    14    6   48 1    
    15    7   49 1    
    16    8    9 1    
    17    8   10 1    
    18    8   19 1    
    19   10   11 2    
    20   10   12 am   BACKBONE|DICT|INTERRES
    21   12   13 1    
    22   12   50 1    
    23   13   18 1    
    24   13   14 1    
    25   13   51 1    
    26   14   15 1    
    27   14   52 1    
    28   14   53 1    
    29   15   16 1    
    30   15   54 1    
    31   15   55 1    
    32   16   17 1    
    33   16   56 1    
    34   16   57 1    
    35   17   18 1    
    36   17   58 1    
    37   17   59 1    
    38   18   60 1    
    39   18   61 1    
    40   19   20 1    
    41   19   30 am   BACKBONE|DICT|INTERRES
    42   20   25 ar   
    43   20   21 ar   
    44   21   22 ar   
    45   21   62 1    
    46   22   23 ar   
    47   22   63 1    
    48   23   24 ar   
    49   23   26 1    
    50   24   25 ar   
    51   24   64 1    
    52   25   65 1    
    53   26   27 am   BACKBONE|DICT|INTERRES
    54   26   66 1    
    55   27   28 2    
    56   27   29 1    
    57   29   67 1    
    58   29   68 1    
    59   29   69 1    
    60   30   31 2    
    61   30   32 1    
    62   32   33 1    
    63   32   42 1    
    64   32   34 1    
    65   34   35 1    
    66   34   70 1    
    67   34   71 1    
    68   35   36 1    
    69   36   41 ar   
    70   36   37 ar   
    71   37   38 ar   
    72   37   72 1    
    73   38   39 ar   
    74   38   73 1    
    75   39   40 ar   
    76   39   74 1    
    77   40   41 ar   
    78   40   75 1    
    79   41   42 1    
@<TRIPOS>SUBSTRUCTURE
     1 UNK         1 GROUP             0       ****    0 ROOT    
