@<TRIPOS>MOLECULE
ZINC51151403_1752
31   34    1
SMALL
USER_CHARGES


@<TRIPOS>ATOM
      1 C1          6.0921   54.4966   24.4738 C.3       1 UNK         0.0000 
      2 C2          4.5835   54.2095   24.5525 C.3       1 UNK         0.0000 
      3 C3          4.3215   54.1049   26.0370 C.2       1 UNK         0.0000 
      4 C4          5.4305   54.4969   26.7430 C.2       1 UNK         0.0000 
      5 S5          5.2603   54.4467   28.4729 S.3       1 UNK         0.0000 
      6 C6          3.6150   53.8749   28.2703 C.ar      1 UNK         0.0000 
      7 C7          3.2400   53.7168   26.8952 C.ar      1 UNK         0.0000 
      8 C8          1.9214   53.2253   26.6913 C.ar      1 UNK         0.0000 
      9 N9          1.1200   52.9060   27.7400 N.ar      1 UNK         0.0000 
     10 C10         1.5963   53.1397   28.9863 C.ar      1 UNK         0.0000 
     11 N11         2.8253   53.6169   29.3146 N.ar      1 UNK         0.0000 
     12 C12         0.6312   52.8682   30.1348 C.3       1 UNK         0.0000 
     13 C13         1.1048   52.4963   31.5260 C.3       1 UNK         0.0000 
     14 C14         0.4799   53.8442   31.2813 C.3       1 UNK         0.0000 
     15 N15         1.3716   52.8965   25.4445 N.pl3     1 UNK         0.0000 
     16 N16         1.5469   53.7545   24.2991 N.3       1 UNK         0.0000 
     17 C17         6.5631   54.9391   25.8642 C.3       1 UNK         0.0000 
     18 H18         6.3245   55.2412   23.7106 H         1 UNK         0.0000 
     19 H19         6.6210   53.5850   24.1886 H         1 UNK         0.0000 
     20 H20         4.3475   53.2968   24.0096 H         1 UNK         0.0000 
     21 H21         4.0061   55.0087   24.0908 H         1 UNK         0.0000 
     22 H22        -0.2952   52.3891   29.8124 H         1 UNK         0.0000 
     23 H23         0.5374   51.7471   32.0802 H         1 UNK         0.0000 
     24 H24         2.1734   52.4349   31.7336 H         1 UNK         0.0000 
     25 H25         1.1033   54.7393   31.2810 H         1 UNK         0.0000 
     26 H26        -0.4955   54.0275   31.7199 H         1 UNK         0.0000 
     27 H27         0.4263   52.5329   25.4487 H         1 UNK         0.0000 
     28 H28         1.6408   54.7112   24.6143 H         1 UNK         0.0000 
     29 H29         2.3685   53.4519   23.7924 H         1 UNK         0.0000 
     30 H30         6.7093   56.0187   25.9108 H         1 UNK         0.0000 
     31 H31         7.5043   54.4618   26.1290 H         1 UNK         0.0000 
@<TRIPOS>BOND
     1    1   17 1    
     2    1    2 1    
     3    1   18 1    
     4    1   19 1    
     5    2    3 1    
     6    2   20 1    
     7    2   21 1    
     8    3    7 1    
     9    3    4 2    
    10    4    5 1    
    11    4   17 1    
    12    5    6 1    
    13    6   11 ar   
    14    6    7 ar   
    15    7    8 ar   
    16    8    9 ar   
    17    8   15 1    
    18    9   10 ar   
    19   10   11 ar   
    20   10   12 1    
    21   12   14 1    
    22   12   13 1    
    23   12   22 1    
    24   13   14 1    
    25   13   23 1    
    26   13   24 1    
    27   14   25 1    
    28   14   26 1    
    29   15   16 1    
    30   15   27 1    
    31   16   28 1    
    32   16   29 1    
    33   17   30 1    
    34   17   31 1    
@<TRIPOS>SUBSTRUCTURE
     1 UNK         1 GROUP             0       ****    0 ROOT    
