ZINC46772222_3032
                    3D
 Schrodinger Suite 2024-2.
 60 62  0  0  1  0            999 V2000
    1.7269   59.1983   15.2268 C   0  0  0  0  0  0
    2.4525   58.0843   15.9679 C   0  0  0  0  0  0
    3.7248   58.3337   16.4817 C   0  0  0  0  0  0
    4.4095   57.3557   17.1935 C   0  0  0  0  0  0
    3.8359   56.0933   17.3952 C   0  0  0  0  0  0
    2.5595   55.8429   16.8813 C   0  0  0  0  0  0
    1.8610   56.8261   16.1712 C   0  0  0  0  0  0
    0.4726   56.5087   15.6347 C   0  0  0  0  0  0
    4.4265   55.0445   18.1271 N   0  0  0  0  0  0
    5.7099   54.7584   18.5200 C   0  0  0  0  0  0
    7.1089   55.5835   18.1583 S   0  0  0  0  0  0
    5.8837   53.6427   19.2825 N   0  0  0  0  0  0
    4.8629   52.8171   19.7769 N   0  0  0  0  0  0
    4.1427   53.1937   20.8634 C   0  0  0  0  0  0
    4.3149   54.2589   21.4626 O   0  0  0  0  0  0
    3.1052   52.2039   21.3549 C   0  0  0  0  0  0
    3.0867   50.8718   20.9047 C   0  0  0  0  0  0
    2.1335   49.9715   21.3817 C   0  0  0  0  0  0
    1.1702   50.3903   22.2958 C   0  0  0  0  0  0
    1.1592   51.7114   22.7492 C   0  0  0  0  0  0
    2.1351   52.6078   22.2902 C   0  0  0  0  0  0
   -0.1436   52.2533   23.8656 S   0  0  0  0  0  0
    0.0214   53.6955   24.0808 O   0  0  0  0  0  0
   -1.3962   51.7215   23.3135 O   0  0  0  0  0  0
    0.1224   51.4403   25.4494 N   0  0  0  0  0  0
    0.0180   49.9810   25.4684 C   0  0  0  0  0  0
    0.8501   52.0274   26.5062 C   0  0  0  0  0  0
    1.9172   52.8966   26.2554 C   0  0  0  0  0  0
    2.6555   53.4367   27.3049 C   0  0  0  0  0  0
    2.3361   53.1177   28.6314 C   0  0  0  0  0  0
    1.2534   52.2772   28.8848 C   0  0  0  0  0  0
    0.5153   51.7339   27.8346 C   0  0  0  0  0  0
    3.0369   53.5767   29.7305 O   0  0  0  0  0  0
    4.2334   54.3170   29.5182 C   0  0  0  0  0  0
    2.2740   60.1432   15.2651 H   0  0  0  0  0  0
    1.5725   58.9239   14.1843 H   0  0  0  0  0  0
    0.7487   59.3723   15.6786 H   0  0  0  0  0  0
    4.1916   59.2978   16.3474 H   0  0  0  0  0  0
    5.3658   57.6315   17.6037 H   0  0  0  0  0  0
    2.0979   54.8777   17.0455 H   0  0  0  0  0  0
    0.1971   55.4652   15.7945 H   0  0  0  0  0  0
    0.4288   56.7050   14.5636 H   0  0  0  0  0  0
   -0.2707   57.1437   16.1184 H   0  0  0  0  0  0
    3.7531   54.3347   18.3736 H   0  0  0  0  0  0
    6.7607   53.4917   19.7622 H   0  0  0  0  0  0
    4.5522   52.1451   19.0851 H   0  0  0  0  0  0
    3.8085   50.5067   20.1873 H   0  0  0  0  0  0
    2.1338   48.9504   21.0291 H   0  0  0  0  0  0
    0.4219   49.6912   22.6358 H   0  0  0  0  0  0
    2.1175   53.6332   22.6379 H   0  0  0  0  0  0
    0.9908   49.5246   25.2873 H   0  0  0  0  0  0
   -0.3562   49.6064   26.4216 H   0  0  0  0  0  0
   -0.6723   49.6279   24.7024 H   0  0  0  0  0  0
    2.2035   53.1423   25.2443 H   0  0  0  0  0  0
    3.4784   54.0938   27.0675 H   0  0  0  0  0  0
    0.9896   52.0349   29.9034 H   0  0  0  0  0  0
   -0.3144   51.0777   28.0661 H   0  0  0  0  0  0
    4.7045   54.4976   30.4810 H   0  0  0  0  0  0
    4.9503   53.7678   28.9057 H   0  0  0  0  0  0
    4.0310   55.2858   29.0588 H   0  0  0  0  0  0
  1  2  1  0  0  0
  1 35  1  0  0  0
  1 36  1  0  0  0
  1 37  1  0  0  0
  2  7  2  0  0  0
  2  3  1  0  0  0
  3  4  2  0  0  0
  3 38  1  0  0  0
  4  5  1  0  0  0
  4 39  1  0  0  0
  5  6  2  0  0  0
  5  9  1  0  0  0
  6  7  1  0  0  0
  6 40  1  0  0  0
  7  8  1  0  0  0
  8 41  1  0  0  0
  8 42  1  0  0  0
  8 43  1  0  0  0
  9 10  1  0  0  0
  9 44  1  0  0  0
 10 11  2  0  0  0
 10 12  1  0  0  0
 12 13  1  0  0  0
 12 45  1  0  0  0
 13 14  1  0  0  0
 13 46  1  0  0  0
 14 15  2  0  0  0
 14 16  1  0  0  0
 16 21  2  0  0  0
 16 17  1  0  0  0
 17 18  2  0  0  0
 17 47  1  0  0  0
 18 19  1  0  0  0
 18 48  1  0  0  0
 19 20  2  0  0  0
 19 49  1  0  0  0
 20 21  1  0  0  0
 20 22  1  0  0  0
 21 50  1  0  0  0
 22 23  2  0  0  0
 22 24  2  0  0  0
 22 25  1  0  0  0
 25 26  1  0  0  0
 25 27  1  0  0  0
 26 51  1  0  0  0
 26 52  1  0  0  0
 26 53  1  0  0  0
 27 32  2  0  0  0
 27 28  1  0  0  0
 28 29  2  0  0  0
 28 54  1  0  0  0
 29 30  1  0  0  0
 29 55  1  0  0  0
 30 31  2  0  0  0
 30 33  1  0  0  0
 31 32  1  0  0  0
 31 56  1  0  0  0
 32 57  1  0  0  0
 33 34  1  0  0  0
 34 58  1  0  0  0
 34 59  1  0  0  0
 34 60  1  0  0  0
M  END
> <i_i_glide_confnum>
7

> <i_i_glide_lignum>
3033

> <i_i_glide_posenum>
249

> <i_i_glide_rotatable_bonds>
10

> <i_m_Source_File_Index>
6017

> <b_m_subgroup_collapsed>
0

> <r_i_docking_score>
-3.27119

> <r_i_glide_ecoul>
-5.53895

> <r_i_glide_eff_state_penalty>
0

> <r_i_glide_einternal>
7.71111

> <r_i_glide_emodel>
-52.641

> <r_i_glide_energy>
-48.2278

> <r_i_glide_erotb>
0.738734

> <r_i_glide_esite>
-0.0946354

> <r_i_glide_evdw>
-42.6889

> <r_i_glide_gscore>
-3.27119

> <r_i_glide_hbond>
-0.208101

> <r_i_glide_ligand_efficiency>
-0.0962115

> <r_i_glide_ligand_efficiency_ln>
-0.722698

> <r_i_glide_ligand_efficiency_sa>
-0.311688

> <r_i_glide_lipo>
-1.59089

> <r_i_glide_metal>
0

> <r_i_glide_rewards>
0.848994

> <s_i_glide_gridfile>
wee1_glide-grid

> <s_m_Source_File>
wee1_decoys_glide_SP.sdf

> <s_m_Source_Path>
/Users/zhangxujun/Desktop

> <s_m_entry_id>
6292

> <s_m_entry_name>
wee1_decoys_glide_SP.6017

> <s_m_subgroup_title>
wee1_decoys_glide_SP

> <s_m_subgroupid>
wee1_decoys_glide_SP


$$$$
