@<TRIPOS>MOLECULE
ZINC21596006_2404
43   47    1
SMALL
USER_CHARGES


@<TRIPOS>ATOM
      1 C1          1.2575   53.4332   23.1891 C.ar      1 UNK         0.0000 
      2 C2          1.1755   52.3886   22.2753 C.ar      1 UNK         0.0000 
      3 C3          0.5874   51.1710   22.6392 C.ar      1 UNK         0.0000 
      4 C4          0.0906   51.0100   23.9434 C.ar      1 UNK         0.0000 
      5 C5          0.2110   52.0417   24.8830 C.ar      1 UNK         0.0000 
      6 C6          0.7665   53.2666   24.4795 C.ar      1 UNK         0.0000 
      7 N7         -0.2184   51.8176   26.2129 N.pl3     1 UNK         0.0000 
      8 C8          0.3804   52.1988   27.3846 C.2       1 UNK         0.0000 
      9 S9         -0.4954   52.0966   28.7987 S.2       1 UNK         0.0000 
     10 N10         1.6881   52.5783   27.2600 N.am      1 UNK         0.0000 
     11 C11         2.6086   53.1195   28.0948 C.2       1 UNK         0.0000 
     12 O12         2.5140   53.1904   29.3237 O.2       1 UNK         0.0000 
     13 C13         3.8355   53.6496   27.3791 C.ar      1 UNK         0.0000 
     14 C14         4.9507   54.0860   28.1148 C.ar      1 UNK         0.0000 
     15 C15         6.0980   54.5804   27.4901 C.ar      1 UNK         0.0000 
     16 C16         6.0975   54.6530   26.0907 C.ar      1 UNK         0.0000 
     17 C17         5.0091   54.1993   25.3419 C.ar      1 UNK         0.0000 
     18 C18         3.8791   53.6968   25.9715 C.ar      1 UNK         0.0000 
     19 N19         5.1392   54.2576   23.9972 N.2       1 UNK         0.0000 
     20 S20         6.6578   54.8976   23.7611 S.3       1 UNK         0.0000 
     21 N21         7.1044   55.1467   25.3500 N.2       1 UNK         0.0000 
     22 C22         0.5286   50.0747   21.6280 C.2       1 UNK         0.0000 
     23 N23        -0.3223   49.0670   21.5870 N.2       1 UNK         0.0000 
     24 C24         0.0687   48.3607   20.4822 C.ar      1 UNK         0.0000 
     25 C25        -0.4382   47.1829   19.9140 C.ar      1 UNK         0.0000 
     26 C26         0.2186   46.6584   18.7931 C.ar      1 UNK         0.0000 
     27 C27         1.3337   47.2976   18.2351 C.ar      1 UNK         0.0000 
     28 C28         1.8450   48.4811   18.7754 C.ar      1 UNK         0.0000 
     29 C29         1.1868   48.9797   19.9025 C.ar      1 UNK         0.0000 
     30 O30         1.4693   50.0891   20.6324 O.3       1 UNK         0.0000 
     31 Cl31       -0.3531   45.1883   18.0947 Cl        1 UNK         0.0000 
     32 H32         1.7065   54.3712   22.8954 H         1 UNK         0.0000 
     33 H33         1.5616   52.5388   21.2755 H         1 UNK         0.0000 
     34 H34        -0.3444   50.0647   24.2374 H         1 UNK         0.0000 
     35 H35         0.8684   54.0945   25.1619 H         1 UNK         0.0000 
     36 H36        -1.1028   51.3391   26.3049 H         1 UNK         0.0000 
     37 H37         2.0143   52.5257   26.3098 H         1 UNK         0.0000 
     38 H38         4.9409   54.0381   29.1947 H         1 UNK         0.0000 
     39 H39         6.9458   54.8972   28.0794 H         1 UNK         0.0000 
     40 H40         3.0843   53.3340   25.3513 H         1 UNK         0.0000 
     41 H41        -1.2948   46.6843   20.3421 H         1 UNK         0.0000 
     42 H42         1.8140   46.8715   17.3651 H         1 UNK         0.0000 
     43 H43         2.7042   48.9825   18.3477 H         1 UNK         0.0000 
@<TRIPOS>BOND
     1    1    6 ar   
     2    1    2 ar   
     3    1   32 1    
     4    2    3 ar   
     5    2   33 1    
     6    3    4 ar   
     7    3   22 1    
     8    4    5 ar   
     9    4   34 1    
    10    5    6 ar   
    11    5    7 1    
    12    6   35 1    
    13    7    8 1    
    14    7   36 1    
    15    8    9 2    
    16    8   10 am   BACKBONE|DICT|INTERRES
    17   10   11 am   BACKBONE|DICT|INTERRES
    18   10   37 1    
    19   11   12 2    
    20   11   13 1    
    21   13   18 ar   
    22   13   14 ar   
    23   14   15 ar   
    24   14   38 1    
    25   15   16 ar   
    26   15   39 1    
    27   16   21 2    
    28   16   17 ar   
    29   17   18 ar   
    30   17   19 2    
    31   18   40 1    
    32   19   20 1    
    33   20   21 1    
    34   22   30 1    
    35   22   23 2    
    36   23   24 1    
    37   24   29 ar   
    38   24   25 ar   
    39   25   26 ar   
    40   25   41 1    
    41   26   27 ar   
    42   26   31 1    
    43   27   28 ar   
    44   27   42 1    
    45   28   29 ar   
    46   28   43 1    
    47   29   30 1    
@<TRIPOS>SUBSTRUCTURE
     1 UNK         1 GROUP             0       ****    0 ROOT    
