@<TRIPOS>MOLECULE
ZINC08972200_4970
63   67    1
SMALL
USER_CHARGES


@<TRIPOS>ATOM
      1 C1          6.8496   53.5282   28.0433 C.3       1 UNK         0.0000 
      2 C2          6.5663   54.8618   27.3393 C.3       1 UNK         0.0000 
      3 O3          5.9781   54.6586   26.0573 O.3       1 UNK         0.0000 
      4 C4          4.6404   54.4509   25.9200 C.2       1 UNK         0.0000 
      5 O5          3.8483   54.4972   26.8662 O.2       1 UNK         0.0000 
      6 C6          4.2253   54.0947   24.5227 C.ar      1 UNK         0.0000 
      7 C7          5.1293   54.0958   23.4469 C.ar      1 UNK         0.0000 
      8 C8          4.7195   53.6777   22.1807 C.ar      1 UNK         0.0000 
      9 C9          3.4065   53.2503   21.9677 C.ar      1 UNK         0.0000 
     10 C10         2.4937   53.2782   23.0298 C.ar      1 UNK         0.0000 
     11 C11         2.9013   53.6968   24.2923 C.ar      1 UNK         0.0000 
     12 N12         3.0585   52.8967   20.6472 N.am      1 UNK         0.0000 
     13 C13         1.9207   52.3248   20.1816 C.2       1 UNK         0.0000 
     14 O14         1.1209   51.7166   20.8936 O.2       1 UNK         0.0000 
     15 C15         1.5654   52.5262   18.6768 C.3       1 UNK         0.0000 
     16 H16         0.5928   53.0216   18.7543 H         1 UNK         0.0000 
     17 C17         2.5341   53.4475   17.9086 C.3       1 UNK         0.0000 
     18 C18         3.5653   52.4975   17.3094 C.3       1 UNK         0.0000 
     19 H19         4.1756   52.0976   18.1209 H         1 UNK         0.0000 
     20 C20         1.4839   51.2139   17.8154 C.3       1 UNK         0.0000 
     21 C21         1.3051   49.8550   18.4340 C.ar      1 UNK         0.0000 
     22 C22         2.1154   49.1083   19.2900 C.ar      1 UNK         0.0000 
     23 C23         1.6716   47.8628   19.7355 C.ar      1 UNK         0.0000 
     24 C24         0.4318   47.3587   19.3240 C.ar      1 UNK         0.0000 
     25 C25        -0.3737   48.1041   18.4612 C.ar      1 UNK         0.0000 
     26 C26         0.0816   49.3478   18.0260 C.ar      1 UNK         0.0000 
     27 N27        -0.5097   50.2257   17.1356 N.am      1 UNK         0.0000 
     28 C28         0.2677   51.2869   16.8622 C.2       1 UNK         0.0000 
     29 O29         0.0570   52.1493   16.0112 O.2       1 UNK         0.0000 
     30 C30         4.5035   53.1035   16.2534 C.3       1 UNK         0.0000 
     31 C31         5.4695   54.1125   16.8590 C.ar      1 UNK         0.0000 
     32 C32         5.2237   55.4846   16.7431 C.ar      1 UNK         0.0000 
     33 C33         6.1099   56.3995   17.3102 C.ar      1 UNK         0.0000 
     34 C34         7.2387   55.9407   17.9859 C.ar      1 UNK         0.0000 
     35 C35         7.4878   54.5737   18.1061 C.ar      1 UNK         0.0000 
     36 C36         6.6013   53.6599   17.5433 C.ar      1 UNK         0.0000 
     37 H37         7.3542   53.6971   28.9955 H         1 UNK         0.0000 
     38 H38         7.4971   52.8985   27.4337 H         1 UNK         0.0000 
     39 H39         5.9304   52.9746   28.2408 H         1 UNK         0.0000 
     40 H40         5.9421   55.5016   27.9651 H         1 UNK         0.0000 
     41 H41         7.5043   55.3891   27.2033 H         1 UNK         0.0000 
     42 H42         6.1592   54.4002   23.5823 H         1 UNK         0.0000 
     43 H43         5.4332   53.6883   21.3703 H         1 UNK         0.0000 
     44 H44         1.4610   52.9946   22.9020 H         1 UNK         0.0000 
     45 H45         2.1736   53.6879   25.0930 H         1 UNK         0.0000 
     46 H46         3.7209   53.1941   19.9489 H         1 UNK         0.0000 
     47 H47         1.9990   53.9750   17.1153 H         1 UNK         0.0000 
     48 H48         2.9779   54.2634   18.4808 H         1 UNK         0.0000 
     49 H49         3.0730   49.4881   19.6167 H         1 UNK         0.0000 
     50 H50         2.3023   47.2967   20.4044 H         1 UNK         0.0000 
     51 H51         0.0968   46.3918   19.6723 H         1 UNK         0.0000 
     52 H52        -1.3231   47.7046   18.1315 H         1 UNK         0.0000 
     53 H53        -1.3716   50.0458   16.6430 H         1 UNK         0.0000 
     54 H54         5.0902   52.3059   15.7900 H         1 UNK         0.0000 
     55 H55         3.9373   53.5573   15.4381 H         1 UNK         0.0000 
     56 H56         4.3497   55.8460   16.2184 H         1 UNK         0.0000 
     57 H57         5.9230   57.4614   17.2238 H         1 UNK         0.0000 
     58 H58         7.9309   56.6488   18.4174 H         1 UNK         0.0000 
     59 H59         8.3659   54.2252   18.6318 H         1 UNK         0.0000 
     60 H60         6.7891   52.5989   17.6408 H         1 UNK         0.0000 
     61 N61         2.7044   51.2979   16.8800 N.4       1 UNK         0.0000 
     62 H62         3.2530   50.4239   16.8816 H         1 UNK         0.0000 
     63 H63         2.3820   51.4333   15.9322 H         1 UNK         0.0000 
@<TRIPOS>BOND
     1    1    2 1    
     2    1   37 1    
     3    1   38 1    
     4    1   39 1    
     5    2    3 1    
     6    2   40 1    
     7    2   41 1    
     8    3    4 1    
     9    4    5 2    
    10    4    6 1    
    11    6   11 ar   
    12    6    7 ar   
    13    7    8 ar   
    14    7   42 1    
    15    8    9 ar   
    16    8   43 1    
    17    9   10 ar   
    18    9   12 1    
    19   10   11 ar   
    20   10   44 1    
    21   11   45 1    
    22   12   13 am   BACKBONE|DICT|INTERRES
    23   12   46 1    
    24   13   14 2    
    25   13   15 1    
    26   15   16 1    
    27   15   20 1    
    28   15   17 1    
    29   17   18 1    
    30   17   47 1    
    31   17   48 1    
    32   18   19 1    
    33   18   30 1    
    34   18   61 1    
    35   20   28 1    
    36   20   21 1    
    37   20   61 1    
    38   21   26 ar   
    39   21   22 ar   
    40   22   23 ar   
    41   22   49 1    
    42   23   24 ar   
    43   23   50 1    
    44   24   25 ar   
    45   24   51 1    
    46   25   26 ar   
    47   25   52 1    
    48   26   27 1    
    49   27   28 am   BACKBONE|DICT|INTERRES
    50   27   53 1    
    51   28   29 2    
    52   30   31 1    
    53   30   54 1    
    54   30   55 1    
    55   31   36 ar   
    56   31   32 ar   
    57   32   33 ar   
    58   32   56 1    
    59   33   34 ar   
    60   33   57 1    
    61   34   35 ar   
    62   34   58 1    
    63   35   36 ar   
    64   35   59 1    
    65   36   60 1    
    66   61   62 1    
    67   61   63 1    
@<TRIPOS>SUBSTRUCTURE
     1 UNK         1 GROUP             0       ****    0 ROOT    
