ZINC45867792_4449
                    3D
 Schrodinger Suite 2024-2.
 43 45  0  0  1  0            999 V2000
   -0.3941   52.3916   30.4211 C   0  0  0  0  0  0
   -0.1249   52.1344   28.9491 C   0  0  0  0  0  0
   -1.0094   51.2975   28.2613 C   0  0  0  0  0  0
   -0.7977   50.9723   26.9238 C   0  0  0  0  0  0
    0.3067   51.4872   26.2595 C   0  0  0  0  0  0
    1.1825   52.3375   26.9282 C   0  0  0  0  0  0
    0.9760   52.6924   28.2674 C   0  0  0  0  0  0
    2.1015   53.8871   29.0342 S   0  0  0  0  0  0
    2.0985   53.6798   30.4817 O   0  0  0  0  0  0
    1.7962   55.2114   28.4816 O   0  0  0  0  0  0
    3.7510   53.4531   28.5730 N   0  0  0  0  0  0
    4.4512   53.9395   27.4658 C   0  0  0  0  0  0
    3.8283   54.4951   26.3464 C   0  0  0  0  0  0
    4.5801   54.8553   25.2371 C   0  0  0  0  0  0
    5.9684   54.6906   25.2502 C   0  0  0  0  0  0
    6.5946   54.2224   26.4061 C   0  0  0  0  0  0
    5.8384   53.8286   27.5014 C   0  0  0  0  0  0
    6.7794   55.0003   24.1493 N   0  0  0  0  0  0
    6.4734   54.8927   22.8418 C   0  0  0  0  0  0
    5.3966   54.4950   22.3990 O   0  0  0  0  0  0
    7.5044   55.3011   22.0816 N   0  0  0  0  0  0
    7.5368   55.6947   20.6650 C   0  0  0  0  0  0
    6.6443   55.0347   19.6323 C   0  0  0  0  0  0
    6.3797   56.4610   20.0569 C   0  0  0  0  0  0
    0.6367   51.0256   24.4428 Br  0  0  0  0  0  0
   -1.2946   51.8939   30.7723 H   0  0  0  0  0  0
    0.4182   52.0042   31.0348 H   0  0  0  0  0  0
   -0.4942   53.4575   30.6203 H   0  0  0  0  0  0
   -1.8552   50.8593   28.7715 H   0  0  0  0  0  0
   -1.4722   50.2937   26.4224 H   0  0  0  0  0  0
    2.0328   52.6932   26.3785 H   0  0  0  0  0  0
    4.2651   52.9027   29.2425 H   0  0  0  0  0  0
    2.7626   54.6362   26.3034 H   0  0  0  0  0  0
    4.0717   55.2566   24.3739 H   0  0  0  0  0  0
    7.6608   54.1219   26.4713 H   0  0  0  0  0  0
    6.3378   53.4264   28.3714 H   0  0  0  0  0  0
    7.7496   55.1867   24.3542 H   0  0  0  0  0  0
    8.4035   55.3314   22.5507 H   0  0  0  0  0  0
    8.5436   55.9646   20.3397 H   0  0  0  0  0  0
    5.9494   54.2509   19.9343 H   0  0  0  0  0  0
    7.0592   54.8445   18.6423 H   0  0  0  0  0  0
    6.5930   57.2650   19.3527 H   0  0  0  0  0  0
    5.5055   56.6739   20.6724 H   0  0  0  0  0  0
  1  2  1  0  0  0
  1 26  1  0  0  0
  1 27  1  0  0  0
  1 28  1  0  0  0
  2  7  2  0  0  0
  2  3  1  0  0  0
  3  4  2  0  0  0
  3 29  1  0  0  0
  4  5  1  0  0  0
  4 30  1  0  0  0
  5  6  2  0  0  0
  5 25  1  0  0  0
  6  7  1  0  0  0
  6 31  1  0  0  0
  7  8  1  0  0  0
  8  9  2  0  0  0
  8 10  2  0  0  0
  8 11  1  0  0  0
 11 12  1  0  0  0
 11 32  1  0  0  0
 12 17  2  0  0  0
 12 13  1  0  0  0
 13 14  2  0  0  0
 13 33  1  0  0  0
 14 15  1  0  0  0
 14 34  1  0  0  0
 15 16  2  0  0  0
 15 18  1  0  0  0
 16 17  1  0  0  0
 16 35  1  0  0  0
 17 36  1  0  0  0
 18 19  1  0  0  0
 18 37  1  0  0  0
 19 20  2  0  0  0
 19 21  1  0  0  0
 21 22  1  0  0  0
 21 38  1  0  0  0
 22 24  1  0  0  0
 22 23  1  0  0  0
 22 39  1  0  0  0
 23 24  1  0  0  0
 23 40  1  0  0  0
 23 41  1  0  0  0
 24 42  1  0  0  0
 24 43  1  0  0  0
M  END
> <i_i_glide_confnum>
4

> <i_i_glide_lignum>
4450

> <i_i_glide_posenum>
231

> <i_i_glide_rotatable_bonds>
7

> <i_m_Source_File_Index>
5055

> <b_m_subgroup_collapsed>
0

> <r_i_docking_score>
-5.8779

> <r_i_glide_ecoul>
-7.06425

> <r_i_glide_eff_state_penalty>
0

> <r_i_glide_einternal>
7.92305

> <r_i_glide_emodel>
-59.5474

> <r_i_glide_energy>
-47.5455

> <r_i_glide_erotb>
0.660755

> <r_i_glide_esite>
-0.0175102

> <r_i_glide_evdw>
-40.4812

> <r_i_glide_gscore>
-5.8779

> <r_i_glide_hbond>
-0.598025

> <r_i_glide_ligand_efficiency>
-0.235116

> <r_i_glide_ligand_efficiency_ln>
-1.39324

> <r_i_glide_ligand_efficiency_sa>
-0.687483

> <r_i_glide_lipo>
-2.3251

> <r_i_glide_metal>
0

> <r_i_glide_rewards>
-0.514316

> <s_i_glide_gridfile>
wee1_glide-grid

> <s_m_Source_File>
wee1_decoys_glide_SP.sdf

> <s_m_Source_Path>
/Users/zhangxujun/Desktop

> <s_m_entry_id>
5330

> <s_m_entry_name>
wee1_decoys_glide_SP.5055

> <s_m_subgroup_title>
wee1_decoys_glide_SP

> <s_m_subgroupid>
wee1_decoys_glide_SP


$$$$
