@<TRIPOS>MOLECULE
ZINC39634496_374
70   73    1
SMALL
USER_CHARGES


@<TRIPOS>ATOM
      1 C1          5.3450   54.4035   28.2923 C.3       1 UNK         0.0000 
      2 O2          5.8279   54.3115   26.9579 O.3       1 UNK         0.0000 
      3 C3          4.9315   54.2149   25.9063 C.ar      1 UNK         0.0000 
      4 C4          3.5365   54.1893   26.0671 C.ar      1 UNK         0.0000 
      5 C5          2.6950   54.0966   24.9589 C.ar      1 UNK         0.0000 
      6 C6          3.2184   54.0339   23.6672 C.ar      1 UNK         0.0000 
      7 C7          4.6063   54.0573   23.5058 C.ar      1 UNK         0.0000 
      8 C8          5.4695   54.1248   24.6150 C.ar      1 UNK         0.0000 
      9 O9          6.8485   54.0970   24.5099 O.3       1 UNK         0.0000 
     10 C10         7.4337   53.6616   23.2891 C.3       1 UNK         0.0000 
     11 C11         2.3101   54.0328   22.4332 C.3       1 UNK         0.0000 
     12 C12         1.3689   52.8338   22.2081 C.3       1 UNK         0.0000 
     13 N13         0.4359   52.6688   23.3114 N.am      1 UNK         0.0000 
     14 C14        -0.8949   52.5002   23.2816 C.2       1 UNK         0.0000 
     15 O15        -1.5699   52.4906   22.2522 O.2       1 UNK         0.0000 
     16 C16        -1.5057   52.2725   24.6797 C.3       1 UNK         0.0000 
     17 H17        -1.1872   53.0975   25.3167 H         1 UNK         0.0000 
     18 C18        -3.0496   52.2858   24.6518 C.3       1 UNK         0.0000 
     19 N19        -3.4005   51.4549   25.8159 N.am      1 UNK         0.0000 
     20 C20        -2.2371   50.7247   26.3385 C.3       1 UNK         0.0000 
     21 C21        -1.1386   50.8975   25.2713 C.3       1 UNK         0.0000 
     22 C22         0.3096   50.8775   25.8519 C.3       1 UNK         0.0000 
     23 C23         0.6128   49.5271   26.4815 C.3       1 UNK         0.0000 
     24 N24         0.4932   48.4965   25.3465 N.4       1 UNK         0.0000 
     25 C25        -0.9252   48.3768   24.7752 C.3       1 UNK         0.0000 
     26 C26        -1.2536   49.7508   24.2021 C.3       1 UNK         0.0000 
     27 C27        -4.5822   51.6057   26.4714 C.2       1 UNK         0.0000 
     28 O28        -5.3894   52.4849   26.1613 O.2       1 UNK         0.0000 
     29 C29        -4.9364   50.6632   27.6042 C.ar      1 UNK         0.0000 
     30 C30        -5.5605   51.1625   28.7539 C.ar      1 UNK         0.0000 
     31 C31        -5.9277   50.3046   29.7884 C.ar      1 UNK         0.0000 
     32 C32        -5.6976   48.9286   29.6813 C.ar      1 UNK         0.0000 
     33 C33        -5.0835   48.4249   28.5320 C.ar      1 UNK         0.0000 
     34 C34        -4.7253   49.2811   27.4951 C.ar      1 UNK         0.0000 
     35 C35        -6.1083   47.9820   30.8109 C.3       1 UNK         0.0000 
     36 F36        -6.0956   48.5974   31.9947 F         1 UNK         0.0000 
     37 F37        -7.3453   47.5448   30.5770 F         1 UNK         0.0000 
     38 F38        -5.2985   46.9228   30.8811 F         1 UNK         0.0000 
     39 H39         6.1934   54.4873   28.9720 H         1 UNK         0.0000 
     40 H40         4.7778   53.5140   28.5752 H         1 UNK         0.0000 
     41 H41         4.7229   55.2903   28.4318 H         1 UNK         0.0000 
     42 H42         3.0875   54.2542   27.0451 H         1 UNK         0.0000 
     43 H43         1.6287   54.1193   25.1193 H         1 UNK         0.0000 
     44 H44         5.0084   54.0274   22.5053 H         1 UNK         0.0000 
     45 H45         8.4421   53.2965   23.4753 H         1 UNK         0.0000 
     46 H46         6.8858   52.8140   22.8817 H         1 UNK         0.0000 
     47 H47         7.4824   54.4677   22.5561 H         1 UNK         0.0000 
     48 H48         1.6768   54.9091   22.4818 H         1 UNK         0.0000 
     49 H49         2.9182   54.1687   21.5382 H         1 UNK         0.0000 
     50 H50         0.8846   52.8900   21.2304 H         1 UNK         0.0000 
     51 H51         1.9664   51.9213   22.2015 H         1 UNK         0.0000 
     52 H52         0.8733   52.6294   24.2184 H         1 UNK         0.0000 
     53 H53        -3.4136   53.3145   24.7028 H         1 UNK         0.0000 
     54 H54        -3.3992   51.7476   23.7689 H         1 UNK         0.0000 
     55 H55        -2.3807   49.7013   26.6741 H         1 UNK         0.0000 
     56 H56        -1.9200   51.2639   27.2332 H         1 UNK         0.0000 
     57 H57         1.0911   51.0927   25.1216 H         1 UNK         0.0000 
     58 H58         0.4124   51.6505   26.6162 H         1 UNK         0.0000 
     59 H59         1.6137   49.4142   26.8819 H         1 UNK         0.0000 
     60 H60        -0.0956   49.2965   27.2665 H         1 UNK         0.0000 
     61 H61         1.1622   48.7123   24.6177 H         1 UNK         0.0000 
     62 H62        -0.8897   47.6017   24.0086 H         1 UNK         0.0000 
     63 H63        -1.5724   48.0507   25.5910 H         1 UNK         0.0000 
     64 H64        -2.2606   49.7194   23.7822 H         1 UNK         0.0000 
     65 H65        -0.6002   49.9180   23.3453 H         1 UNK         0.0000 
     66 H66        -5.7687   52.2183   28.8498 H         1 UNK         0.0000 
     67 H67        -6.4046   50.7105   30.6700 H         1 UNK         0.0000 
     68 H68        -4.8931   47.3666   28.4296 H         1 UNK         0.0000 
     69 H69        -4.2983   48.8497   26.6020 H         1 UNK         0.0000 
     70 H70         0.7577   47.5762   25.6820 H         1 UNK         0.0000 
@<TRIPOS>BOND
     1    1    2 1    
     2    1   39 1    
     3    1   40 1    
     4    1   41 1    
     5    2    3 1    
     6    3    8 ar   
     7    3    4 ar   
     8    4    5 ar   
     9    4   42 1    
    10    5    6 ar   
    11    5   43 1    
    12    6    7 ar   
    13    6   11 1    
    14    7    8 ar   
    15    7   44 1    
    16    8    9 1    
    17    9   10 1    
    18   10   45 1    
    19   10   46 1    
    20   10   47 1    
    21   11   12 1    
    22   11   48 1    
    23   11   49 1    
    24   12   13 1    
    25   12   50 1    
    26   12   51 1    
    27   13   14 am   BACKBONE|DICT|INTERRES
    28   13   52 1    
    29   14   15 2    
    30   14   16 1    
    31   16   17 1    
    32   16   21 1    
    33   16   18 1    
    34   18   19 1    
    35   18   53 1    
    36   18   54 1    
    37   19   20 1    
    38   19   27 am   BACKBONE|DICT|INTERRES
    39   20   21 1    
    40   20   55 1    
    41   20   56 1    
    42   21   26 1    
    43   21   22 1    
    44   22   23 1    
    45   22   57 1    
    46   22   58 1    
    47   23   24 1    
    48   23   59 1    
    49   23   60 1    
    50   24   25 1    
    51   24   61 1    
    52   24   70 1    
    53   25   26 1    
    54   25   62 1    
    55   25   63 1    
    56   26   64 1    
    57   26   65 1    
    58   27   28 2    
    59   27   29 1    
    60   29   34 ar   
    61   29   30 ar   
    62   30   31 ar   
    63   30   66 1    
    64   31   32 ar   
    65   31   67 1    
    66   32   33 ar   
    67   32   35 1    
    68   33   34 ar   
    69   33   68 1    
    70   34   69 1    
    71   35   36 1    
    72   35   37 1    
    73   35   38 1    
@<TRIPOS>SUBSTRUCTURE
     1 UNK         1 GROUP             0       ****    0 ROOT    
