@<TRIPOS>MOLECULE
ZINC00070915_6132
37   39    1
SMALL
USER_CHARGES


@<TRIPOS>ATOM
      1 C1          7.1462   53.8940   27.9411 C.3       1 UNK         0.0000 
      2 C2          5.6431   53.7973   27.8119 C.ar      1 UNK         0.0000 
      3 C3          4.9880   54.4806   26.7903 C.ar      1 UNK         0.0000 
      4 C4          3.6087   54.3645   26.6623 C.ar      1 UNK         0.0000 
      5 C5          2.8745   53.5687   27.5517 C.ar      1 UNK         0.0000 
      6 C6          3.5425   52.8980   28.5813 C.ar      1 UNK         0.0000 
      7 C7          4.9185   53.0213   28.7134 C.ar      1 UNK         0.0000 
      8 C8          1.3522   53.4402   27.3998 C.3       1 UNK         0.0000 
      9 H9          1.1046   54.4347   27.0353 H         1 UNK         0.0000 
     10 C10         0.5997   53.2220   28.7251 C.2       1 UNK         0.0000 
     11 C11        -0.0503   52.0657   28.9683 C.2       1 UNK         0.0000 
     12 O12        -0.1479   51.0668   28.0643 O.3       1 UNK         0.0000 
     13 C13         0.2274   51.2673   26.7772 C.2       1 UNK         0.0000 
     14 C14         0.9129   52.3688   26.3653 C.2       1 UNK         0.0000 
     15 C15         1.2017   52.5694   24.9304 C.2       1 UNK         0.0000 
     16 O16         1.4866   53.6703   24.4619 O.2       1 UNK         0.0000 
     17 C17         0.9799   51.3617   24.0041 C.3       1 UNK         0.0000 
     18 C18        -0.2541   50.5337   24.4144 C.3       1 UNK         0.0000 
     19 C19        -0.2171   50.1064   25.8954 C.3       1 UNK         0.0000 
     20 N20        -0.7576   51.6968   30.0817 N.pl3     1 UNK         0.0000 
     21 C21         0.6532   54.2497   29.7088 C.1       1 UNK         0.0000 
     22 N22         0.7079   55.1040   30.4841 N.1       1 UNK         0.0000 
     23 H23         7.4753   53.7141   28.9654 H         1 UNK         0.0000 
     24 H24         7.4980   54.8890   27.6697 H         1 UNK         0.0000 
     25 H25         7.6151   53.1634   27.2833 H         1 UNK         0.0000 
     26 H26         5.5421   55.0898   26.0915 H         1 UNK         0.0000 
     27 H27         3.1174   54.8979   25.8640 H         1 UNK         0.0000 
     28 H28         3.0038   52.2714   29.2758 H         1 UNK         0.0000 
     29 H29         5.4214   52.4975   29.5075 H         1 UNK         0.0000 
     30 H30         1.8727   50.7409   24.0825 H         1 UNK         0.0000 
     31 H31         0.9277   51.7019   22.9697 H         1 UNK         0.0000 
     32 H32        -0.3404   49.6514   23.7788 H         1 UNK         0.0000 
     33 H33        -1.1548   51.1236   24.2313 H         1 UNK         0.0000 
     34 H34         0.4153   49.2362   26.0790 H         1 UNK         0.0000 
     35 H35        -1.2194   49.7849   26.1849 H         1 UNK         0.0000 
     36 H36        -0.6957   52.1881   30.9646 H         1 UNK         0.0000 
     37 H37        -1.2959   50.8378   30.0771 H         1 UNK         0.0000 
@<TRIPOS>BOND
     1    1    2 1    
     2    1   23 1    
     3    1   24 1    
     4    1   25 1    
     5    2    7 ar   
     6    2    3 ar   
     7    3    4 ar   
     8    3   26 1    
     9    4    5 ar   
    10    4   27 1    
    11    5    6 ar   
    12    5    8 1    
    13    6    7 ar   
    14    6   28 1    
    15    7   29 1    
    16    8    9 1    
    17    8   14 1    
    18    8   10 1    
    19   10   11 2    
    20   10   21 1    
    21   11   12 1    
    22   11   20 1    
    23   12   13 1    
    24   13   19 1    
    25   13   14 2    
    26   14   15 1    
    27   15   16 2    
    28   15   17 1    
    29   17   18 1    
    30   17   30 1    
    31   17   31 1    
    32   18   19 1    
    33   18   32 1    
    34   18   33 1    
    35   19   34 1    
    36   19   35 1    
    37   20   36 1    
    38   20   37 1    
    39   21   22 3    
@<TRIPOS>SUBSTRUCTURE
     1 UNK         1 GROUP             0       ****    0 ROOT    
