@<TRIPOS>MOLECULE
ZINC09390366_2745
42   44    1
SMALL
USER_CHARGES


@<TRIPOS>ATOM
      1 C1          2.5299   53.2794   22.8680 C.ar      1 UNK         0.0000 
      2 C2          3.1031   53.2967   21.6009 C.ar      1 UNK         0.0000 
      3 C3          4.4026   53.7636   21.4313 C.ar      1 UNK         0.0000 
      4 C4          5.1486   54.1960   22.5283 C.ar      1 UNK         0.0000 
      5 C5          4.5953   54.1362   23.8260 C.ar      1 UNK         0.0000 
      6 C6          3.2708   53.6964   23.9715 C.ar      1 UNK         0.0000 
      7 C7          5.3294   54.5257   25.0742 C.2       1 UNK         0.0000 
      8 N8          6.4352   55.2204   25.1982 N.2       1 UNK         0.0000 
      9 N9          6.7045   55.2967   26.5564 N.2       1 UNK         0.0000 
     10 C10         5.7550   54.6255   27.1501 C.2       1 UNK         0.0000 
     11 O11         4.8377   54.1320   26.2813 O.3       1 UNK         0.0000 
     12 S12         5.5041   54.4467   28.8817 S.3       1 UNK         0.0000 
     13 C13         4.4564   52.9557   28.9241 C.3       1 UNK         0.0000 
     14 C14         2.9662   53.2739   29.0598 C.2       1 UNK         0.0000 
     15 O15         2.6063   54.1012   29.9021 O.2       1 UNK         0.0000 
     16 N16         2.1455   52.5651   28.2528 N.am      1 UNK         0.0000 
     17 C17         0.8194   52.7394   28.0780 C.2       1 UNK         0.0000 
     18 O18         0.1569   53.6977   28.4820 O.2       1 UNK         0.0000 
     19 N19         0.2909   51.7412   27.3531 N.am      1 UNK         0.0000 
     20 C20        -0.8637   51.8855   26.4663 C.3       1 UNK         0.0000 
     21 C21        -0.4486   52.2295   25.0264 C.3       1 UNK         0.0000 
     22 C22        -1.5482   51.6657   24.1139 C.3       1 UNK         0.0000 
     23 C23        -2.3721   50.6947   24.9748 C.3       1 UNK         0.0000 
     24 C24        -1.6223   50.5649   26.3045 C.3       1 UNK         0.0000 
     25 Br25        6.8898   54.8967   22.1680 Br        1 UNK         0.0000 
     26 H26         1.5128   52.9397   22.9903 H         1 UNK         0.0000 
     27 H27         2.5298   52.9774   20.7420 H         1 UNK         0.0000 
     28 H28         4.8269   53.8039   20.4382 H         1 UNK         0.0000 
     29 H29         2.8051   53.6617   24.9462 H         1 UNK         0.0000 
     30 H30         4.7266   52.3786   29.8073 H         1 UNK         0.0000 
     31 H31         4.6721   52.3206   28.0664 H         1 UNK         0.0000 
     32 H32         2.5742   51.8363   27.7061 H         1 UNK         0.0000 
     33 H33         0.7571   50.8469   27.3241 H         1 UNK         0.0000 
     34 H34        -1.5751   52.6424   26.8093 H         1 UNK         0.0000 
     35 H35         0.4972   51.7386   24.7878 H         1 UNK         0.0000 
     36 H36        -0.2725   53.2963   24.8819 H         1 UNK         0.0000 
     37 H37        -1.1142   51.1599   23.2497 H         1 UNK         0.0000 
     38 H38        -2.1825   52.4673   23.7314 H         1 UNK         0.0000 
     39 H39        -2.5043   49.7255   24.4917 H         1 UNK         0.0000 
     40 H40        -3.3681   51.1046   25.1501 H         1 UNK         0.0000 
     41 H41        -2.2761   50.3588   27.1539 H         1 UNK         0.0000 
     42 H42        -0.9272   49.7231   26.2600 H         1 UNK         0.0000 
@<TRIPOS>BOND
     1    1    6 ar   
     2    1    2 ar   
     3    1   26 1    
     4    2    3 ar   
     5    2   27 1    
     6    3    4 ar   
     7    3   28 1    
     8    4    5 ar   
     9    4   25 1    
    10    5    6 ar   
    11    5    7 1    
    12    6   29 1    
    13    7   11 1    
    14    7    8 2    
    15    8    9 1    
    16    9   10 2    
    17   10   11 1    
    18   10   12 1    
    19   12   13 1    
    20   13   14 1    
    21   13   30 1    
    22   13   31 1    
    23   14   15 2    
    24   14   16 am   BACKBONE|DICT|INTERRES
    25   16   17 am   BACKBONE|DICT|INTERRES
    26   16   32 1    
    27   17   18 2    
    28   17   19 am   BACKBONE|DICT|INTERRES
    29   19   20 1    
    30   19   33 1    
    31   20   24 1    
    32   20   21 1    
    33   20   34 1    
    34   21   22 1    
    35   21   35 1    
    36   21   36 1    
    37   22   23 1    
    38   22   37 1    
    39   22   38 1    
    40   23   24 1    
    41   23   39 1    
    42   23   40 1    
    43   24   41 1    
    44   24   42 1    
@<TRIPOS>SUBSTRUCTURE
     1 UNK         1 GROUP             0       ****    0 ROOT    
