ZINC22824109_6114
                    3D
 Schrodinger Suite 2024-2.
 51 54  0  0  1  0            999 V2000
   10.2921   55.1662   15.0913 C   0  0  0  0  0  0
   10.0342   53.6828   14.9115 C   0  0  0  0  0  0
   10.6487   52.9183   13.9047 C   0  0  0  0  0  0
   10.2698   51.5863   13.8859 C   0  0  0  0  0  0
    9.1049   51.2399   15.1086 S   0  0  0  0  0  0
    9.1320   52.8945   15.6547 C   0  0  0  0  0  0
    8.2706   53.2520   16.7855 C   0  0  0  0  0  0
    8.2976   54.4006   17.3308 N   0  0  0  0  0  0
    7.4749   54.4819   18.3932 N   0  0  0  0  0  0
    7.4591   55.5308   19.2451 C   0  0  0  0  0  0
    8.0639   56.5943   19.0874 O   0  0  0  0  0  0
    6.7533   55.2486   20.4681 C   0  0  0  0  0  0
    7.1502   55.6934   21.7333 C   0  0  0  0  0  0
    6.3328   55.0564   22.6426 C   0  0  0  0  0  0
    5.4039   54.3577   21.8818 N   0  0  0  0  0  0
    5.6727   54.4981   20.5706 N   0  0  0  0  0  0
    4.4499   53.3574   22.4056 C   0  0  1  0  0  0
    5.0204   52.4289   22.4439 H   0  0  0  0  0  0
    4.1601   53.8011   23.8510 C   0  0  0  0  0  0
    5.4308   54.0966   24.6802 C   0  0  1  0  0  0
    6.0396   53.1984   24.6781 H   0  0  0  0  0  0
    6.2914   55.0886   24.0282 N   0  0  0  0  0  0
    5.1458   54.2831   26.1745 C   0  0  0  0  0  0
    6.1805   54.1020   27.0983 C   0  0  0  0  0  0
    5.9048   54.0967   28.4633 C   0  0  0  0  0  0
    4.5950   54.2717   28.9051 C   0  0  0  0  0  0
    3.5667   54.4954   28.0025 C   0  0  0  0  0  0
    3.8409   54.4991   26.6430 C   0  0  0  0  0  0
    4.3007   54.2053   30.2203 F   0  0  0  0  0  0
    3.1309   53.0645   21.6011 C   0  0  0  0  0  0
    2.6072   51.6092   21.7137 C   0  0  0  0  0  0
    2.3041   51.2738   22.9670 F   0  0  0  0  0  0
    1.4985   51.4308   20.9926 F   0  0  0  0  0  0
    3.5045   50.7267   21.2810 F   0  0  0  0  0  0
    2.1607   53.8461   22.0818 F   0  0  0  0  0  0
    3.2634   53.3170   20.2984 F   0  0  0  0  0  0
    9.3614   55.7237   15.1968 H   0  0  0  0  0  0
   10.8627   55.3625   15.9983 H   0  0  0  0  0  0
   10.8197   55.6104   14.2468 H   0  0  0  0  0  0
   11.3659   53.3296   13.2103 H   0  0  0  0  0  0
   10.6172   50.8055   13.2215 H   0  0  0  0  0  0
    7.6277   52.4329   17.1070 H   0  0  0  0  0  0
    6.9256   53.6567   18.5838 H   0  0  0  0  0  0
    7.9974   56.3222   21.9676 H   0  0  0  0  0  0
    3.5213   54.6869   23.8408 H   0  0  0  0  0  0
    3.5548   53.0373   24.3416 H   0  0  0  0  0  0
    7.1677   55.2038   24.5153 H   0  0  0  0  0  0
    7.1897   53.9155   26.7627 H   0  0  0  0  0  0
    6.7040   53.9437   29.1731 H   0  0  0  0  0  0
    2.5563   54.6363   28.3558 H   0  0  0  0  0  0
    3.0096   54.6414   25.9720 H   0  0  0  0  0  0
  1  2  1  0  0  0
  1 37  1  0  0  0
  1 38  1  0  0  0
  1 39  1  0  0  0
  2  6  2  0  0  0
  2  3  1  0  0  0
  3  4  2  0  0  0
  3 40  1  0  0  0
  4  5  1  0  0  0
  4 41  1  0  0  0
  5  6  1  0  0  0
  6  7  1  0  0  0
  7  8  2  0  0  0
  7 42  1  0  0  0
  8  9  1  0  0  0
  9 10  1  0  0  0
  9 43  1  0  0  0
 10 11  2  0  0  0
 10 12  1  0  0  0
 12 16  2  0  0  0
 12 13  1  0  0  0
 13 14  2  0  0  0
 13 44  1  0  0  0
 14 22  1  0  0  0
 14 15  1  0  0  0
 15 16  1  0  0  0
 15 17  1  0  0  0
 17 18  1  0  0  0
 17 19  1  0  0  0
 17 30  1  0  0  0
 19 20  1  0  0  0
 19 45  1  0  0  0
 19 46  1  0  0  0
 20 21  1  0  0  0
 20 22  1  0  0  0
 20 23  1  0  0  0
 22 47  1  0  0  0
 23 28  2  0  0  0
 23 24  1  0  0  0
 24 25  2  0  0  0
 24 48  1  0  0  0
 25 26  1  0  0  0
 25 49  1  0  0  0
 26 27  2  0  0  0
 26 29  1  0  0  0
 27 28  1  0  0  0
 27 50  1  0  0  0
 28 51  1  0  0  0
 30 31  1  0  0  0
 30 35  1  0  0  0
 30 36  1  0  0  0
 31 32  1  0  0  0
 31 33  1  0  0  0
 31 34  1  0  0  0
M  END
> <i_i_glide_confnum>
9

> <i_i_glide_lignum>
6115

> <i_i_glide_posenum>
96

> <i_i_glide_rotatable_bonds>
7

> <i_m_Source_File_Index>
1023

> <b_m_subgroup_collapsed>
0

> <r_i_docking_score>
-5.23208

> <r_i_glide_ecoul>
-0.782604

> <r_i_glide_eff_state_penalty>
0

> <r_i_glide_einternal>
11.1521

> <r_i_glide_emodel>
-47.29

> <r_i_glide_energy>
-37.6879

> <r_i_glide_erotb>
0.487407

> <r_i_glide_esite>
-0.085501

> <r_i_glide_evdw>
-36.9053

> <r_i_glide_gscore>
-5.23208

> <r_i_glide_hbond>
0

> <r_i_glide_ligand_efficiency>
-0.153885

> <r_i_glide_ligand_efficiency_ln>
-1.15591

> <r_i_glide_ligand_efficiency_sa>
-0.498527

> <r_i_glide_lipo>
-2.99137

> <r_i_glide_metal>
0

> <r_i_glide_rewards>
-0.679964

> <s_i_glide_gridfile>
wee1_glide-grid

> <s_m_Source_File>
wee1_decoys_glide_SP.sdf

> <s_m_Source_Path>
/Users/zhangxujun/Desktop

> <s_m_entry_id>
1298

> <s_m_entry_name>
wee1_decoys_glide_SP.1023

> <s_m_subgroup_title>
wee1_decoys_glide_SP

> <s_m_subgroupid>
wee1_decoys_glide_SP


$$$$
