ZINC22338394_4028
                    3D
 Schrodinger Suite 2024-2.
 57 59  0  0  1  0            999 V2000
    3.0261   54.6557   28.1640 C   0  0  0  0  0  0
    3.2859   54.3819   26.6949 C   0  0  0  0  0  0
    2.3902   53.6219   25.9431 C   0  0  0  0  0  0
    2.6528   53.3498   24.5998 C   0  0  0  0  0  0
    3.8056   53.8417   23.9706 C   0  0  0  0  0  0
    4.6714   54.6497   24.7334 C   0  0  0  0  0  0
    4.4264   54.8963   26.0817 C   0  0  0  0  0  0
    5.7777   55.2966   24.1987 O   0  0  0  0  0  0
    6.3820   54.7015   23.0453 C   0  0  0  0  0  0
    5.2747   54.3755   22.0047 C   0  0  0  0  0  0
    4.2178   53.4222   22.5564 C   0  0  2  0  0  0
    4.7683   52.4968   22.7029 H   0  0  0  0  0  0
    3.1215   53.1345   21.6252 N   0  0  0  0  0  0
    2.8559   51.9308   21.0905 C   0  0  0  0  0  0
    3.5672   50.9435   21.2816 O   0  0  0  0  0  0
    1.5930   51.8156   20.2210 C   0  0  0  0  0  0
    0.7971   50.6830   20.6747 N   0  0  0  0  0  0
    0.8074   49.4432   19.9671 C   0  0  0  0  0  0
    1.8720   49.1091   19.1120 C   0  0  0  0  0  0
    1.8964   47.9053   18.4135 C   0  0  0  0  0  0
    0.8607   46.9872   18.5531 C   0  0  0  0  0  0
   -0.2139   47.2708   19.4108 C   0  0  0  0  0  0
   -0.2203   48.4924   20.1016 C   0  0  0  0  0  0
   -1.3642   46.2740   19.5986 C   0  0  0  0  0  0
   -2.2788   46.7015   20.4713 F   0  0  0  0  0  0
   -0.8950   45.1091   20.0476 F   0  0  0  0  0  0
   -1.9778   46.0649   18.4347 F   0  0  0  0  0  0
    0.9437   45.5176   17.6446 Cl  0  0  0  0  0  0
   -0.4006   51.0409   21.9769 S   0  0  0  0  0  0
   -0.0710   52.3531   22.5418 O   0  0  0  0  0  0
   -1.7447   50.8008   21.4396 O   0  0  0  0  0  0
    0.0035   49.7460   23.2837 C   0  0  0  0  0  0
    7.1461   53.5070   23.6220 C   0  0  0  0  0  0
    7.3057   55.7276   22.3974 C   0  0  0  0  0  0
    2.2547   53.9995   28.5697 H   0  0  0  0  0  0
    3.9367   54.4840   28.7428 H   0  0  0  0  0  0
    2.7240   55.6945   28.3133 H   0  0  0  0  0  0
    1.5006   53.2127   26.4007 H   0  0  0  0  0  0
    1.9718   52.7148   24.0560 H   0  0  0  0  0  0
    5.1247   55.4945   26.6456 H   0  0  0  0  0  0
    5.7087   53.9631   21.0925 H   0  0  0  0  0  0
    4.7674   55.2942   21.7081 H   0  0  0  0  0  0
    2.4973   53.9029   21.4136 H   0  0  0  0  0  0
    1.9706   51.7395   19.2017 H   0  0  0  0  0  0
    1.0406   52.7563   20.2550 H   0  0  0  0  0  0
    2.7235   49.7612   18.9758 H   0  0  0  0  0  0
    2.7292   47.6964   17.7550 H   0  0  0  0  0  0
   -1.0590   48.6868   20.7445 H   0  0  0  0  0  0
   -0.6227   49.9279   24.1559 H   0  0  0  0  0  0
   -0.1871   48.7498   22.8941 H   0  0  0  0  0  0
    1.0551   49.8398   23.5541 H   0  0  0  0  0  0
    7.6406   52.8967   22.8819 H   0  0  0  0  0  0
    7.9043   53.8410   24.3262 H   0  0  0  0  0  0
    6.4639   52.8967   24.1895 H   0  0  0  0  0  0
    7.9877   55.2628   21.6843 H   0  0  0  0  0  0
    6.7513   56.4967   21.8691 H   0  0  0  0  0  0
    7.9044   56.2077   23.1617 H   0  0  0  0  0  0
  1  2  1  0  0  0
  1 35  1  0  0  0
  1 36  1  0  0  0
  1 37  1  0  0  0
  2  7  2  0  0  0
  2  3  1  0  0  0
  3  4  2  0  0  0
  3 38  1  0  0  0
  4  5  1  0  0  0
  4 39  1  0  0  0
  5 11  1  0  0  0
  5  6  2  0  0  0
  6  7  1  0  0  0
  6  8  1  0  0  0
  7 40  1  0  0  0
  8  9  1  0  0  0
  9 10  1  0  0  0
  9 33  1  0  0  0
  9 34  1  0  0  0
 10 11  1  0  0  0
 10 41  1  0  0  0
 10 42  1  0  0  0
 11 12  1  0  0  0
 11 13  1  0  0  0
 13 14  1  0  0  0
 13 43  1  0  0  0
 14 15  2  0  0  0
 14 16  1  0  0  0
 16 17  1  0  0  0
 16 44  1  0  0  0
 16 45  1  0  0  0
 17 18  1  0  0  0
 17 29  1  0  0  0
 18 23  2  0  0  0
 18 19  1  0  0  0
 19 20  2  0  0  0
 19 46  1  0  0  0
 20 21  1  0  0  0
 20 47  1  0  0  0
 21 22  2  0  0  0
 21 28  1  0  0  0
 22 23  1  0  0  0
 22 24  1  0  0  0
 23 48  1  0  0  0
 24 25  1  0  0  0
 24 26  1  0  0  0
 24 27  1  0  0  0
 29 30  2  0  0  0
 29 31  2  0  0  0
 29 32  1  0  0  0
 32 49  1  0  0  0
 32 50  1  0  0  0
 32 51  1  0  0  0
 33 52  1  0  0  0
 33 53  1  0  0  0
 33 54  1  0  0  0
 34 55  1  0  0  0
 34 56  1  0  0  0
 34 57  1  0  0  0
M  END
> <i_i_glide_confnum>
14

> <i_i_glide_lignum>
4029

> <i_i_glide_posenum>
288

> <i_i_glide_rotatable_bonds>
7

> <i_m_Source_File_Index>
5924

> <b_m_subgroup_collapsed>
0

> <r_i_docking_score>
-4.41742

> <r_i_glide_ecoul>
-4.64677

> <r_i_glide_eff_state_penalty>
0

> <r_i_glide_einternal>
6.50771

> <r_i_glide_emodel>
-41.8964

> <r_i_glide_energy>
-33.4133

> <r_i_glide_erotb>
0.401021

> <r_i_glide_esite>
-0.00932021

> <r_i_glide_evdw>
-28.7666

> <r_i_glide_gscore>
-4.41742

> <r_i_glide_hbond>
-0.216373

> <r_i_glide_ligand_efficiency>
-0.133861

> <r_i_glide_ligand_efficiency_ln>
-0.982412

> <r_i_glide_ligand_efficiency_sa>
-0.429365

> <r_i_glide_lipo>
-2.31315

> <r_i_glide_metal>
0

> <r_i_glide_rewards>
-0.144259

> <s_i_glide_gridfile>
wee1_glide-grid

> <s_m_Source_File>
wee1_decoys_glide_SP.sdf

> <s_m_Source_Path>
/Users/zhangxujun/Desktop

> <s_m_entry_id>
6199

> <s_m_entry_name>
wee1_decoys_glide_SP.5924

> <s_m_subgroup_title>
wee1_decoys_glide_SP

> <s_m_subgroupid>
wee1_decoys_glide_SP


$$$$
