@<TRIPOS>MOLECULE
ZINC01252105_962
52   56    1
SMALL
USER_CHARGES


@<TRIPOS>ATOM
      1 C1          5.2437   54.1726   20.6626 C.3       1 UNK         0.0000 
      2 O2          4.6116   52.9301   20.9460 O.3       1 UNK         0.0000 
      3 C3          3.4577   52.9238   21.7090 C.ar      1 UNK         0.0000 
      4 C4          3.0727   53.9951   22.5253 C.ar      1 UNK         0.0000 
      5 C5          1.9256   53.9131   23.3055 C.ar      1 UNK         0.0000 
      6 C6          1.1256   52.7665   23.2904 C.ar      1 UNK         0.0000 
      7 C7          1.4740   51.6927   22.4383 C.ar      1 UNK         0.0000 
      8 C8          2.6526   51.7746   21.6671 C.ar      1 UNK         0.0000 
      9 O9          3.0629   50.7104   20.8934 O.3       1 UNK         0.0000 
     10 C10         2.7028   50.7979   19.5205 C.3       1 UNK         0.0000 
     11 C11         0.6135   50.4767   22.3387 C.2       1 UNK         0.0000 
     12 O12        -0.4193   50.5695   21.6366 O.co2     1 UNK         0.0000 
     13 C13        -0.0470   52.7040   24.3093 C.3       1 UNK         0.0000 
     14 H14        -0.1048   53.6969   24.7491 H         1 UNK         0.0000 
     15 N15         0.1524   51.7466   25.3998 N.pl3     1 UNK         0.0000 
     16 C16        -1.0067   51.2907   26.1574 C.3       1 UNK         0.0000 
     17 H17        -1.1224   50.2271   25.9362 H         1 UNK         0.0000 
     18 C18        -0.5842   51.4548   27.6151 C.3       1 UNK         0.0000 
     19 C19         0.8251   51.9935   27.4895 C.2       1 UNK         0.0000 
     20 N20         1.1485   52.1960   26.2789 N.2       1 UNK         0.0000 
     21 C21         1.6987   52.2419   28.6474 C.ar      1 UNK         0.0000 
     22 C22         3.0693   52.4965   28.4850 C.ar      1 UNK         0.0000 
     23 C23         3.8745   52.6108   29.6175 C.ar      1 UNK         0.0000 
     24 C24         3.2964   52.4964   30.8814 C.ar      1 UNK         0.0000 
     25 C25         1.9160   52.2999   30.9693 C.ar      1 UNK         0.0000 
     26 N26         1.1213   52.1662   29.8773 N.ar      1 UNK         0.0000 
     27 C27        -2.3088   51.9726   25.7453 C.ar      1 UNK         0.0000 
     28 C28        -3.4721   51.9366   26.5241 C.ar      1 UNK         0.0000 
     29 C29        -4.6400   52.5702   26.0978 C.ar      1 UNK         0.0000 
     30 C30        -4.6589   53.2507   24.8821 C.ar      1 UNK         0.0000 
     31 C31        -3.5180   53.2709   24.0818 C.ar      1 UNK         0.0000 
     32 C32        -2.3628   52.6172   24.4999 C.ar      1 UNK         0.0000 
     33 O33        -1.2804   52.6396   23.6399 O.3       1 UNK         0.0000 
     34 Br34       -6.2093   52.4977   27.1713 Br        1 UNK         0.0000 
     35 H35         6.0293   54.0177   19.9239 H         1 UNK         0.0000 
     36 H36         4.5398   54.8937   20.2452 H         1 UNK         0.0000 
     37 H37         5.7071   54.5969   21.5541 H         1 UNK         0.0000 
     38 H38         3.6657   54.8945   22.5849 H         1 UNK         0.0000 
     39 H39         1.6823   54.7437   23.9520 H         1 UNK         0.0000 
     40 H40         3.0508   49.9058   18.9991 H         1 UNK         0.0000 
     41 H41         3.1594   51.6625   19.0367 H         1 UNK         0.0000 
     42 H42         1.6210   50.8580   19.3935 H         1 UNK         0.0000 
     43 H43        -1.2045   52.1680   28.1576 H         1 UNK         0.0000 
     44 H44        -0.5926   50.4971   28.1326 H         1 UNK         0.0000 
     45 H45         3.5176   52.5546   27.5031 H         1 UNK         0.0000 
     46 H46         4.9376   52.7675   29.5071 H         1 UNK         0.0000 
     47 H47         3.9041   52.5603   31.7729 H         1 UNK         0.0000 
     48 H48         1.4242   52.2165   31.9295 H         1 UNK         0.0000 
     49 H49        -3.4701   51.4082   27.4670 H         1 UNK         0.0000 
     50 H50        -5.5613   53.7424   24.5495 H         1 UNK         0.0000 
     51 H51        -3.5253   53.7847   23.1359 H         1 UNK         0.0000 
     52 O52         0.9827   49.4548   22.9575 O.co2     1 UNK         0.0000 
@<TRIPOS>BOND
     1    1    2 1    
     2    1   35 1    
     3    1   36 1    
     4    1   37 1    
     5    2    3 1    
     6    3    8 ar   
     7    3    4 ar   
     8    4    5 ar   
     9    4   38 1    
    10    5    6 ar   
    11    5   39 1    
    12    6    7 ar   
    13    6   13 1    
    14    7    8 ar   
    15    7   11 1    
    16    8    9 1    
    17    9   10 1    
    18   10   40 1    
    19   10   41 1    
    20   10   42 1    
    21   11   12 2    
    22   11   52 1    
    23   13   14 1    
    24   13   33 1    
    25   13   15 1    
    26   15   20 1    
    27   15   16 1    
    28   16   17 1    
    29   16   18 1    
    30   16   27 1    
    31   18   19 1    
    32   18   43 1    
    33   18   44 1    
    34   19   20 2    
    35   19   21 1    
    36   21   26 ar   
    37   21   22 ar   
    38   22   23 ar   
    39   22   45 1    
    40   23   24 ar   
    41   23   46 1    
    42   24   25 ar   
    43   24   47 1    
    44   25   26 ar   
    45   25   48 1    
    46   27   32 ar   
    47   27   28 ar   
    48   28   29 ar   
    49   28   49 1    
    50   29   30 ar   
    51   29   34 1    
    52   30   31 ar   
    53   30   50 1    
    54   31   32 ar   
    55   31   51 1    
    56   32   33 1    
@<TRIPOS>SUBSTRUCTURE
     1 UNK         1 GROUP             0       ****    0 ROOT    
