ZINC09237767_2034
                    3D
 Schrodinger Suite 2024-2.
 49 52  0  0  1  0            999 V2000
    3.4496   53.9966   23.5908 C   0  0  0  0  0  0
    3.4481   53.3013   22.2364 C   0  0  0  0  0  0
    4.5392   53.4857   21.3815 C   0  0  0  0  0  0
    4.5597   52.8905   20.1201 C   0  0  0  0  0  0
    3.4856   52.1079   19.7000 C   0  0  0  0  0  0
    2.3939   51.9106   20.5430 C   0  0  0  0  0  0
    2.3740   52.4942   21.8140 C   0  0  0  0  0  0
    1.2509   52.2842   22.6209 N   0  0  0  0  0  0
    1.0703   51.2028   23.4085 C   0  0  0  0  0  0
    1.9038   50.3012   23.4929 O   0  0  0  0  0  0
   -0.2465   51.0679   24.2214 C   0  0  1  0  0  0
   -0.7147   50.2587   23.6583 H   0  0  0  0  0  0
   -0.0584   50.6058   25.7137 C   0  0  2  0  0  0
    0.6618   49.7852   25.7370 H   0  0  0  0  0  0
   -1.3543   50.0206   26.0818 N   0  0  0  0  0  0
   -2.3716   50.9853   26.1077 N   0  0  0  0  0  0
   -3.4366   51.0626   26.9752 C   0  0  0  0  0  0
   -4.1866   52.0973   26.6898 N   0  0  0  0  0  0
   -3.6001   52.7485   25.6073 N   0  0  0  0  0  0
   -2.5234   52.0789   25.2778 C   0  0  0  0  0  0
   -1.3815   52.5040   23.9933 S   0  0  0  0  0  0
   -3.6951   50.0959   28.1101 C   0  0  0  0  0  0
    0.4857   51.6454   26.7334 C   0  0  0  0  0  0
    1.2540   52.7479   26.3401 C   0  0  0  0  0  0
    1.7354   53.6674   27.2696 C   0  0  0  0  0  0
    1.4520   53.5214   28.6356 C   0  0  0  0  0  0
    0.7040   52.4104   29.0401 C   0  0  0  0  0  0
    0.2386   51.4845   28.1045 C   0  0  0  0  0  0
    0.2880   52.1511   30.8803 Br  0  0  0  0  0  0
    1.8571   54.4197   29.6074 O   0  0  0  0  0  0
    2.4990   55.6262   29.2072 C   0  0  0  0  0  0
    2.5159   54.5432   23.7378 H   0  0  0  0  0  0
    3.5369   53.2562   24.3872 H   0  0  0  0  0  0
    4.2694   54.7112   23.6881 H   0  0  0  0  0  0
    5.3754   54.0980   21.6867 H   0  0  0  0  0  0
    5.4026   53.0321   19.4602 H   0  0  0  0  0  0
    3.5026   51.6459   18.7204 H   0  0  0  0  0  0
    1.5681   51.3006   20.2051 H   0  0  0  0  0  0
    0.5231   52.9797   22.5828 H   0  0  0  0  0  0
   -1.3087   49.5524   26.9894 H   0  0  0  0  0  0
   -4.6481   50.2827   28.6052 H   0  0  0  0  0  0
   -3.7115   49.0609   27.7672 H   0  0  0  0  0  0
   -2.9227   50.1564   28.8770 H   0  0  0  0  0  0
    1.4807   52.9265   25.3050 H   0  0  0  0  0  0
    2.3241   54.4952   26.9047 H   0  0  0  0  0  0
   -0.3364   50.6408   28.4576 H   0  0  0  0  0  0
    2.6619   56.2526   30.0806 H   0  0  0  0  0  0
    3.4694   55.4258   28.7509 H   0  0  0  0  0  0
    1.8832   56.1996   28.5115 H   0  0  0  0  0  0
  1  2  1  0  0  0
  1 32  1  0  0  0
  1 33  1  0  0  0
  1 34  1  0  0  0
  2  7  2  0  0  0
  2  3  1  0  0  0
  3  4  2  0  0  0
  3 35  1  0  0  0
  4  5  1  0  0  0
  4 36  1  0  0  0
  5  6  2  0  0  0
  5 37  1  0  0  0
  6  7  1  0  0  0
  6 38  1  0  0  0
  7  8  1  0  0  0
  8  9  1  0  0  0
  8 39  1  0  0  0
  9 10  2  0  0  0
  9 11  1  0  0  0
 11 12  1  0  0  0
 11 21  1  0  0  0
 11 13  1  0  0  0
 13 14  1  0  0  0
 13 15  1  0  0  0
 13 23  1  0  0  0
 15 16  1  0  0  0
 15 40  1  0  0  0
 16 20  1  0  0  0
 16 17  1  0  0  0
 17 18  2  0  0  0
 17 22  1  0  0  0
 18 19  1  0  0  0
 19 20  2  0  0  0
 20 21  1  0  0  0
 22 41  1  0  0  0
 22 42  1  0  0  0
 22 43  1  0  0  0
 23 28  2  0  0  0
 23 24  1  0  0  0
 24 25  2  0  0  0
 24 44  1  0  0  0
 25 26  1  0  0  0
 25 45  1  0  0  0
 26 27  2  0  0  0
 26 30  1  0  0  0
 27 28  1  0  0  0
 27 29  1  0  0  0
 28 46  1  0  0  0
 30 31  1  0  0  0
 31 47  1  0  0  0
 31 48  1  0  0  0
 31 49  1  0  0  0
M  END
> <i_i_glide_confnum>
102

> <i_i_glide_lignum>
2035

> <i_i_glide_posenum>
399

> <i_i_glide_rotatable_bonds>
5

> <i_m_Source_File_Index>
2689

> <b_m_subgroup_collapsed>
0

> <r_i_docking_score>
-4.61333

> <r_i_glide_ecoul>
-5.31446

> <r_i_glide_eff_state_penalty>
0

> <r_i_glide_einternal>
12.0635

> <r_i_glide_emodel>
-50.6177

> <r_i_glide_energy>
-43.7434

> <r_i_glide_erotb>
0.359674

> <r_i_glide_esite>
-0.193591

> <r_i_glide_evdw>
-38.4289

> <r_i_glide_gscore>
-4.61333

> <r_i_glide_hbond>
-0.16

> <r_i_glide_ligand_efficiency>
-0.159081

> <r_i_glide_ligand_efficiency_ln>
-1.05634

> <r_i_glide_ligand_efficiency_sa>
-0.488746

> <r_i_glide_lipo>
-1.60775

> <r_i_glide_metal>
0

> <r_i_glide_rewards>
-0.293052

> <s_i_glide_gridfile>
wee1_glide-grid

> <s_m_Source_File>
wee1_decoys_glide_SP.sdf

> <s_m_Source_Path>
/Users/zhangxujun/Desktop

> <s_m_entry_id>
2964

> <s_m_entry_name>
wee1_decoys_glide_SP.2689

> <s_m_subgroup_title>
wee1_decoys_glide_SP

> <s_m_subgroupid>
wee1_decoys_glide_SP


$$$$
