ZINC12342071_2344
                    3D
 Schrodinger Suite 2024-2.
 47 50  0  0  1  0            999 V2000
    1.1934   56.4965   31.1361 C   0  0  0  0  0  0
    1.4067   55.4944   30.0457 C   0  0  0  0  0  0
    0.7764   54.2480   30.0507 C   0  0  0  0  0  0
    0.9329   53.3988   28.9546 C   0  0  0  0  0  0
    1.7241   53.7968   27.8644 C   0  0  0  0  0  0
    2.3637   55.0384   27.9244 C   0  0  0  0  0  0
    2.2193   55.8782   29.0023 C   0  0  0  0  0  0
    1.8181   52.9507   26.6228 C   0  0  0  0  0  0
    1.1037   51.9582   26.4755 O   0  0  0  0  0  0
    2.7403   53.3283   25.5331 C   0  0  0  0  0  0
    2.4881   53.3879   24.1543 C   0  0  0  0  0  0
    3.6638   53.7737   23.4813 C   0  0  0  0  0  0
    4.5973   54.0979   24.4942 C   0  0  0  0  0  0
    4.0624   53.6966   25.7399 N   0  0  0  0  0  0
    4.8330   53.7193   26.8871 C   0  0  0  0  0  0
    6.0884   54.3130   26.8715 C   0  0  0  0  0  0
    6.5740   54.8235   25.6801 C   0  0  0  0  0  0
    5.8796   54.6775   24.4899 C   0  0  0  0  0  0
    3.8483   53.9530   22.0675 C   0  0  0  0  0  0
    4.5343   54.8905   21.6605 O   0  0  0  0  0  0
    3.2736   52.9985   21.3086 N   0  0  0  0  0  0
    3.2449   52.8711   19.9046 C   0  0  0  0  0  0
    2.4277   51.8554   19.3996 C   0  0  0  0  0  0
    2.3042   51.6719   18.0250 C   0  0  0  0  0  0
    3.0065   52.4971   17.1509 C   0  0  0  0  0  0
    3.8370   53.5027   17.6387 C   0  0  0  0  0  0
    3.9588   53.6909   19.0120 C   0  0  0  0  0  0
    2.8371   52.2459   15.2729 Br  0  0  0  0  0  0
    1.2811   53.1135   23.5768 N   0  0  0  0  0  0
    1.1043   55.9875   32.0821 H   0  0  0  0  0  0
    2.0206   57.1978   31.2367 H   0  0  0  0  0  0
    0.3043   57.0674   30.8820 H   0  0  0  0  0  0
    0.1447   53.9517   30.8760 H   0  0  0  0  0  0
    0.4183   52.4487   28.9471 H   0  0  0  0  0  0
    2.9509   55.4222   27.1093 H   0  0  0  0  0  0
    2.7032   56.8444   29.0043 H   0  0  0  0  0  0
    4.3979   53.3155   27.7898 H   0  0  0  0  0  0
    6.6675   54.3959   27.7818 H   0  0  0  0  0  0
    7.5064   55.3371   25.6523 H   0  0  0  0  0  0
    6.3133   55.0346   23.5677 H   0  0  0  0  0  0
    2.7603   52.2939   21.8147 H   0  0  0  0  0  0
    1.8755   51.2070   20.0653 H   0  0  0  0  0  0
    1.6813   50.8813   17.6355 H   0  0  0  0  0  0
    4.3850   54.1328   16.9527 H   0  0  0  0  0  0
    4.6134   54.4774   19.3508 H   0  0  0  0  0  0
    1.1025   53.2990   22.6008 H   0  0  0  0  0  0
    0.5170   52.7541   24.1343 H   0  0  0  0  0  0
  1  2  1  0  0  0
  1 30  1  0  0  0
  1 31  1  0  0  0
  1 32  1  0  0  0
  2  7  2  0  0  0
  2  3  1  0  0  0
  3  4  2  0  0  0
  3 33  1  0  0  0
  4  5  1  0  0  0
  4 34  1  0  0  0
  5  6  2  0  0  0
  5  8  1  0  0  0
  6  7  1  0  0  0
  6 35  1  0  0  0
  7 36  1  0  0  0
  8  9  2  0  0  0
  8 10  1  0  0  0
 10 14  1  0  0  0
 10 11  2  0  0  0
 11 12  1  0  0  0
 11 29  1  0  0  0
 12 13  2  0  0  0
 12 19  1  0  0  0
 13 18  1  0  0  0
 13 14  1  0  0  0
 14 15  1  0  0  0
 15 16  2  0  0  0
 15 37  1  0  0  0
 16 17  1  0  0  0
 16 38  1  0  0  0
 17 18  2  0  0  0
 17 39  1  0  0  0
 18 40  1  0  0  0
 19 20  2  0  0  0
 19 21  1  0  0  0
 21 22  1  0  0  0
 21 41  1  0  0  0
 22 27  2  0  0  0
 22 23  1  0  0  0
 23 24  2  0  0  0
 23 42  1  0  0  0
 24 25  1  0  0  0
 24 43  1  0  0  0
 25 26  2  0  0  0
 25 28  1  0  0  0
 26 27  1  0  0  0
 26 44  1  0  0  0
 27 45  1  0  0  0
 29 46  1  0  0  0
 29 47  1  0  0  0
M  END
> <i_i_glide_confnum>
67

> <i_i_glide_lignum>
2345

> <i_i_glide_posenum>
35

> <i_i_glide_rotatable_bonds>
5

> <i_m_Source_File_Index>
5823

> <b_m_subgroup_collapsed>
0

> <r_i_docking_score>
-6.11449

> <r_i_glide_ecoul>
1.59503

> <r_i_glide_eff_state_penalty>
0

> <r_i_glide_einternal>
4.42593

> <r_i_glide_emodel>
-51.2896

> <r_i_glide_energy>
-37.8537

> <r_i_glide_erotb>
0.498343

> <r_i_glide_esite>
0

> <r_i_glide_evdw>
-39.4487

> <r_i_glide_gscore>
-6.11449

> <r_i_glide_hbond>
0

> <r_i_glide_ligand_efficiency>
-0.210845

> <r_i_glide_ligand_efficiency_ln>
-1.40006

> <r_i_glide_ligand_efficiency_sa>
-0.647782

> <r_i_glide_lipo>
-3.75627

> <r_i_glide_metal>
0

> <r_i_glide_rewards>
-1.12338

> <s_i_glide_gridfile>
wee1_glide-grid

> <s_m_Source_File>
wee1_decoys_glide_SP.sdf

> <s_m_Source_Path>
/Users/zhangxujun/Desktop

> <s_m_entry_id>
6098

> <s_m_entry_name>
wee1_decoys_glide_SP.5823

> <s_m_subgroup_title>
wee1_decoys_glide_SP

> <s_m_subgroupid>
wee1_decoys_glide_SP


$$$$
