ZINC14245555_2709
                    3D
 Schrodinger Suite 2024-2.
 48 51  0  0  1  0            999 V2000
    3.4166   54.0784   26.8193 C   0  0  0  0  0  0
    4.2373   54.5644   25.8121 C   0  0  0  0  0  0
    5.6099   54.6209   26.0159 C   0  0  0  0  0  0
    6.1734   54.1945   27.2179 C   0  0  0  0  0  0
    5.3478   53.6983   28.2246 C   0  0  0  0  0  0
    3.9659   53.6339   28.0270 C   0  0  0  0  0  0
    3.0625   53.0823   29.0755 C   0  0  0  0  0  0
    3.2260   52.5813   30.3625 C   0  0  0  0  0  0
    1.9543   52.2175   30.8209 C   0  0  0  0  0  0
    1.0678   52.4671   29.7844 C   0  0  0  0  0  0
    1.7483   53.0091   28.7474 O   0  0  0  0  0  0
   -0.4142   52.2666   29.5633 C   0  0  0  0  0  0
   -0.6725   51.7603   28.2110 N   0  0  0  0  0  0
   -1.8560   51.2967   27.7731 C   0  0  0  0  0  0
   -2.8640   51.2967   28.4775 O   0  0  0  0  0  0
   -1.9707   50.6724   26.3646 C   0  0  0  0  0  0
   -0.8183   50.9362   25.4724 N   0  0  0  0  0  0
   -0.7831   51.9729   24.6047 C   0  0  0  0  0  0
   -1.5919   52.8963   24.4882 O   0  0  0  0  0  0
    0.4727   51.7675   23.7586 C   0  0  0  0  0  0
    0.1361   51.8125   22.2465 C   0  0  0  0  0  0
    1.3397   52.4922   21.5950 C   0  0  0  0  0  0
    1.7399   53.5670   22.6035 C   0  0  0  0  0  0
    1.4794   52.9347   23.9768 C   0  0  0  0  0  0
    0.8788   50.4871   24.2621 N   0  0  0  0  0  0
    0.2349   50.0889   25.3595 C   0  0  0  0  0  0
    0.6892   49.3174   26.1965 O   0  0  0  0  0  0
    6.7045   55.2968   24.6237 Br  0  0  0  0  0  0
    2.3511   54.0432   26.6500 H   0  0  0  0  0  0
    3.8107   54.8982   24.8775 H   0  0  0  0  0  0
    7.2411   54.2437   27.3707 H   0  0  0  0  0  0
    5.7844   53.3608   29.1517 H   0  0  0  0  0  0
    4.1552   52.4967   30.9075 H   0  0  0  0  0  0
    1.7056   51.8013   31.7879 H   0  0  0  0  0  0
   -0.8955   53.2360   29.6796 H   0  0  0  0  0  0
   -0.8550   51.6131   30.3216 H   0  0  0  0  0  0
    0.1419   51.5908   27.6399 H   0  0  0  0  0  0
   -2.8706   51.0860   25.9079 H   0  0  0  0  0  0
   -2.1377   49.5992   26.4750 H   0  0  0  0  0  0
   -0.7453   52.4245   22.0376 H   0  0  0  0  0  0
   -0.0705   50.8270   21.8255 H   0  0  0  0  0  0
    1.1067   52.8968   20.6097 H   0  0  0  0  0  0
    2.1534   51.7756   21.4668 H   0  0  0  0  0  0
    1.1141   54.4512   22.4819 H   0  0  0  0  0  0
    2.7755   53.8865   22.4769 H   0  0  0  0  0  0
    2.4202   52.5457   24.3708 H   0  0  0  0  0  0
    1.1405   53.6961   24.6826 H   0  0  0  0  0  0
    1.5296   49.8942   23.7674 H   0  0  0  0  0  0
  1  6  2  0  0  0
  1  2  1  0  0  0
  1 29  1  0  0  0
  2  3  2  0  0  0
  2 30  1  0  0  0
  3  4  1  0  0  0
  3 28  1  0  0  0
  4  5  2  0  0  0
  4 31  1  0  0  0
  5  6  1  0  0  0
  5 32  1  0  0  0
  6  7  1  0  0  0
  7 11  1  0  0  0
  7  8  2  0  0  0
  8  9  1  0  0  0
  8 33  1  0  0  0
  9 10  2  0  0  0
  9 34  1  0  0  0
 10 11  1  0  0  0
 10 12  1  0  0  0
 12 13  1  0  0  0
 12 35  1  0  0  0
 12 36  1  0  0  0
 13 14  1  0  0  0
 13 37  1  0  0  0
 14 15  2  0  0  0
 14 16  1  0  0  0
 16 17  1  0  0  0
 16 38  1  0  0  0
 16 39  1  0  0  0
 17 26  1  0  0  0
 17 18  1  0  0  0
 18 19  2  0  0  0
 18 20  1  0  0  0
 20 24  1  0  0  0
 20 21  1  0  0  0
 20 25  1  0  0  0
 21 22  1  0  0  0
 21 40  1  0  0  0
 21 41  1  0  0  0
 22 23  1  0  0  0
 22 42  1  0  0  0
 22 43  1  0  0  0
 23 24  1  0  0  0
 23 44  1  0  0  0
 23 45  1  0  0  0
 24 46  1  0  0  0
 24 47  1  0  0  0
 25 26  1  0  0  0
 25 48  1  0  0  0
 26 27  2  0  0  0
M  END
> <i_i_glide_confnum>
10

> <i_i_glide_lignum>
2710

> <i_i_glide_posenum>
319

> <i_i_glide_rotatable_bonds>
6

> <i_m_Source_File_Index>
1226

> <b_m_subgroup_collapsed>
0

> <r_i_docking_score>
-5.17201

> <r_i_glide_ecoul>
-0.295966

> <r_i_glide_eff_state_penalty>
0

> <r_i_glide_einternal>
6.25418

> <r_i_glide_emodel>
-57.233

> <r_i_glide_energy>
-45.261

> <r_i_glide_erotb>
0.502444

> <r_i_glide_esite>
-0.207952

> <r_i_glide_evdw>
-44.9651

> <r_i_glide_gscore>
-5.17201

> <r_i_glide_hbond>
0

> <r_i_glide_ligand_efficiency>
-0.184715

> <r_i_glide_ligand_efficiency_ln>
-1.19385

> <r_i_glide_ligand_efficiency_sa>
-0.560902

> <r_i_glide_lipo>
-2.65323

> <r_i_glide_metal>
0

> <r_i_glide_rewards>
-0.520618

> <s_i_glide_gridfile>
wee1_glide-grid

> <s_m_Source_File>
wee1_decoys_glide_SP.sdf

> <s_m_Source_Path>
/Users/zhangxujun/Desktop

> <s_m_entry_id>
1501

> <s_m_entry_name>
wee1_decoys_glide_SP.1226

> <s_m_subgroup_title>
wee1_decoys_glide_SP

> <s_m_subgroupid>
wee1_decoys_glide_SP


$$$$
