ZINC33025069_3172
                    3D
 Schrodinger Suite 2024-2.
 55 58  0  0  1  0            999 V2000
   -2.3687   46.8363   23.0118 C   0  0  0  0  0  0
   -1.3417   47.7733   22.9017 C   0  0  0  0  0  0
   -1.1271   48.7064   23.9165 C   0  0  0  0  0  0
   -1.9619   48.7139   25.0478 C   0  0  0  0  0  0
   -2.9736   47.7516   25.1666 C   0  0  0  0  0  0
   -3.1774   46.8208   24.1472 C   0  0  0  0  0  0
   -3.7860   47.7247   26.2502 F   0  0  0  0  0  0
   -1.8104   49.6524   26.0810 N   0  0  0  0  0  0
   -1.8972   50.9871   25.9185 C   0  0  0  0  0  0
   -2.1090   51.5394   24.8367 O   0  0  0  0  0  0
   -1.7480   51.8490   27.1744 C   0  0  0  0  0  0
   -0.3646   51.7780   27.8710 C   0  0  0  0  0  0
    0.8324   52.0754   26.9441 C   0  0  0  0  0  0
    2.1709   51.9196   27.6916 C   0  0  0  0  0  0
    2.1507   52.8538   28.8368 N   0  0  0  0  0  0
    1.0436   52.6805   29.8094 C   0  0  0  0  0  0
   -0.2853   52.7828   29.0347 C   0  0  0  0  0  0
    3.1194   53.7794   29.0875 C   0  0  0  0  0  0
    3.1100   54.4971   30.0817 O   0  0  0  0  0  0
    4.2297   53.9105   28.1880 C   0  0  0  0  0  0
    5.5027   53.7289   28.4434 N   0  0  0  0  0  0
    6.3327   54.0351   27.3737 N   0  0  0  0  0  0
    5.6743   54.4364   26.3130 C   0  0  0  0  0  0
    3.9468   54.4963   26.5718 S   0  0  0  0  0  0
    6.1958   54.8678   25.0545 C   0  0  0  0  0  0
    7.1039   55.6955   25.0208 O   0  0  0  0  0  0
    5.6049   54.2734   23.9946 N   0  0  0  0  0  0
    5.7926   54.4967   22.6195 C   0  0  0  0  0  0
    4.8632   53.8942   21.7669 C   0  0  0  0  0  0
    4.9398   54.0963   20.3914 C   0  0  0  0  0  0
    5.9487   54.8970   19.8642 C   0  0  0  0  0  0
    6.8885   55.4920   20.7027 C   0  0  0  0  0  0
    6.8127   55.2967   22.0785 C   0  0  0  0  0  0
    6.0387   55.1540   18.1607 Cl  0  0  0  0  0  0
   -0.1045   49.5869   23.7918 F   0  0  0  0  0  0
   -2.5351   46.1249   22.2167 H   0  0  0  0  0  0
   -0.7113   47.7820   22.0252 H   0  0  0  0  0  0
   -3.9775   46.1000   24.2362 H   0  0  0  0  0  0
   -1.6968   49.2583   27.0238 H   0  0  0  0  0  0
   -1.9533   52.8816   26.8818 H   0  0  0  0  0  0
   -2.5384   51.5726   27.8734 H   0  0  0  0  0  0
   -0.2327   50.7773   28.2886 H   0  0  0  0  0  0
    0.8233   51.4015   26.0872 H   0  0  0  0  0  0
    0.7451   53.0688   26.5010 H   0  0  0  0  0  0
    2.2622   50.9053   28.0828 H   0  0  0  0  0  0
    2.9926   52.0968   27.0040 H   0  0  0  0  0  0
    1.1347   51.6949   30.2593 H   0  0  0  0  0  0
    1.0456   53.4221   30.6085 H   0  0  0  0  0  0
   -0.4447   53.8037   28.6818 H   0  0  0  0  0  0
   -1.1099   52.6003   29.7251 H   0  0  0  0  0  0
    4.8855   53.6037   24.2194 H   0  0  0  0  0  0
    4.0670   53.2765   22.1586 H   0  0  0  0  0  0
    4.2137   53.6359   19.7350 H   0  0  0  0  0  0
    7.6803   56.0964   20.2859 H   0  0  0  0  0  0
    7.5586   55.7680   22.6989 H   0  0  0  0  0  0
  1  6  2  0  0  0
  1  2  1  0  0  0
  1 36  1  0  0  0
  2  3  2  0  0  0
  2 37  1  0  0  0
  3  4  1  0  0  0
  3 35  1  0  0  0
  4  5  2  0  0  0
  4  8  1  0  0  0
  5  6  1  0  0  0
  5  7  1  0  0  0
  6 38  1  0  0  0
  8  9  1  0  0  0
  8 39  1  0  0  0
  9 10  2  0  0  0
  9 11  1  0  0  0
 11 12  1  0  0  0
 11 40  1  0  0  0
 11 41  1  0  0  0
 12 17  1  0  0  0
 12 13  1  0  0  0
 12 42  1  0  0  0
 13 14  1  0  0  0
 13 43  1  0  0  0
 13 44  1  0  0  0
 14 15  1  0  0  0
 14 45  1  0  0  0
 14 46  1  0  0  0
 15 16  1  0  0  0
 15 18  1  0  0  0
 16 17  1  0  0  0
 16 47  1  0  0  0
 16 48  1  0  0  0
 17 49  1  0  0  0
 17 50  1  0  0  0
 18 19  2  0  0  0
 18 20  1  0  0  0
 20 24  1  0  0  0
 20 21  2  0  0  0
 21 22  1  0  0  0
 22 23  2  0  0  0
 23 24  1  0  0  0
 23 25  1  0  0  0
 25 26  2  0  0  0
 25 27  1  0  0  0
 27 28  1  0  0  0
 27 51  1  0  0  0
 28 33  2  0  0  0
 28 29  1  0  0  0
 29 30  2  0  0  0
 29 52  1  0  0  0
 30 31  1  0  0  0
 30 53  1  0  0  0
 31 32  2  0  0  0
 31 34  1  0  0  0
 32 33  1  0  0  0
 32 54  1  0  0  0
 33 55  1  0  0  0
M  END
> <i_i_glide_confnum>
110

> <i_i_glide_lignum>
3173

> <i_i_glide_posenum>
370

> <i_i_glide_rotatable_bonds>
9

> <i_m_Source_File_Index>
5703

> <b_m_subgroup_collapsed>
0

> <r_i_docking_score>
-7.33227

> <r_i_glide_ecoul>
-10.1954

> <r_i_glide_eff_state_penalty>
0

> <r_i_glide_einternal>
12.5442

> <r_i_glide_emodel>
-79.8155

> <r_i_glide_energy>
-59.0648

> <r_i_glide_erotb>
0.608043

> <r_i_glide_esite>
-0.218734

> <r_i_glide_evdw>
-48.8693

> <r_i_glide_gscore>
-7.33227

> <r_i_glide_hbond>
-0.72

> <r_i_glide_ligand_efficiency>
-0.209493

> <r_i_glide_ligand_efficiency_ln>
-1.6096

> <r_i_glide_ligand_efficiency_sa>
-0.685267

> <r_i_glide_lipo>
-2.05611

> <r_i_glide_metal>
0

> <r_i_glide_rewards>
-0.972689

> <s_i_glide_gridfile>
wee1_glide-grid

> <s_m_Source_File>
wee1_decoys_glide_SP.sdf

> <s_m_Source_Path>
/Users/zhangxujun/Desktop

> <s_m_entry_id>
5978

> <s_m_entry_name>
wee1_decoys_glide_SP.5703

> <s_m_subgroup_title>
wee1_decoys_glide_SP

> <s_m_subgroupid>
wee1_decoys_glide_SP


$$$$
