@<TRIPOS>MOLECULE
ZINC22190668_22
55   58    1
SMALL
USER_CHARGES


@<TRIPOS>ATOM
      1 C1         -1.1537   50.5343   19.6323 C.3       1 UNK         0.0000 
      2 C2         -0.1898   49.3300   19.7659 C.3       1 UNK         0.0000 
      3 H3         -0.6049   48.4894   19.2089 H         1 UNK         0.0000 
      4 C4         -0.1205   48.8986   21.2651 C.2       1 UNK         0.0000 
      5 O5         -0.9170   48.0951   21.7573 O.2       1 UNK         0.0000 
      6 N6          0.8934   49.5283   21.9381 N.am      1 UNK         0.0000 
      7 C7          1.7163   50.5308   21.3598 C.ar      1 UNK         0.0000 
      8 C8          2.4644   51.4648   22.0919 C.ar      1 UNK         0.0000 
      9 C9          3.3114   52.3647   21.4413 C.ar      1 UNK         0.0000 
     10 C10         3.4380   52.3287   20.0521 C.ar      1 UNK         0.0000 
     11 C11         2.7034   51.4068   19.3072 C.ar      1 UNK         0.0000 
     12 C12         1.8411   50.5334   19.9653 C.ar      1 UNK         0.0000 
     13 O13         1.1190   49.6211   19.2271 O.3       1 UNK         0.0000 
     14 C14         1.0293   49.2583   23.3946 C.3       1 UNK         0.0000 
     15 C15         0.1220   50.1303   24.2852 C.2       1 UNK         0.0000 
     16 O16        -0.6829   50.9273   23.7909 O.2       1 UNK         0.0000 
     17 N17         0.3045   49.9523   25.6112 N.am      1 UNK         0.0000 
     18 N18        -0.6278   50.5059   26.4819 N.am      1 UNK         0.0000 
     19 C19        -0.3046   51.4680   27.3798 C.2       1 UNK         0.0000 
     20 O20        -1.0720   51.6978   28.3134 O.2       1 UNK         0.0000 
     21 C21         0.8819   52.2998   27.2480 C.2       1 UNK         0.0000 
     22 C22         1.5346   52.9324   28.2982 C.2       1 UNK         0.0000 
     23 C23         2.5429   53.8286   27.9180 C.2       1 UNK         0.0000 
     24 C24         2.6977   53.8843   26.5293 C.2       1 UNK         0.0000 
     25 S25         1.5043   52.8948   25.7368 S.3       1 UNK         0.0000 
     26 C26         3.6851   54.7081   25.7257 C.3       1 UNK         0.0000 
     27 C27         5.0768   54.0588   25.5992 C.3       1 UNK         0.0000 
     28 C28         5.6680   53.4160   26.8774 C.3       1 UNK         0.0000 
     29 C29         5.8103   54.3431   28.1038 C.3       1 UNK         0.0000 
     30 C30         4.7460   54.1665   29.2129 C.3       1 UNK         0.0000 
     31 C31         3.3256   54.6734   28.9038 C.3       1 UNK         0.0000 
     32 H32        -2.1535   50.2918   19.9958 H         1 UNK         0.0000 
     33 H33        -0.8047   51.4079   20.1848 H         1 UNK         0.0000 
     34 H34        -1.2504   50.8292   18.5873 H         1 UNK         0.0000 
     35 H35         2.3957   51.5108   23.1673 H         1 UNK         0.0000 
     36 H36         3.8789   53.0829   22.0147 H         1 UNK         0.0000 
     37 H37         4.1078   53.0108   19.5490 H         1 UNK         0.0000 
     38 H38         2.8159   51.3594   18.2333 H         1 UNK         0.0000 
     39 H39         0.7946   48.2128   23.6008 H         1 UNK         0.0000 
     40 H40         2.0763   49.3243   23.6894 H         1 UNK         0.0000 
     41 H41         0.7848   49.1540   26.0025 H         1 UNK         0.0000 
     42 H42        -1.3892   49.8698   26.6791 H         1 UNK         0.0000 
     43 H43         1.2592   52.7729   29.3316 H         1 UNK         0.0000 
     44 H44         3.2960   54.8991   24.7245 H         1 UNK         0.0000 
     45 H45         3.8024   55.6946   26.1699 H         1 UNK         0.0000 
     46 H46         5.0279   53.2973   24.8215 H         1 UNK         0.0000 
     47 H47         5.7761   54.8043   25.2172 H         1 UNK         0.0000 
     48 H48         5.0992   52.5260   27.1486 H         1 UNK         0.0000 
     49 H49         6.6597   53.0405   26.6206 H         1 UNK         0.0000 
     50 H50         6.7790   54.1330   28.5616 H         1 UNK         0.0000 
     51 H51         5.8725   55.3857   27.7939 H         1 UNK         0.0000 
     52 H52         4.7042   53.1237   29.5317 H         1 UNK         0.0000 
     53 H53         5.0977   54.7270   30.0813 H         1 UNK         0.0000 
     54 H54         3.3819   55.6966   28.5448 H         1 UNK         0.0000 
     55 H55         2.7706   54.7523   29.8391 H         1 UNK         0.0000 
@<TRIPOS>BOND
     1    1    2 1    
     2    1   32 1    
     3    1   33 1    
     4    1   34 1    
     5    2    3 1    
     6    2   13 1    
     7    2    4 1    
     8    4    5 2    
     9    4    6 am   BACKBONE|DICT|INTERRES
    10    6    7 1    
    11    6   14 1    
    12    7   12 ar   
    13    7    8 ar   
    14    8    9 ar   
    15    8   35 1    
    16    9   10 ar   
    17    9   36 1    
    18   10   11 ar   
    19   10   37 1    
    20   11   12 ar   
    21   11   38 1    
    22   12   13 1    
    23   14   15 1    
    24   14   39 1    
    25   14   40 1    
    26   15   16 2    
    27   15   17 am   BACKBONE|DICT|INTERRES
    28   17   18 1    
    29   17   41 1    
    30   18   19 am   BACKBONE|DICT|INTERRES
    31   18   42 1    
    32   19   20 2    
    33   19   21 1    
    34   21   25 1    
    35   21   22 2    
    36   22   23 1    
    37   22   43 1    
    38   23   31 1    
    39   23   24 2    
    40   24   25 1    
    41   24   26 1    
    42   26   27 1    
    43   26   44 1    
    44   26   45 1    
    45   27   28 1    
    46   27   46 1    
    47   27   47 1    
    48   28   29 1    
    49   28   48 1    
    50   28   49 1    
    51   29   30 1    
    52   29   50 1    
    53   29   51 1    
    54   30   31 1    
    55   30   52 1    
    56   30   53 1    
    57   31   54 1    
    58   31   55 1    
@<TRIPOS>SUBSTRUCTURE
     1 UNK         1 GROUP             0       ****    0 ROOT    
