@<TRIPOS>MOLECULE
ZINC38966347_809
57   60    1
SMALL
USER_CHARGES


@<TRIPOS>ATOM
      1 C1          4.1230   54.5518   25.5151 C.3       1 UNK         0.0000 
      2 C2          2.9035   53.6969   25.8090 C.ar      1 UNK         0.0000 
      3 C3          2.6195   53.3200   27.1197 C.ar      1 UNK         0.0000 
      4 C4          1.5035   52.5349   27.3920 C.ar      1 UNK         0.0000 
      5 C5          0.6652   52.0976   26.3612 C.ar      1 UNK         0.0000 
      6 C6          0.9588   52.4491   25.0228 C.ar      1 UNK         0.0000 
      7 C7          2.0695   53.2735   24.7731 C.ar      1 UNK         0.0000 
      8 S8         -0.0946   51.9084   23.6378 S.o2      1 UNK         0.0000 
      9 O9         -1.1779   52.8965   23.6817 O.2       1 UNK         0.0000 
     10 O10        -0.4764   50.5367   23.9936 O.2       1 UNK         0.0000 
     11 N11         1.0553   52.0810   22.2980 N.2       1 UNK         0.0000 
     12 C12         1.1215   51.1917   21.3821 C.2       1 UNK         0.0000 
     13 C13         2.1785   51.4100   20.2415 C.3       1 UNK         0.0000 
     14 H14         1.7421   52.1968   19.6220 H         1 UNK         0.0000 
     15 N15         2.3042   50.2503   19.2866 N.pl3     1 UNK         0.0000 
     16 C16         1.4684   49.2194   19.2842 C.2       1 UNK         0.0000 
     17 C17         1.5631   48.2172   18.3180 C.2       1 UNK         0.0000 
     18 C18         0.6911   47.1759   18.3443 C.2       1 UNK         0.0000 
     19 C19        -0.3603   47.0664   19.3568 C.2       1 UNK         0.0000 
     20 C20        -0.4891   48.0266   20.3033 C.2       1 UNK         0.0000 
     21 C21         0.3906   49.1755   20.3736 C.2       1 UNK         0.0000 
     22 N22         0.2772   50.0794   21.2799 N.2       1 UNK         0.0000 
     23 N23         3.4717   51.8978   20.7358 N.pl3     1 UNK         0.0000 
     24 C24         4.1092   52.9880   20.1185 C.ar      1 UNK         0.0000 
     25 C25         4.9519   53.7811   20.8963 C.ar      1 UNK         0.0000 
     26 C26         5.5764   54.8962   20.3422 C.ar      1 UNK         0.0000 
     27 C27         5.3580   55.2293   18.9953 C.ar      1 UNK         0.0000 
     28 C28         4.5464   54.4106   18.2098 C.ar      1 UNK         0.0000 
     29 C29         3.9269   53.2964   18.7656 C.ar      1 UNK         0.0000 
     30 N30         5.9090   56.3511   18.3465 N.am      1 UNK         0.0000 
     31 C31         6.5163   57.4281   18.8808 C.2       1 UNK         0.0000 
     32 O32         6.7044   57.6125   20.0818 O.2       1 UNK         0.0000 
     33 C33         6.9616   58.4961   17.8899 C.3       1 UNK         0.0000 
     34 C34        -0.5628   51.2871   26.7581 C.3       1 UNK         0.0000 
     35 H35         4.9940   54.1522   26.0364 H         1 UNK         0.0000 
     36 H36         4.3648   54.5717   24.4514 H         1 UNK         0.0000 
     37 H37         3.9674   55.5726   25.8646 H         1 UNK         0.0000 
     38 H38         3.2575   53.6395   27.9308 H         1 UNK         0.0000 
     39 H39         1.2896   52.2655   28.4164 H         1 UNK         0.0000 
     40 H40         2.3047   53.6025   23.7725 H         1 UNK         0.0000 
     41 H41         2.3050   48.2900   17.5364 H         1 UNK         0.0000 
     42 H42         0.7654   46.4151   17.5794 H         1 UNK         0.0000 
     43 H43        -1.0382   46.2249   19.3409 H         1 UNK         0.0000 
     44 H44        -1.2786   47.9194   21.0345 H         1 UNK         0.0000 
     45 H45         3.6488   51.7716   21.7217 H         1 UNK         0.0000 
     46 H46         5.1162   53.5477   21.9380 H         1 UNK         0.0000 
     47 H47         6.2183   55.4826   20.9794 H         1 UNK         0.0000 
     48 H48         4.3804   54.6335   17.1655 H         1 UNK         0.0000 
     49 H49         3.3130   52.6778   18.1299 H         1 UNK         0.0000 
     50 H50         5.7811   56.3692   17.3464 H         1 UNK         0.0000 
     51 H51         6.1581   58.7489   17.1971 H         1 UNK         0.0000 
     52 H52         7.8245   58.1550   17.3188 H         1 UNK         0.0000 
     53 H53         7.2387   59.4103   18.4149 H         1 UNK         0.0000 
     54 H54        -0.8184   51.4194   27.8104 H         1 UNK         0.0000 
     55 H55        -1.4390   51.6057   26.1937 H         1 UNK         0.0000 
     56 H56        -0.4039   50.2229   26.5774 H         1 UNK         0.0000 
     57 H57         3.0451   50.2832   18.5849 H         1 UNK         0.0000 
@<TRIPOS>BOND
     1    1    2 1    
     2    1   35 1    
     3    1   36 1    
     4    1   37 1    
     5    2    7 ar   
     6    2    3 ar   
     7    3    4 ar   
     8    3   38 1    
     9    4    5 ar   
    10    4   39 1    
    11    5    6 ar   
    12    5   34 1    
    13    6    7 ar   
    14    6    8 1    
    15    7   40 1    
    16    8    9 2    
    17    8   10 2    
    18    8   11 1    
    19   11   12 2    
    20   12   22 1    
    21   12   13 1    
    22   13   14 1    
    23   13   15 1    
    24   13   23 1    
    25   15   16 2    
    26   15   57 1    
    27   16   21 1    
    28   16   17 1    
    29   17   18 2    
    30   17   41 1    
    31   18   19 1    
    32   18   42 1    
    33   19   20 2    
    34   19   43 1    
    35   20   21 1    
    36   20   44 1    
    37   21   22 2    
    38   23   24 1    
    39   23   45 1    
    40   24   29 ar   
    41   24   25 ar   
    42   25   26 ar   
    43   25   46 1    
    44   26   27 ar   
    45   26   47 1    
    46   27   28 ar   
    47   27   30 1    
    48   28   29 ar   
    49   28   48 1    
    50   29   49 1    
    51   30   31 am   BACKBONE|DICT|INTERRES
    52   30   50 1    
    53   31   32 2    
    54   31   33 1    
    55   33   51 1    
    56   33   52 1    
    57   33   53 1    
    58   34   54 1    
    59   34   55 1    
    60   34   56 1    
@<TRIPOS>SUBSTRUCTURE
     1 UNK         1 GROUP             0       ****    0 ROOT    
