ZINC03522810_410
                    3D
 Schrodinger Suite 2024-2.
 52 55  0  0  1  0            999 V2000
    2.3623   55.6215   29.1705 C   0  0  0  0  0  0
    3.1343   54.2840   29.1585 C   0  0  1  0  0  0
    3.3574   54.0472   30.1985 H   0  0  0  0  0  0
    2.3207   53.0852   28.6287 C   0  0  0  0  0  0
    1.9061   53.2705   27.1530 C   0  0  0  0  0  0
    3.1208   53.7092   26.3274 C   0  0  0  0  0  0
    4.2853   54.2076   26.9273 C   0  0  0  0  0  0
    5.5658   54.5769   25.7972 S   0  0  0  0  0  0
    4.5400   54.0974   24.4658 C   0  0  0  0  0  0
    3.2353   53.6906   24.8925 C   0  0  0  0  0  0
    2.3622   53.3073   23.8376 C   0  0  0  0  0  0
    2.7795   53.3012   22.5466 N   0  0  0  0  0  0
    4.0467   53.6995   22.2973 C   0  0  0  0  0  0
    4.9691   54.1074   23.2003 N   0  0  0  0  0  0
    0.6924   52.7834   24.1400 S   0  0  0  0  0  0
    0.1688   51.5564   22.8876 C   0  0  2  0  0  0
    0.9650   50.8111   22.8421 H   0  0  0  0  0  0
   -0.0204   52.1054   21.4528 C   0  0  0  0  0  0
   -1.1150   50.8508   23.3762 C   0  0  0  0  0  0
   -2.2117   51.3496   23.1157 O   0  0  0  0  0  0
   -0.9361   49.7081   24.0771 N   0  0  0  0  0  0
   -1.8869   48.8399   24.6530 C   0  0  0  0  0  0
   -1.3704   47.6971   25.2661 C   0  0  0  0  0  0
   -2.2159   46.7829   25.8927 C   0  0  0  0  0  0
   -3.5921   47.0068   25.9091 C   0  0  0  0  0  0
   -4.1202   48.1396   25.2849 C   0  0  0  0  0  0
   -3.2746   49.0536   24.6596 C   0  0  0  0  0  0
   -4.6834   45.8459   26.7340 S   0  0  0  0  0  0
   -6.0075   46.4712   26.8052 O   0  0  0  0  0  0
   -4.4953   44.5458   26.0811 O   0  0  0  0  0  0
   -4.0955   45.7001   28.3717 N   0  0  0  0  0  0
    4.4996   54.3529   28.4328 C   0  0  0  0  0  0
    2.1479   55.9721   28.1605 H   0  0  0  0  0  0
    1.4106   55.5240   29.6941 H   0  0  0  0  0  0
    2.9288   56.4048   29.6742 H   0  0  0  0  0  0
    2.8992   52.1652   28.7309 H   0  0  0  0  0  0
    1.4158   52.9544   29.2239 H   0  0  0  0  0  0
    1.1048   54.0045   27.0705 H   0  0  0  0  0  0
    1.5030   52.3236   26.7919 H   0  0  0  0  0  0
    4.3537   53.6950   21.2613 H   0  0  0  0  0  0
   -0.3485   51.3231   20.7664 H   0  0  0  0  0  0
   -0.7687   52.8956   21.4234 H   0  0  0  0  0  0
    0.8968   52.5142   21.0338 H   0  0  0  0  0  0
    0.0199   49.4267   24.2317 H   0  0  0  0  0  0
   -0.3046   47.5212   25.2809 H   0  0  0  0  0  0
   -1.7908   45.9258   26.3944 H   0  0  0  0  0  0
   -5.1845   48.3245   25.2896 H   0  0  0  0  0  0
   -3.7249   49.9209   24.2070 H   0  0  0  0  0  0
   -3.3313   45.0105   28.4818 H   0  0  0  0  0  0
   -3.8399   46.6058   28.7788 H   0  0  0  0  0  0
    5.1451   53.5527   28.7964 H   0  0  0  0  0  0
    5.0145   55.2847   28.6700 H   0  0  0  0  0  0
  1  2  1  0  0  0
  1 33  1  0  0  0
  1 34  1  0  0  0
  1 35  1  0  0  0
  2  3  1  0  0  0
  2 32  1  0  0  0
  2  4  1  0  0  0
  4  5  1  0  0  0
  4 36  1  0  0  0
  4 37  1  0  0  0
  5  6  1  0  0  0
  5 38  1  0  0  0
  5 39  1  0  0  0
  6 10  1  0  0  0
  6  7  2  0  0  0
  7  8  1  0  0  0
  7 32  1  0  0  0
  8  9  1  0  0  0
  9 14  2  0  0  0
  9 10  1  0  0  0
 10 11  2  0  0  0
 11 12  1  0  0  0
 11 15  1  0  0  0
 12 13  2  0  0  0
 13 14  1  0  0  0
 13 40  1  0  0  0
 15 16  1  0  0  0
 16 17  1  0  0  0
 16 18  1  0  0  0
 16 19  1  0  0  0
 18 41  1  0  0  0
 18 42  1  0  0  0
 18 43  1  0  0  0
 19 20  2  0  0  0
 19 21  1  0  0  0
 21 22  1  0  0  0
 21 44  1  0  0  0
 22 27  2  0  0  0
 22 23  1  0  0  0
 23 24  2  0  0  0
 23 45  1  0  0  0
 24 25  1  0  0  0
 24 46  1  0  0  0
 25 26  2  0  0  0
 25 28  1  0  0  0
 26 27  1  0  0  0
 26 47  1  0  0  0
 27 48  1  0  0  0
 28 29  2  0  0  0
 28 30  2  0  0  0
 28 31  1  0  0  0
 31 49  1  0  0  0
 31 50  1  0  0  0
 32 51  1  0  0  0
 32 52  1  0  0  0
M  END
> <i_i_glide_confnum>
50

> <i_i_glide_lignum>
411

> <i_i_glide_posenum>
350

> <i_i_glide_rotatable_bonds>
6

> <i_m_Source_File_Index>
1281

> <b_m_subgroup_collapsed>
0

> <r_i_docking_score>
-5.72669

> <r_i_glide_ecoul>
-9.15548

> <r_i_glide_eff_state_penalty>
0

> <r_i_glide_einternal>
4.87022

> <r_i_glide_emodel>
-62.1967

> <r_i_glide_energy>
-48.2327

> <r_i_glide_erotb>
0.470664

> <r_i_glide_esite>
-0.2282

> <r_i_glide_evdw>
-39.0772

> <r_i_glide_gscore>
-5.72669

> <r_i_glide_hbond>
-0.16

> <r_i_glide_ligand_efficiency>
-0.19089

> <r_i_glide_ligand_efficiency_ln>
-1.30117

> <r_i_glide_ligand_efficiency_sa>
-0.593138

> <r_i_glide_lipo>
-2.73712

> <r_i_glide_metal>
0

> <r_i_glide_rewards>
0.255149

> <s_i_glide_gridfile>
wee1_glide-grid

> <s_m_Source_File>
wee1_decoys_glide_SP.sdf

> <s_m_Source_Path>
/Users/zhangxujun/Desktop

> <s_m_entry_id>
1556

> <s_m_entry_name>
wee1_decoys_glide_SP.1281

> <s_m_subgroup_title>
wee1_decoys_glide_SP

> <s_m_subgroupid>
wee1_decoys_glide_SP


$$$$
