@<TRIPOS>MOLECULE
ZINC39894589_4344
50   52    1
SMALL
USER_CHARGES


@<TRIPOS>ATOM
      1 C1         -1.8128   48.0681   25.4973 C.3       1 UNK         0.0000 
      2 O2         -0.9053   48.7481   24.6393 O.3       1 UNK         0.0000 
      3 C3         -1.3330   49.7558   23.8359 C.2       1 UNK         0.0000 
      4 O4         -2.5113   50.1190   23.7676 O.2       1 UNK         0.0000 
      5 C5         -0.2318   50.3905   23.0399 C.ar      1 UNK         0.0000 
      6 C6         -0.5349   51.4606   22.1859 C.ar      1 UNK         0.0000 
      7 C7          0.4663   52.0834   21.4453 C.ar      1 UNK         0.0000 
      8 C8          1.7893   51.6522   21.5440 C.ar      1 UNK         0.0000 
      9 C9          2.0990   50.5743   22.3853 C.ar      1 UNK         0.0000 
     10 C10         1.0983   49.9521   23.1285 C.ar      1 UNK         0.0000 
     11 N11         2.7343   52.3864   20.8000 N.am      1 UNK         0.0000 
     12 C12         4.0346   52.1053   20.5542 C.2       1 UNK         0.0000 
     13 O13         4.5885   51.0636   20.8830 O.2       1 UNK         0.0000 
     14 C14         4.8841   53.1906   19.8455 C.3       1 UNK         0.0000 
     15 H15         5.9006   52.7889   19.7785 H         1 UNK         0.0000 
     16 C16         4.3117   53.3756   18.4045 C.3       1 UNK         0.0000 
     17 C17         4.7829   54.6707   17.7559 C.2       1 UNK         0.0000 
     18 C18         5.4146   55.6628   18.4065 C.2       1 UNK         0.0000 
     19 C19         5.6941   55.6649   19.8997 C.3       1 UNK         0.0000 
     20 C20         4.8881   54.5514   20.6325 C.3       1 UNK         0.0000 
     21 H21         3.8545   54.8914   20.7167 H         1 UNK         0.0000 
     22 C22         5.3787   54.4244   22.1076 C.2       1 UNK         0.0000 
     23 O23         6.5628   54.6110   22.3871 O.2       1 UNK         0.0000 
     24 N24         4.4173   54.1640   23.0229 N.am      1 UNK         0.0000 
     25 C25         4.4873   54.1322   24.4292 C.ar      1 UNK         0.0000 
     26 C26         3.2585   54.0191   25.0864 C.ar      1 UNK         0.0000 
     27 C27         3.2076   54.0058   26.4774 C.ar      1 UNK         0.0000 
     28 C28         4.3842   54.1009   27.2169 C.ar      1 UNK         0.0000 
     29 C29         5.6164   54.2063   26.5727 C.ar      1 UNK         0.0000 
     30 C30         5.6714   54.2226   25.1804 C.ar      1 UNK         0.0000 
     31 Br31        4.3049   54.1004   29.1177 Br        1 UNK         0.0000 
     32 H32        -1.2882   47.3103   26.0807 H         1 UNK         0.0000 
     33 H33        -2.5984   47.5691   24.9264 H         1 UNK         0.0000 
     34 H34        -2.2850   48.7606   26.1968 H         1 UNK         0.0000 
     35 H35        -1.5502   51.8226   22.0912 H         1 UNK         0.0000 
     36 H36         0.2083   52.8996   20.7869 H         1 UNK         0.0000 
     37 H37         3.1044   50.2060   22.4996 H         1 UNK         0.0000 
     38 H38         1.3799   49.1315   23.7760 H         1 UNK         0.0000 
     39 H39         2.3704   53.2232   20.3677 H         1 UNK         0.0000 
     40 H40         4.5228   52.4993   17.7864 H         1 UNK         0.0000 
     41 H41         3.2239   53.4738   18.4135 H         1 UNK         0.0000 
     42 H42         4.6210   54.7962   16.6941 H         1 UNK         0.0000 
     43 H43         5.7207   56.5236   17.8267 H         1 UNK         0.0000 
     44 H44         5.5076   56.6420   20.3472 H         1 UNK         0.0000 
     45 H45         6.7684   55.4908   19.9923 H         1 UNK         0.0000 
     46 H46         3.4904   54.0192   22.6520 H         1 UNK         0.0000 
     47 H47         2.3352   53.9451   24.5286 H         1 UNK         0.0000 
     48 H48         2.2560   53.9220   26.9839 H         1 UNK         0.0000 
     49 H49         6.5251   54.2715   27.1549 H         1 UNK         0.0000 
     50 H50         6.6411   54.2956   24.7157 H         1 UNK         0.0000 
@<TRIPOS>BOND
     1    1    2 1    
     2    1   32 1    
     3    1   33 1    
     4    1   34 1    
     5    2    3 1    
     6    3    4 2    
     7    3    5 1    
     8    5   10 ar   
     9    5    6 ar   
    10    6    7 ar   
    11    6   35 1    
    12    7    8 ar   
    13    7   36 1    
    14    8    9 ar   
    15    8   11 1    
    16    9   10 ar   
    17    9   37 1    
    18   10   38 1    
    19   11   12 am   BACKBONE|DICT|INTERRES
    20   11   39 1    
    21   12   13 2    
    22   12   14 1    
    23   14   15 1    
    24   14   20 1    
    25   14   16 1    
    26   16   17 1    
    27   16   40 1    
    28   16   41 1    
    29   17   18 2    
    30   17   42 1    
    31   18   19 1    
    32   18   43 1    
    33   19   20 1    
    34   19   44 1    
    35   19   45 1    
    36   20   21 1    
    37   20   22 1    
    38   22   23 2    
    39   22   24 am   BACKBONE|DICT|INTERRES
    40   24   25 1    
    41   24   46 1    
    42   25   30 ar   
    43   25   26 ar   
    44   26   27 ar   
    45   26   47 1    
    46   27   28 ar   
    47   27   48 1    
    48   28   29 ar   
    49   28   31 1    
    50   29   30 ar   
    51   29   49 1    
    52   30   50 1    
@<TRIPOS>SUBSTRUCTURE
     1 UNK         1 GROUP             0       ****    0 ROOT    
