@<TRIPOS>MOLECULE
ZINC59168060_2835
46   49    1
SMALL
USER_CHARGES


@<TRIPOS>ATOM
      1 C1          4.4780   54.2921   25.8804 C.ar      1 UNK         0.0000 
      2 C2          4.2545   54.0969   24.5153 C.ar      1 UNK         0.0000 
      3 C3          5.2630   54.4087   23.5973 C.ar      1 UNK         0.0000 
      4 C4          6.4801   54.8981   24.0978 C.ar      1 UNK         0.0000 
      5 N5          6.7043   55.1046   25.4206 N.ar      1 UNK         0.0000 
      6 C6          5.7113   54.7985   26.2909 C.ar      1 UNK         0.0000 
      7 N7          5.0018   54.1865   22.2343 N.am      1 UNK         0.0000 
      8 C8          5.5301   54.8214   21.1530 C.2       1 UNK         0.0000 
      9 O9          6.3151   55.7603   21.2887 O.2       1 UNK         0.0000 
     10 C10         5.0928   54.3370   19.8289 C.2       1 UNK         0.0000 
     11 C11         5.4989   54.9437   18.6712 C.2       1 UNK         0.0000 
     12 C12         6.4084   56.0866   18.4463 C.ar      1 UNK         0.0000 
     13 C13         5.8833   57.2758   17.9063 C.ar      1 UNK         0.0000 
     14 C14         6.7027   58.3883   17.6774 C.ar      1 UNK         0.0000 
     15 C15         8.0523   58.2728   17.9848 C.ar      1 UNK         0.0000 
     16 C16         8.5753   57.1140   18.4826 C.ar      1 UNK         0.0000 
     17 C17         7.7848   55.9945   18.7264 C.ar      1 UNK         0.0000 
     18 O18         9.9020   57.2897   18.7187 O.3       1 UNK         0.0000 
     19 C19        10.2318   58.5500   18.2024 C.3       1 UNK         0.0000 
     20 O20         9.0319   59.2127   17.9014 O.3       1 UNK         0.0000 
     21 N21         4.2284   53.2526   19.8307 N.am      1 UNK         0.0000 
     22 C22         3.2763   52.8909   18.9402 C.2       1 UNK         0.0000 
     23 O23         3.0238   53.4915   17.8955 O.2       1 UNK         0.0000 
     24 C24         2.4767   51.6672   19.3285 C.ar      1 UNK         0.0000 
     25 C25         1.9590   50.8366   18.3265 C.ar      1 UNK         0.0000 
     26 C26         1.2089   49.7122   18.6582 C.ar      1 UNK         0.0000 
     27 C27         0.9605   49.4168   19.9964 C.ar      1 UNK         0.0000 
     28 C28         1.4696   50.2303   21.0052 C.ar      1 UNK         0.0000 
     29 C29         2.2222   51.3540   20.6746 C.ar      1 UNK         0.0000 
     30 Br30       -0.0956   47.8984   20.4480 Br        1 UNK         0.0000 
     31 H31         3.7151   54.0493   26.6041 H         1 UNK         0.0000 
     32 H32         3.3027   53.7098   24.1855 H         1 UNK         0.0000 
     33 H33         7.3097   55.1342   23.4466 H         1 UNK         0.0000 
     34 H34         5.9232   54.9696   27.3370 H         1 UNK         0.0000 
     35 H35         4.2201   53.5809   22.0513 H         1 UNK         0.0000 
     36 H36         5.1423   54.5480   17.7327 H         1 UNK         0.0000 
     37 H37         4.8293   57.3492   17.6757 H         1 UNK         0.0000 
     38 H38         6.2838   59.2969   17.2779 H         1 UNK         0.0000 
     39 H39         8.2072   55.0905   19.1385 H         1 UNK         0.0000 
     40 H40        10.8169   58.4178   17.2888 H         1 UNK         0.0000 
     41 H41        10.8000   59.1074   18.9495 H         1 UNK         0.0000 
     42 H42         4.3384   52.6142   20.5997 H         1 UNK         0.0000 
     43 H43         2.1541   51.0441   17.2834 H         1 UNK         0.0000 
     44 H44         0.8236   49.0718   17.8780 H         1 UNK         0.0000 
     45 H45         1.2718   49.9935   22.0398 H         1 UNK         0.0000 
     46 H46         2.5815   51.9802   21.4770 H         1 UNK         0.0000 
@<TRIPOS>BOND
     1    1    6 ar   
     2    1    2 ar   
     3    1   31 1    
     4    2    3 ar   
     5    2   32 1    
     6    3    4 ar   
     7    3    7 1    
     8    4    5 ar   
     9    4   33 1    
    10    5    6 ar   
    11    6   34 1    
    12    7    8 am   BACKBONE|DICT|INTERRES
    13    7   35 1    
    14    8    9 2    
    15    8   10 1    
    16   10   11 2    
    17   10   21 1    
    18   11   12 1    
    19   11   36 1    
    20   12   17 ar   
    21   12   13 ar   
    22   13   14 ar   
    23   13   37 1    
    24   14   15 ar   
    25   14   38 1    
    26   15   20 1    
    27   15   16 ar   
    28   16   17 ar   
    29   16   18 1    
    30   17   39 1    
    31   18   19 1    
    32   19   20 1    
    33   19   40 1    
    34   19   41 1    
    35   21   22 am   BACKBONE|DICT|INTERRES
    36   21   42 1    
    37   22   23 2    
    38   22   24 1    
    39   24   29 ar   
    40   24   25 ar   
    41   25   26 ar   
    42   25   43 1    
    43   26   27 ar   
    44   26   44 1    
    45   27   28 ar   
    46   27   30 1    
    47   28   29 ar   
    48   28   45 1    
    49   29   46 1    
@<TRIPOS>SUBSTRUCTURE
     1 UNK         1 GROUP             0       ****    0 ROOT    
