@<TRIPOS>MOLECULE
ZINC40406545_5314
65   69    1
SMALL
USER_CHARGES


@<TRIPOS>ATOM
      1 C1         -7.9200   45.0560   28.3959 C.ar      1 UNK         0.0000 
      2 C2         -7.5361   46.3370   28.7873 C.ar      1 UNK         0.0000 
      3 C3         -6.2160   46.7455   28.6170 C.ar      1 UNK         0.0000 
      4 C4         -5.2759   45.8736   28.0598 C.ar      1 UNK         0.0000 
      5 C5         -5.6708   44.5822   27.6817 C.ar      1 UNK         0.0000 
      6 C6         -6.9931   44.1777   27.8416 C.ar      1 UNK         0.0000 
      7 C7         -3.8218   46.3392   27.8916 C.3       1 UNK         0.0000 
      8 C8         -3.3350   46.3374   26.4290 C.2       1 UNK         0.0000 
      9 O9         -3.6958   45.4388   25.6680 O.2       1 UNK         0.0000 
     10 N10        -2.4801   47.3243   26.0817 N.am      1 UNK         0.0000 
     11 C11        -1.9794   47.6579   24.8035 C.ar      1 UNK         0.0000 
     12 C12        -2.5208   47.1765   23.5999 C.ar      1 UNK         0.0000 
     13 C13        -1.9903   47.5738   22.3746 C.ar      1 UNK         0.0000 
     14 C14        -0.9274   48.4710   22.3337 C.ar      1 UNK         0.0000 
     15 C15        -0.3907   48.9902   23.5158 C.ar      1 UNK         0.0000 
     16 C16        -0.9171   48.5722   24.7471 C.ar      1 UNK         0.0000 
     17 C17         0.7490   50.0168   23.4558 C.3       1 UNK         0.0000 
     18 H18         1.2580   49.9767   24.4230 H         1 UNK         0.0000 
     19 C19         0.4442   51.4933   23.1327 C.3       1 UNK         0.0000 
     20 H20         0.2689   52.0731   24.0400 H         1 UNK         0.0000 
     21 N21         1.6926   51.8950   22.4918 N.am      1 UNK         0.0000 
     22 C22         2.3872   50.7868   22.0140 C.2       1 UNK         0.0000 
     23 O23         3.3727   50.7240   21.2825 O.2       1 UNK         0.0000 
     24 O24         1.7334   49.6992   22.4827 O.3       1 UNK         0.0000 
     25 C25         2.1228   53.2768   22.2530 C.3       1 UNK         0.0000 
     26 C26         3.3288   53.6961   23.0805 C.ar      1 UNK         0.0000 
     27 C27         3.1572   54.0965   24.4075 C.ar      1 UNK         0.0000 
     28 C28         4.2594   54.4965   25.1605 C.ar      1 UNK         0.0000 
     29 C29         5.5283   54.4967   24.5821 C.ar      1 UNK         0.0000 
     30 C30         5.7056   54.0997   23.2573 C.ar      1 UNK         0.0000 
     31 C31         4.6018   53.7078   22.5022 C.ar      1 UNK         0.0000 
     32 C32        -0.8071   51.6978   22.2330 C.2       1 UNK         0.0000 
     33 O33        -1.9031   51.8435   22.7737 O.2       1 UNK         0.0000 
     34 N34        -0.6200   51.6987   20.8922 N.am      1 UNK         0.0000 
     35 C35        -1.5769   51.7108   19.8657 C.ar      1 UNK         0.0000 
     36 C36        -2.8956   51.2624   20.0259 C.ar      1 UNK         0.0000 
     37 C37        -3.7741   51.2973   18.9475 C.ar      1 UNK         0.0000 
     38 C38        -3.3377   51.7725   17.7141 C.ar      1 UNK         0.0000 
     39 C39        -2.0234   52.2006   17.5422 C.ar      1 UNK         0.0000 
     40 C40        -1.1417   52.1633   18.6188 C.ar      1 UNK         0.0000 
     41 H41        -8.9458   44.7405   28.5260 H         1 UNK         0.0000 
     42 H42        -8.2619   47.0125   29.2157 H         1 UNK         0.0000 
     43 H43        -5.9262   47.7428   28.9197 H         1 UNK         0.0000 
     44 H44        -4.9494   43.8842   27.2820 H         1 UNK         0.0000 
     45 H45        -7.2957   43.1823   27.5502 H         1 UNK         0.0000 
     46 H46        -3.6973   47.3370   28.3146 H         1 UNK         0.0000 
     47 H47        -3.1665   45.6967   28.4750 H         1 UNK         0.0000 
     48 H48        -2.0959   47.8647   26.8564 H         1 UNK         0.0000 
     49 H49        -3.3699   46.5111   23.5837 H         1 UNK         0.0000 
     50 H50        -2.4164   47.2021   21.4546 H         1 UNK         0.0000 
     51 H51        -0.5341   48.7768   21.3749 H         1 UNK         0.0000 
     52 H52        -0.5008   48.9629   25.6660 H         1 UNK         0.0000 
     53 H53         2.3596   53.3928   21.1933 H         1 UNK         0.0000 
     54 H54         1.3018   53.9633   22.4563 H         1 UNK         0.0000 
     55 H55         2.1739   54.0968   24.8552 H         1 UNK         0.0000 
     56 H56         4.1322   54.8001   26.1905 H         1 UNK         0.0000 
     57 H57         6.3848   54.8002   25.1679 H         1 UNK         0.0000 
     58 H58         6.6933   54.0996   22.8190 H         1 UNK         0.0000 
     59 H59         4.7375   53.3971   21.4744 H         1 UNK         0.0000 
     60 H60         0.3388   51.7114   20.5763 H         1 UNK         0.0000 
     61 H61        -3.2490   50.8760   20.9698 H         1 UNK         0.0000 
     62 H62        -4.7892   50.9497   19.0654 H         1 UNK         0.0000 
     63 H63        -4.0192   51.7972   16.8769 H         1 UNK         0.0000 
     64 H64        -1.6880   52.5564   16.5784 H         1 UNK         0.0000 
     65 H65        -0.1209   52.4957   18.4756 H         1 UNK         0.0000 
@<TRIPOS>BOND
     1    1    6 ar   
     2    1    2 ar   
     3    1   41 1    
     4    2    3 ar   
     5    2   42 1    
     6    3    4 ar   
     7    3   43 1    
     8    4    5 ar   
     9    4    7 1    
    10    5    6 ar   
    11    5   44 1    
    12    6   45 1    
    13    7    8 1    
    14    7   46 1    
    15    7   47 1    
    16    8    9 2    
    17    8   10 am   BACKBONE|DICT|INTERRES
    18   10   11 1    
    19   10   48 1    
    20   11   16 ar   
    21   11   12 ar   
    22   12   13 ar   
    23   12   49 1    
    24   13   14 ar   
    25   13   50 1    
    26   14   15 ar   
    27   14   51 1    
    28   15   16 ar   
    29   15   17 1    
    30   16   52 1    
    31   17   18 1    
    32   17   24 1    
    33   17   19 1    
    34   19   20 1    
    35   19   21 1    
    36   19   32 1    
    37   21   22 am   BACKBONE|DICT|INTERRES
    38   21   25 1    
    39   22   23 2    
    40   22   24 1    
    41   25   26 1    
    42   25   53 1    
    43   25   54 1    
    44   26   31 ar   
    45   26   27 ar   
    46   27   28 ar   
    47   27   55 1    
    48   28   29 ar   
    49   28   56 1    
    50   29   30 ar   
    51   29   57 1    
    52   30   31 ar   
    53   30   58 1    
    54   31   59 1    
    55   32   33 2    
    56   32   34 am   BACKBONE|DICT|INTERRES
    57   34   35 1    
    58   34   60 1    
    59   35   40 ar   
    60   35   36 ar   
    61   36   37 ar   
    62   36   61 1    
    63   37   38 ar   
    64   37   62 1    
    65   38   39 ar   
    66   38   63 1    
    67   39   40 ar   
    68   39   64 1    
    69   40   65 1    
@<TRIPOS>SUBSTRUCTURE
     1 UNK         1 GROUP             0       ****    0 ROOT    
