@<TRIPOS>MOLECULE
ZINC33264493_5853
57   59    1
SMALL
USER_CHARGES


@<TRIPOS>ATOM
      1 C1          2.6593   52.2186   16.3423 C.3       1 UNK         0.0000 
      2 C2          3.4696   53.4631   16.7632 C.3       1 UNK         0.0000 
      3 C3          2.7155   54.7521   16.3798 C.3       1 UNK         0.0000 
      4 C4          3.9056   53.4891   18.2357 C.ar      1 UNK         0.0000 
      5 C5          3.3549   52.6277   19.1929 C.ar      1 UNK         0.0000 
      6 C6          3.7435   52.7171   20.5259 C.ar      1 UNK         0.0000 
      7 C7          4.6858   53.6665   20.9229 C.ar      1 UNK         0.0000 
      8 C8          5.2624   54.5113   19.9643 C.ar      1 UNK         0.0000 
      9 C9          4.8726   54.4175   18.6321 C.ar      1 UNK         0.0000 
     10 N10         4.9440   53.7301   22.3023 N.am      1 UNK         0.0000 
     11 C11         5.8176   54.4965   22.9899 C.2       1 UNK         0.0000 
     12 O12         6.7056   55.1817   22.4789 O.2       1 UNK         0.0000 
     13 C13         5.6516   54.4626   24.4936 C.ar      1 UNK         0.0000 
     14 C14         6.7380   54.7748   25.3181 C.ar      1 UNK         0.0000 
     15 C15         6.6407   54.6826   26.7041 C.ar      1 UNK         0.0000 
     16 C16         5.4409   54.2801   27.2846 C.ar      1 UNK         0.0000 
     17 C17         4.3252   53.9833   26.4909 C.ar      1 UNK         0.0000 
     18 C18         4.4336   54.1053   25.0994 C.ar      1 UNK         0.0000 
     19 C19         3.0661   53.4331   27.1712 C.3       1 UNK         0.0000 
     20 H20         3.4719   52.5739   27.7116 H         1 UNK         0.0000 
     21 C21         1.9394   52.8959   26.2465 C.3       1 UNK         0.0000 
     22 C22         0.8114   52.2665   27.0933 C.3       1 UNK         0.0000 
     23 C23         0.2994   53.2241   28.1942 C.3       1 UNK         0.0000 
     24 N24         1.4603   53.6908   28.9871 N.am      1 UNK         0.0000 
     25 C25         2.4579   54.4330   28.1894 C.3       1 UNK         0.0000 
     26 C26         1.8837   53.0353   30.1026 C.2       1 UNK         0.0000 
     27 O27         3.0604   53.0406   30.4801 O.2       1 UNK         0.0000 
     28 N28         0.9054   52.4968   30.8505 N.am      1 UNK         0.0000 
     29 C29         1.0740   52.0754   32.2320 C.3       1 UNK         0.0000 
     30 H30         3.1724   51.2974   16.6189 H         1 UNK         0.0000 
     31 H31         2.5140   52.1912   15.2618 H         1 UNK         0.0000 
     32 H32         1.6713   52.2036   16.8047 H         1 UNK         0.0000 
     33 H33         4.3924   53.4306   16.1813 H         1 UNK         0.0000 
     34 H34         3.3159   55.6425   16.5683 H         1 UNK         0.0000 
     35 H35         2.4554   54.7589   15.3209 H         1 UNK         0.0000 
     36 H36         1.7904   54.8528   16.9490 H         1 UNK         0.0000 
     37 H37         2.6150   51.8905   18.9207 H         1 UNK         0.0000 
     38 H38         3.2877   52.0533   21.2459 H         1 UNK         0.0000 
     39 H39         5.9891   55.2639   20.2223 H         1 UNK         0.0000 
     40 H40         5.3135   55.0844   17.9061 H         1 UNK         0.0000 
     41 H41         4.3384   53.1536   22.8625 H         1 UNK         0.0000 
     42 H42         7.6844   55.0596   24.8817 H         1 UNK         0.0000 
     43 H43         7.5024   54.8953   27.3245 H         1 UNK         0.0000 
     44 H44         5.3877   54.1752   28.3590 H         1 UNK         0.0000 
     45 H45         3.5755   53.8760   24.4871 H         1 UNK         0.0000 
     46 H46         1.5210   53.7087   25.6505 H         1 UNK         0.0000 
     47 H47         2.3039   52.1367   25.5565 H         1 UNK         0.0000 
     48 H48        -0.0193   51.9785   26.4481 H         1 UNK         0.0000 
     49 H49         1.1583   51.3378   27.5501 H         1 UNK         0.0000 
     50 H50        -0.1400   54.1023   27.7332 H         1 UNK         0.0000 
     51 H51        -0.5100   52.8171   28.8008 H         1 UNK         0.0000 
     52 H52         3.1822   54.9353   28.8327 H         1 UNK         0.0000 
     53 H53         1.9420   55.2477   27.6818 H         1 UNK         0.0000 
     54 H54        -0.0451   52.5288   30.5148 H         1 UNK         0.0000 
     55 H55         0.3565   51.2953   32.4825 H         1 UNK         0.0000 
     56 H56         2.0761   51.6989   32.4419 H         1 UNK         0.0000 
     57 H57         0.8705   52.9245   32.8812 H         1 UNK         0.0000 
@<TRIPOS>BOND
     1    1    2 1    
     2    1   30 1    
     3    1   31 1    
     4    1   32 1    
     5    2    3 1    
     6    2    4 1    
     7    2   33 1    
     8    3   34 1    
     9    3   35 1    
    10    3   36 1    
    11    4    9 ar   
    12    4    5 ar   
    13    5    6 ar   
    14    5   37 1    
    15    6    7 ar   
    16    6   38 1    
    17    7    8 ar   
    18    7   10 1    
    19    8    9 ar   
    20    8   39 1    
    21    9   40 1    
    22   10   11 am   BACKBONE|DICT|INTERRES
    23   10   41 1    
    24   11   12 2    
    25   11   13 1    
    26   13   18 ar   
    27   13   14 ar   
    28   14   15 ar   
    29   14   42 1    
    30   15   16 ar   
    31   15   43 1    
    32   16   17 ar   
    33   16   44 1    
    34   17   18 ar   
    35   17   19 1    
    36   18   45 1    
    37   19   20 1    
    38   19   25 1    
    39   19   21 1    
    40   21   22 1    
    41   21   46 1    
    42   21   47 1    
    43   22   23 1    
    44   22   48 1    
    45   22   49 1    
    46   23   24 1    
    47   23   50 1    
    48   23   51 1    
    49   24   25 1    
    50   24   26 am   BACKBONE|DICT|INTERRES
    51   25   52 1    
    52   25   53 1    
    53   26   27 2    
    54   26   28 am   BACKBONE|DICT|INTERRES
    55   28   29 1    
    56   28   54 1    
    57   29   55 1    
    58   29   56 1    
    59   29   57 1    
@<TRIPOS>SUBSTRUCTURE
     1 UNK         1 GROUP             0       ****    0 ROOT    
