ZINC65924952_1821
                    3D
 Schrodinger Suite 2024-2.
 46 49  0  0  1  0            999 V2000
   -1.1787   51.5719   23.1409 C   0  0  0  0  0  0
   -0.2271   52.4007   23.7288 C   0  0  0  0  0  0
    0.4508   52.0108   24.8906 C   0  0  0  0  0  0
    0.1812   50.7436   25.4309 C   0  0  0  0  0  0
   -0.7960   49.9179   24.8688 C   0  0  0  0  0  0
   -1.4722   50.3372   23.7133 C   0  0  0  0  0  0
   -1.1090   48.7375   25.5601 N   0  0  0  0  0  0
   -1.7159   47.6380   25.0872 C   0  0  0  0  0  0
   -1.9475   47.3632   23.9130 O   0  0  0  0  0  0
   -2.0958   46.8540   26.0818 N   0  0  0  0  0  0
    1.4961   52.9426   25.4641 C   0  0  0  0  0  0
    2.2997   53.4314   24.6642 O   0  0  0  0  0  0
    1.5054   53.2751   26.7944 N   0  0  0  0  0  0
    0.5523   52.7603   27.7980 C   0  0  0  0  0  0
    1.1708   52.3830   29.1736 C   0  0  1  0  0  0
    2.6199   51.8006   29.1201 C   0  0  0  0  0  0
    3.7720   52.8410   28.9887 C   0  0  2  0  0  0
    3.5922   53.9275   30.0528 C   0  0  0  0  0  0
    2.2087   54.6039   29.8584 C   0  0  2  0  0  0
    1.1005   53.5754   30.1524 C   0  0  0  0  0  0
    2.0862   55.2033   28.4358 C   0  0  0  0  0  0
    2.5239   54.2399   27.2818 C   0  0  1  0  0  0
    3.8513   53.5359   27.6194 C   0  0  0  0  0  0
   -1.6986   51.8898   22.2497 H   0  0  0  0  0  0
   -0.0150   53.3596   23.2809 H   0  0  0  0  0  0
    0.7183   50.3943   26.3017 H   0  0  0  0  0  0
   -2.2425   49.7304   23.2628 H   0  0  0  0  0  0
   -0.8940   48.7264   26.5517 H   0  0  0  0  0  0
   -1.8931   47.1567   27.0366 H   0  0  0  0  0  0
   -2.7006   46.0712   25.9168 H   0  0  0  0  0  0
   -0.1653   53.5598   27.9787 H   0  0  0  0  0  0
   -0.0507   51.9283   27.4595 H   0  0  0  0  0  0
    0.5202   51.6078   29.5825 H   0  0  0  0  0  0
    2.7911   51.2968   30.0668 H   0  0  0  0  0  0
    2.6979   51.0365   28.3491 H   0  0  0  0  0  0
    4.7222   52.3314   29.1603 H   0  0  0  0  0  0
    3.6944   53.4471   31.0241 H   0  0  0  0  0  0
    4.3936   54.6665   29.9925 H   0  0  0  0  0  0
    2.1001   55.4263   30.5659 H   0  0  0  0  0  0
    0.1180   54.0496   30.1245 H   0  0  0  0  0  0
    1.2103   53.2094   31.1750 H   0  0  0  0  0  0
    1.0748   55.5725   28.2592 H   0  0  0  0  0  0
    2.7052   56.0952   28.4061 H   0  0  0  0  0  0
    2.7460   54.8963   26.4401 H   0  0  0  0  0  0
    4.6607   54.2679   27.6238 H   0  0  0  0  0  0
    4.1194   52.8223   26.8412 H   0  0  0  0  0  0
  1  6  2  0  0  0
  1  2  1  0  0  0
  1 24  1  0  0  0
  2  3  2  0  0  0
  2 25  1  0  0  0
  3  4  1  0  0  0
  3 11  1  0  0  0
  4  5  2  0  0  0
  4 26  1  0  0  0
  5  6  1  0  0  0
  5  7  1  0  0  0
  6 27  1  0  0  0
  7  8  1  0  0  0
  7 28  1  0  0  0
  8  9  2  0  0  0
  8 10  1  0  0  0
 10 29  1  0  0  0
 10 30  1  0  0  0
 11 12  2  0  0  0
 11 13  1  0  0  0
 13 22  1  0  0  0
 13 14  1  0  0  0
 14 15  1  0  0  0
 14 31  1  0  0  0
 14 32  1  0  0  0
 15 20  1  0  0  0
 15 16  1  0  0  0
 15 33  1  0  0  0
 16 17  1  0  0  0
 16 34  1  0  0  0
 16 35  1  0  0  0
 17 23  1  0  0  0
 17 18  1  0  0  0
 17 36  1  0  0  0
 18 19  1  0  0  0
 18 37  1  0  0  0
 18 38  1  0  0  0
 19 20  1  0  0  0
 19 21  1  0  0  0
 19 39  1  0  0  0
 20 40  1  0  0  0
 20 41  1  0  0  0
 21 22  1  0  0  0
 21 42  1  0  0  0
 21 43  1  0  0  0
 22 23  1  0  0  0
 22 44  1  0  0  0
 23 45  1  0  0  0
 23 46  1  0  0  0
M  END
> <i_i_glide_confnum>
9

> <i_i_glide_lignum>
1822

> <i_i_glide_posenum>
316

> <i_i_glide_rotatable_bonds>
4

> <i_m_Source_File_Index>
1103

> <b_m_subgroup_collapsed>
0

> <r_i_docking_score>
-5.53584

> <r_i_glide_ecoul>
-3.82001

> <r_i_glide_eff_state_penalty>
0

> <r_i_glide_einternal>
1.82027

> <r_i_glide_emodel>
-45.2273

> <r_i_glide_energy>
-33.4858

> <r_i_glide_erotb>
0.567325

> <r_i_glide_esite>
-0.279928

> <r_i_glide_evdw>
-29.6658

> <r_i_glide_gscore>
-5.53584

> <r_i_glide_hbond>
-0.301764

> <r_i_glide_ligand_efficiency>
-0.240689

> <r_i_glide_ligand_efficiency_ln>
-1.33862

> <r_i_glide_ligand_efficiency_sa>
-0.684486

> <r_i_glide_lipo>
-1.65198

> <r_i_glide_metal>
0

> <r_i_glide_rewards>
-1.81321

> <s_i_glide_gridfile>
wee1_glide-grid

> <s_m_Source_File>
wee1_decoys_glide_SP.sdf

> <s_m_Source_Path>
/Users/zhangxujun/Desktop

> <s_m_entry_id>
1378

> <s_m_entry_name>
wee1_decoys_glide_SP.1103

> <s_m_subgroup_title>
wee1_decoys_glide_SP

> <s_m_subgroupid>
wee1_decoys_glide_SP


$$$$
