@<TRIPOS>MOLECULE
ZINC02865615_3094
63   66    1
SMALL
USER_CHARGES


@<TRIPOS>ATOM
      1 C1          3.6287   52.2634   31.3113 C.3       1 UNK         0.0000 
      2 C2          3.4992   53.0267   30.0076 C.ar      1 UNK         0.0000 
      3 C3          4.3489   52.7686   28.9333 C.ar      1 UNK         0.0000 
      4 C4          4.2153   53.5560   27.7876 C.ar      1 UNK         0.0000 
      5 N5          3.2719   54.5361   27.7089 N.ar      1 UNK         0.0000 
      6 C6          2.4979   54.7197   28.8143 C.ar      1 UNK         0.0000 
      7 N7          2.5591   54.0035   29.9658 N.ar      1 UNK         0.0000 
      8 C8          1.5041   55.8635   28.7861 C.3       1 UNK         0.0000 
      9 N9          5.1412   53.3295   26.7592 N.pl3     1 UNK         0.0000 
     10 S10         5.5045   54.4189   25.4057 S.o2      1 UNK         0.0000 
     11 O11         4.8719   55.6967   25.6817 O.2       1 UNK         0.0000 
     12 O12         6.9546   54.3343   25.2039 O.2       1 UNK         0.0000 
     13 C13         4.7028   53.8102   23.9264 C.ar      1 UNK         0.0000 
     14 C14         5.4925   53.4545   22.8344 C.ar      1 UNK         0.0000 
     15 C15         4.8989   52.8965   21.7075 C.ar      1 UNK         0.0000 
     16 C16         3.5270   52.6671   21.6756 C.ar      1 UNK         0.0000 
     17 C17         2.7202   53.1097   22.7379 C.ar      1 UNK         0.0000 
     18 C18         3.3113   53.6966   23.8606 C.ar      1 UNK         0.0000 
     19 N19         3.0856   51.9499   20.5503 N.am      1 UNK         0.0000 
     20 C20         1.9429   51.2620   20.3693 C.2       1 UNK         0.0000 
     21 O21         1.0156   51.2181   21.1781 O.2       1 UNK         0.0000 
     22 C22         1.8907   50.4585   19.0589 C.3       1 UNK         0.0000 
     23 S23         0.2490   49.8144   18.5837 S.3       1 UNK         0.0000 
     24 C24        -0.5771   51.3424   18.2734 C.ar      1 UNK         0.0000 
     25 N25        -1.7034   51.6697   18.8569 N.2       1 UNK         0.0000 
     26 N26        -2.1004   52.8967   18.3433 N.2       1 UNK         0.0000 
     27 C27        -1.2277   53.2407   17.4254 C.ar      1 UNK         0.0000 
     28 N28        -0.2497   52.2764   17.3109 N.pl3     1 UNK         0.0000 
     29 N29         0.8111   52.2541   16.4191 N.3       1 UNK         0.0000 
     30 C30        -1.2564   54.5435   16.6272 C.3       1 UNK         0.0000 
     31 C31        -2.6331   55.2603   16.6487 C.3       1 UNK         0.0000 
     32 C32        -2.6374   56.6026   15.8898 C.3       1 UNK         0.0000 
     33 C33        -1.5134   57.5387   16.3639 C.3       1 UNK         0.0000 
     34 C34        -0.1426   56.8506   16.2647 C.3       1 UNK         0.0000 
     35 C35        -0.1106   55.5104   17.0262 C.3       1 UNK         0.0000 
     36 H36         4.1017   51.2969   31.1527 H         1 UNK         0.0000 
     37 H37         2.6549   52.0961   31.7755 H         1 UNK         0.0000 
     38 H38         4.2551   52.8176   32.0122 H         1 UNK         0.0000 
     39 H39         5.1044   52.0082   29.0031 H         1 UNK         0.0000 
     40 H40         1.0591   56.0402   29.7663 H         1 UNK         0.0000 
     41 H41         1.9928   56.7886   28.4819 H         1 UNK         0.0000 
     42 H42         0.7046   55.6491   28.0804 H         1 UNK         0.0000 
     43 H43         5.7849   52.5635   26.8825 H         1 UNK         0.0000 
     44 H44         6.5651   53.5759   22.8815 H         1 UNK         0.0000 
     45 H45         5.5044   52.5865   20.8710 H         1 UNK         0.0000 
     46 H46         1.6483   52.9841   22.7203 H         1 UNK         0.0000 
     47 H47         2.6992   54.0064   24.6961 H         1 UNK         0.0000 
     48 H48         3.7813   51.8342   19.8267 H         1 UNK         0.0000 
     49 H49         2.3235   51.0290   18.2393 H         1 UNK         0.0000 
     50 H50         2.5443   49.5944   19.1835 H         1 UNK         0.0000 
     51 H51         1.7032   52.3620   16.8786 H         1 UNK         0.0000 
     52 H52         0.7662   51.4621   15.7939 H         1 UNK         0.0000 
     53 H53        -1.0798   54.3300   15.5712 H         1 UNK         0.0000 
     54 H54        -3.4027   54.6219   16.2117 H         1 UNK         0.0000 
     55 H55        -2.8954   55.4840   17.6814 H         1 UNK         0.0000 
     56 H56        -2.5260   56.4147   14.8206 H         1 UNK         0.0000 
     57 H57        -3.6041   57.0934   16.0113 H         1 UNK         0.0000 
     58 H58        -1.5127   58.4549   15.7724 H         1 UNK         0.0000 
     59 H59        -1.6951   57.8426   17.3961 H         1 UNK         0.0000 
     60 H60         0.1035   56.6791   15.2156 H         1 UNK         0.0000 
     61 H61         0.6322   57.5155   16.6514 H         1 UNK         0.0000 
     62 H62        -0.2030   55.7532   18.0817 H         1 UNK         0.0000 
     63 H63         0.8637   55.0536   16.8487 H         1 UNK         0.0000 
@<TRIPOS>BOND
     1    1    2 1    
     2    1   36 1    
     3    1   37 1    
     4    1   38 1    
     5    2    7 ar   
     6    2    3 ar   
     7    3    4 ar   
     8    3   39 1    
     9    4    5 ar   
    10    4    9 1    
    11    5    6 ar   
    12    6    7 ar   
    13    6    8 1    
    14    8   40 1    
    15    8   41 1    
    16    8   42 1    
    17    9   10 1    
    18    9   43 1    
    19   10   11 2    
    20   10   12 2    
    21   10   13 1    
    22   13   18 ar   
    23   13   14 ar   
    24   14   15 ar   
    25   14   44 1    
    26   15   16 ar   
    27   15   45 1    
    28   16   17 ar   
    29   16   19 1    
    30   17   18 ar   
    31   17   46 1    
    32   18   47 1    
    33   19   20 am   BACKBONE|DICT|INTERRES
    34   19   48 1    
    35   20   21 2    
    36   20   22 1    
    37   22   23 1    
    38   22   49 1    
    39   22   50 1    
    40   23   24 1    
    41   24   28 ar   
    42   24   25 ar   
    43   25   26 ar   
    44   26   27 ar   
    45   27   28 ar   
    46   27   30 1    
    47   28   29 1    
    48   29   51 1    
    49   29   52 1    
    50   30   35 1    
    51   30   31 1    
    52   30   53 1    
    53   31   32 1    
    54   31   54 1    
    55   31   55 1    
    56   32   33 1    
    57   32   56 1    
    58   32   57 1    
    59   33   34 1    
    60   33   58 1    
    61   33   59 1    
    62   34   35 1    
    63   34   60 1    
    64   34   61 1    
    65   35   62 1    
    66   35   63 1    
@<TRIPOS>SUBSTRUCTURE
     1 UNK         1 GROUP             0       ****    0 ROOT    
