@<TRIPOS>MOLECULE
ZINC42393315_1746
36   37    1
SMALL
USER_CHARGES


@<TRIPOS>ATOM
      1 C1          4.1580   54.0610   22.0123 C.3       1 UNK         0.0000 
      2 C2          4.3861   54.0967   23.5190 C.ar      1 UNK         0.0000 
      3 C3          3.3342   53.7405   24.3712 C.ar      1 UNK         0.0000 
      4 C4          3.4943   53.7172   25.7650 C.ar      1 UNK         0.0000 
      5 C5          4.7234   54.1452   26.2895 C.ar      1 UNK         0.0000 
      6 C6          5.7759   54.5149   25.4536 C.ar      1 UNK         0.0000 
      7 C7          5.6200   54.4815   24.0693 C.ar      1 UNK         0.0000 
      8 N8          6.7044   54.8276   23.2601 N.pl3     1 UNK         0.0000 
      9 N9          2.4400   53.3129   26.6099 N.pl3     1 UNK         0.0000 
     10 C10         1.2125   52.6451   26.1550 C.3       1 UNK         0.0000 
     11 C11         0.3852   52.2846   27.3847 C.3       1 UNK         0.0000 
     12 C12         1.4660   51.9477   28.3907 C.3       1 UNK         0.0000 
     13 C13         2.5807   52.9508   28.0391 C.3       1 UNK         0.0000 
     14 H14         3.5598   52.4950   28.2025 H         1 UNK         0.0000 
     15 C15         2.5465   54.1794   28.9878 C.2       1 UNK         0.0000 
     16 O16         3.1044   54.0973   30.0817 O.2       1 UNK         0.0000 
     17 N17         1.8692   55.2755   28.6058 N.am      1 UNK         0.0000 
     18 C18         1.7274   56.4774   29.4184 C.3       1 UNK         0.0000 
     19 H19         4.5329   54.9725   21.5474 H         1 UNK         0.0000 
     20 H20         4.6891   53.2187   21.5673 H         1 UNK         0.0000 
     21 H21         3.0999   53.9896   21.7567 H         1 UNK         0.0000 
     22 H22         2.3933   53.4444   23.9331 H         1 UNK         0.0000 
     23 H23         4.8888   54.1773   27.3551 H         1 UNK         0.0000 
     24 H24         6.7152   54.8164   25.8910 H         1 UNK         0.0000 
     25 H25         6.5983   54.7621   22.2591 H         1 UNK         0.0000 
     26 H26         7.6238   54.9667   23.6655 H         1 UNK         0.0000 
     27 H27         1.4594   51.7513   25.5794 H         1 UNK         0.0000 
     28 H28         0.6664   53.2967   25.4743 H         1 UNK         0.0000 
     29 H29        -0.2853   51.4433   27.2011 H         1 UNK         0.0000 
     30 H30        -0.2324   53.1269   27.7012 H         1 UNK         0.0000 
     31 H31         1.8269   50.9247   28.2676 H         1 UNK         0.0000 
     32 H32         1.1007   52.0201   29.4172 H         1 UNK         0.0000 
     33 H33         1.4490   55.2689   27.6886 H         1 UNK         0.0000 
     34 H34         1.1563   57.2343   28.8831 H         1 UNK         0.0000 
     35 H35         2.7041   56.8966   29.6600 H         1 UNK         0.0000 
     36 H36         1.2077   56.2560   30.3519 H         1 UNK         0.0000 
@<TRIPOS>BOND
     1    1    2 1    
     2    1   19 1    
     3    1   20 1    
     4    1   21 1    
     5    2    7 ar   
     6    2    3 ar   
     7    3    4 ar   
     8    3   22 1    
     9    4    5 ar   
    10    4    9 1    
    11    5    6 ar   
    12    5   23 1    
    13    6    7 ar   
    14    6   24 1    
    15    7    8 1    
    16    8   25 1    
    17    8   26 1    
    18    9   13 1    
    19    9   10 1    
    20   10   11 1    
    21   10   27 1    
    22   10   28 1    
    23   11   12 1    
    24   11   29 1    
    25   11   30 1    
    26   12   13 1    
    27   12   31 1    
    28   12   32 1    
    29   13   14 1    
    30   13   15 1    
    31   15   16 2    
    32   15   17 am   BACKBONE|DICT|INTERRES
    33   17   18 1    
    34   17   33 1    
    35   18   34 1    
    36   18   35 1    
    37   18   36 1    
@<TRIPOS>SUBSTRUCTURE
     1 UNK         1 GROUP             0       ****    0 ROOT    
