ZINC37928302_4789
                    3D
 Schrodinger Suite 2024-2.
 41 42  0  0  1  0            999 V2000
    2.7477   55.4685   29.1094 C   0  0  0  0  0  0
    1.5405   54.5290   29.0268 C   0  0  2  0  0  0
    0.7045   55.1200   28.6469 H   0  0  0  0  0  0
    1.1573   53.9932   30.4279 C   0  0  0  0  0  0
   -0.0952   53.1185   30.3626 C   0  0  0  0  0  0
    0.0355   51.9887   29.3275 C   0  0  0  0  0  0
    0.4346   52.5443   27.9460 C   0  0  1  0  0  0
   -0.3576   53.2095   27.6038 H   0  0  0  0  0  0
    1.7600   53.3610   28.0231 C   0  0  2  0  0  0
    1.9247   53.7897   27.0324 H   0  0  0  0  0  0
    3.0040   52.5134   28.3813 C   0  0  0  0  0  0
    0.5835   51.3900   27.0201 N   0  0  0  0  0  0
   -0.3907   51.2912   25.5500 S   0  0  0  0  0  0
   -1.0265   49.9714   25.5466 O   0  0  0  0  0  0
   -1.2184   52.4967   25.4486 O   0  0  0  0  0  0
    0.7778   51.3519   24.1773 C   0  0  0  0  0  0
    1.3628   52.5744   23.8206 C   0  0  0  0  0  0
    2.2241   52.6553   22.7271 C   0  0  0  0  0  0
    2.5190   51.5160   21.9840 C   0  0  0  0  0  0
    1.9637   50.2908   22.3429 C   0  0  0  0  0  0
    1.0948   50.2036   23.4310 C   0  0  0  0  0  0
    0.5693   48.9923   23.7273 F   0  0  0  0  0  0
    3.3726   51.6056   20.8866 N   0  0  0  0  0  0
    1.1037   53.6998   24.5217 F   0  0  0  0  0  0
    3.5805   55.0240   29.6533 H   0  0  0  0  0  0
    3.1048   55.6967   28.1076 H   0  0  0  0  0  0
    2.4931   56.4092   29.6005 H   0  0  0  0  0  0
    1.9827   53.4364   30.8747 H   0  0  0  0  0  0
    0.9887   54.8282   31.1105 H   0  0  0  0  0  0
   -0.3380   52.7117   31.3439 H   0  0  0  0  0  0
   -0.8976   53.7834   30.0809 H   0  0  0  0  0  0
    0.7943   51.2954   29.6814 H   0  0  0  0  0  0
   -0.8924   51.4193   29.2632 H   0  0  0  0  0  0
    2.9580   52.0748   29.3757 H   0  0  0  0  0  0
    3.9258   53.0896   28.3143 H   0  0  0  0  0  0
    3.1042   51.6969   27.6819 H   0  0  0  0  0  0
    0.6283   50.4922   27.5053 H   0  0  0  0  0  0
    2.6556   53.6094   22.4608 H   0  0  0  0  0  0
    2.2009   49.3973   21.7816 H   0  0  0  0  0  0
    3.6487   52.5222   20.5654 H   0  0  0  0  0  0
    3.4710   50.8136   20.2625 H   0  0  0  0  0  0
  1  2  1  0  0  0
  1 25  1  0  0  0
  1 26  1  0  0  0
  1 27  1  0  0  0
  2  3  1  0  0  0
  2  9  1  0  0  0
  2  4  1  0  0  0
  4  5  1  0  0  0
  4 28  1  0  0  0
  4 29  1  0  0  0
  5  6  1  0  0  0
  5 30  1  0  0  0
  5 31  1  0  0  0
  6  7  1  0  0  0
  6 32  1  0  0  0
  6 33  1  0  0  0
  7  8  1  0  0  0
  7  9  1  0  0  0
  7 12  1  0  0  0
  9 10  1  0  0  0
  9 11  1  0  0  0
 11 34  1  0  0  0
 11 35  1  0  0  0
 11 36  1  0  0  0
 12 13  1  0  0  0
 12 37  1  0  0  0
 13 14  2  0  0  0
 13 15  2  0  0  0
 13 16  1  0  0  0
 16 21  2  0  0  0
 16 17  1  0  0  0
 17 18  2  0  0  0
 17 24  1  0  0  0
 18 19  1  0  0  0
 18 38  1  0  0  0
 19 20  2  0  0  0
 19 23  1  0  0  0
 20 21  1  0  0  0
 20 39  1  0  0  0
 21 22  1  0  0  0
 23 40  1  0  0  0
 23 41  1  0  0  0
M  END
> <i_i_glide_confnum>
19

> <i_i_glide_lignum>
4790

> <i_i_glide_posenum>
186

> <i_i_glide_rotatable_bonds>
3

> <i_m_Source_File_Index>
2654

> <b_m_subgroup_collapsed>
0

> <r_i_docking_score>
-4.32118

> <r_i_glide_ecoul>
-0.0246584

> <r_i_glide_eff_state_penalty>
0

> <r_i_glide_einternal>
3.88752

> <r_i_glide_emodel>
-37.2571

> <r_i_glide_energy>
-30.3601

> <r_i_glide_erotb>
0.551775

> <r_i_glide_esite>
-0.116864

> <r_i_glide_evdw>
-30.3354

> <r_i_glide_gscore>
-4.32118

> <r_i_glide_hbond>
0

> <r_i_glide_ligand_efficiency>
-0.20577

> <r_i_glide_ligand_efficiency_ln>
-1.0684

> <r_i_glide_ligand_efficiency_sa>
-0.567705

> <r_i_glide_lipo>
-1.83246

> <r_i_glide_metal>
0

> <r_i_glide_rewards>
-1.40316

> <s_i_glide_gridfile>
wee1_glide-grid

> <s_m_Source_File>
wee1_decoys_glide_SP.sdf

> <s_m_Source_Path>
/Users/zhangxujun/Desktop

> <s_m_entry_id>
2929

> <s_m_entry_name>
wee1_decoys_glide_SP.2654

> <s_m_subgroup_title>
wee1_decoys_glide_SP

> <s_m_subgroupid>
wee1_decoys_glide_SP


$$$$
