ZINC40111638_552
                    3D
 Schrodinger Suite 2024-2.
 55 58  0  0  1  0            999 V2000
    0.4601   54.4728   30.9044 C   0  0  0  0  0  0
    1.1066   55.3033   29.9932 C   0  0  0  0  0  0
    1.7064   54.7484   28.8670 C   0  0  0  0  0  0
    1.6849   53.3606   28.6712 C   0  0  0  0  0  0
    1.0508   52.5382   29.6085 C   0  0  0  0  0  0
    0.4335   53.0936   30.7239 C   0  0  0  0  0  0
    2.2802   52.7234   27.4077 C   0  0  1  0  0  0
    2.5201   51.6877   27.6468 H   0  0  0  0  0  0
    1.4161   52.8155   26.1770 C   0  0  0  0  0  0
    2.0981   53.5246   25.2569 C   0  0  0  0  0  0
    3.4309   53.8851   25.7157 C   0  0  0  0  0  0
    4.3292   54.4932   25.1228 O   0  0  0  0  0  0
    3.5063   53.3612   26.9613 N   0  0  0  0  0  0
    4.7774   53.1612   27.6619 C   0  0  0  0  0  0
    5.4721   54.4332   28.1544 C   0  0  0  0  0  0
    6.7996   54.0967   28.4815 O   0  0  0  0  0  0
    1.7683   53.8600   24.0575 O   0  5  0  0  0  0
    0.1287   52.0958   26.1037 C   0  0  0  0  0  0
   -0.4260   51.7145   27.1321 O   0  0  0  0  0  0
   -0.3963   51.6340   24.7909 C   0  0  0  0  0  0
   -0.9213   52.5447   23.8718 C   0  0  0  0  0  0
   -1.3665   52.0988   22.6338 C   0  0  0  0  0  0
   -1.3027   50.7451   22.3122 C   0  0  0  0  0  0
   -0.8315   49.8215   23.2473 C   0  0  0  0  0  0
   -0.3846   50.2660   24.4900 C   0  0  0  0  0  0
   -1.7607   50.2238   20.6619 S   0  0  0  0  0  0
   -2.2083   48.8285   20.7482 O   0  0  0  0  0  0
   -2.6423   51.2600   20.1061 O   0  0  0  0  0  0
   -0.2429   50.2584   19.7521 N   0  0  0  0  0  0
    0.4250   51.5682   19.5440 C   0  0  0  0  0  0
    1.6900   51.4217   20.3706 C   0  0  0  0  0  0
    2.0806   49.9794   20.1232 C   0  0  0  0  0  0
    0.7671   49.1898   20.0207 C   0  0  0  0  0  0
   -0.0205   54.8963   31.7724 H   0  0  0  0  0  0
    1.1209   56.3727   30.1473 H   0  0  0  0  0  0
    2.1774   55.3964   28.1424 H   0  0  0  0  0  0
    1.0026   51.4698   29.4525 H   0  0  0  0  0  0
   -0.0757   52.4607   31.4380 H   0  0  0  0  0  0
    4.5919   52.5122   28.5185 H   0  0  0  0  0  0
    5.4418   52.6055   26.9976 H   0  0  0  0  0  0
    5.5116   55.1847   27.3660 H   0  0  0  0  0  0
    4.9235   54.9008   28.9725 H   0  0  0  0  0  0
    7.2080   54.8635   28.9098 H   0  0  0  0  0  0
   -0.9487   53.6015   24.0961 H   0  0  0  0  0  0
   -1.7277   52.8167   21.9147 H   0  0  0  0  0  0
   -0.7886   48.7686   23.0081 H   0  0  0  0  0  0
   -0.0059   49.5456   25.2044 H   0  0  0  0  0  0
    0.7023   51.6579   18.4927 H   0  0  0  0  0  0
   -0.2190   52.4286   19.7281 H   0  0  0  0  0  0
    2.4664   52.1269   20.0697 H   0  0  0  0  0  0
    1.4808   51.5980   21.4278 H   0  0  0  0  0  0
    2.7253   49.5909   20.9117 H   0  0  0  0  0  0
    2.6407   49.9056   19.1874 H   0  0  0  0  0  0
    0.6318   48.7224   20.9961 H   0  0  0  0  0  0
    0.9018   48.5089   19.1799 H   0  0  0  0  0  0
  1  6  2  0  0  0
  1  2  1  0  0  0
  1 34  1  0  0  0
  2  3  2  0  0  0
  2 35  1  0  0  0
  3  4  1  0  0  0
  3 36  1  0  0  0
  4  5  2  0  0  0
  4  7  1  0  0  0
  5  6  1  0  0  0
  5 37  1  0  0  0
  6 38  1  0  0  0
  7  8  1  0  0  0
  7 13  1  0  0  0
  7  9  1  0  0  0
  9 10  2  0  0  0
  9 18  1  0  0  0
 10 11  1  0  0  0
 10 17  1  0  0  0
 11 12  2  0  0  0
 11 13  1  0  0  0
 13 14  1  0  0  0
 14 15  1  0  0  0
 14 39  1  0  0  0
 14 40  1  0  0  0
 15 16  1  0  0  0
 15 41  1  0  0  0
 15 42  1  0  0  0
 16 43  1  0  0  0
 18 19  2  0  0  0
 18 20  1  0  0  0
 20 25  2  0  0  0
 20 21  1  0  0  0
 21 22  2  0  0  0
 21 44  1  0  0  0
 22 23  1  0  0  0
 22 45  1  0  0  0
 23 24  2  0  0  0
 23 26  1  0  0  0
 24 25  1  0  0  0
 24 46  1  0  0  0
 25 47  1  0  0  0
 26 27  2  0  0  0
 26 28  2  0  0  0
 26 29  1  0  0  0
 29 33  1  0  0  0
 29 30  1  0  0  0
 30 31  1  0  0  0
 30 48  1  0  0  0
 30 49  1  0  0  0
 31 32  1  0  0  0
 31 50  1  0  0  0
 31 51  1  0  0  0
 32 33  1  0  0  0
 32 52  1  0  0  0
 32 53  1  0  0  0
 33 54  1  0  0  0
 33 55  1  0  0  0
M  CHG  1  17  -1
M  END
> <i_i_glide_confnum>
76

> <i_i_glide_lignum>
553

> <i_i_glide_posenum>
349

> <i_i_glide_rotatable_bonds>
8

> <i_m_Source_File_Index>
5667

> <b_m_subgroup_collapsed>
0

> <r_i_docking_score>
-5.71744

> <r_i_glide_ecoul>
-6.8931

> <r_i_glide_eff_state_penalty>
0

> <r_i_glide_einternal>
7.8071

> <r_i_glide_emodel>
-61.1046

> <r_i_glide_energy>
-46.0677

> <r_i_glide_erotb>
0.677772

> <r_i_glide_esite>
-0.0240743

> <r_i_glide_evdw>
-39.1746

> <r_i_glide_gscore>
-5.71744

> <r_i_glide_hbond>
-0.32

> <r_i_glide_ligand_efficiency>
-0.17867

> <r_i_glide_ligand_efficiency_ln>
-1.28029

> <r_i_glide_ligand_efficiency_sa>
-0.567242

> <r_i_glide_lipo>
-2.30097

> <r_i_glide_metal>
0

> <r_i_glide_rewards>
-0.75748

> <s_i_glide_gridfile>
wee1_glide-grid

> <s_m_Source_File>
wee1_decoys_glide_SP.sdf

> <s_m_Source_Path>
/Users/zhangxujun/Desktop

> <s_m_entry_id>
5942

> <s_m_entry_name>
wee1_decoys_glide_SP.5667

> <s_m_subgroup_title>
wee1_decoys_glide_SP

> <s_m_subgroupid>
wee1_decoys_glide_SP


$$$$
