ZINC10149126_4421
                    3D
 Schrodinger Suite 2024-2.
 40 41  0  0  1  0            999 V2000
    6.5356   56.0136   21.6193 C   0  0  0  0  0  0
    6.3142   54.5174   21.8283 C   0  0  0  0  0  0
    5.0309   54.1447   22.5586 C   0  0  0  0  0  0
    3.9049   53.7022   21.8474 C   0  0  0  0  0  0
    2.5879   53.3358   22.9018 S   0  0  0  0  0  0
    3.5290   53.7287   24.3067 C   0  0  0  0  0  0
    4.8484   54.0967   23.9758 C   0  0  0  0  0  0
    5.8621   54.4968   24.9570 C   0  0  0  0  0  0
    6.7044   55.3619   24.7468 O   0  0  0  0  0  0
    5.8120   53.8912   26.1461 N   0  0  0  0  0  0
    2.9802   53.7223   25.5840 N   0  0  0  0  0  0
    1.8411   53.1496   26.0214 C   0  0  0  0  0  0
    1.1209   52.4030   25.3575 O   0  0  0  0  0  0
    1.5046   53.4518   27.4605 C   0  0  0  0  0  0
    0.7042   52.5713   28.2010 C   0  0  0  0  0  0
    0.3086   52.8988   29.4974 C   0  0  0  0  0  0
    0.6855   54.1270   30.0624 C   0  0  0  0  0  0
    1.4734   55.0018   29.3266 C   0  0  0  0  0  0
    1.9117   54.6550   28.0584 C   0  0  0  0  0  0
    1.9044   56.8967   30.0818 I   0  0  0  0  0  0
    0.3043   54.5447   31.3133 O   0  0  0  0  0  0
    0.3045   53.5667   32.3287 C   0  0  0  0  0  0
    3.7329   53.5241   20.3534 C   0  0  0  0  0  0
    7.4191   56.1899   21.0054 H   0  0  0  0  0  0
    5.6861   56.4860   21.1266 H   0  0  0  0  0  0
    6.7045   56.4967   22.5721 H   0  0  0  0  0  0
    7.1760   54.0968   22.3490 H   0  0  0  0  0  0
    6.3044   54.0967   20.8254 H   0  0  0  0  0  0
    5.3005   53.0257   26.2479 H   0  0  0  0  0  0
    6.4516   54.1794   26.8705 H   0  0  0  0  0  0
    3.5773   54.1107   26.2983 H   0  0  0  0  0  0
    0.3664   51.6365   27.7726 H   0  0  0  0  0  0
   -0.3207   52.2051   30.0351 H   0  0  0  0  0  0
    2.5140   55.3731   27.5230 H   0  0  0  0  0  0
    0.1078   54.0122   33.3031 H   0  0  0  0  0  0
   -0.4956   52.8967   32.0817 H   0  0  0  0  0  0
    1.2307   52.9927   32.3787 H   0  0  0  0  0  0
    4.0119   54.4251   19.8067 H   0  0  0  0  0  0
    4.3487   52.7089   19.9717 H   0  0  0  0  0  0
    2.7042   53.2963   20.0738 H   0  0  0  0  0  0
  1  2  1  0  0  0
  1 24  1  0  0  0
  1 25  1  0  0  0
  1 26  1  0  0  0
  2  3  1  0  0  0
  2 27  1  0  0  0
  2 28  1  0  0  0
  3  7  1  0  0  0
  3  4  2  0  0  0
  4  5  1  0  0  0
  4 23  1  0  0  0
  5  6  1  0  0  0
  6  7  2  0  0  0
  6 11  1  0  0  0
  7  8  1  0  0  0
  8  9  2  0  0  0
  8 10  1  0  0  0
 10 29  1  0  0  0
 10 30  1  0  0  0
 11 12  1  0  0  0
 11 31  1  0  0  0
 12 13  2  0  0  0
 12 14  1  0  0  0
 14 19  2  0  0  0
 14 15  1  0  0  0
 15 16  2  0  0  0
 15 32  1  0  0  0
 16 17  1  0  0  0
 16 33  1  0  0  0
 17 18  2  0  0  0
 17 21  1  0  0  0
 18 19  1  0  0  0
 18 20  1  0  0  0
 19 34  1  0  0  0
 21 22  1  0  0  0
 22 35  1  0  0  0
 22 36  1  0  0  0
 22 37  1  0  0  0
 23 38  1  0  0  0
 23 39  1  0  0  0
 23 40  1  0  0  0
M  END
> <i_i_glide_confnum>
10

> <i_i_glide_lignum>
4422

> <i_i_glide_posenum>
156

> <i_i_glide_rotatable_bonds>
6

> <i_m_Source_File_Index>
848

> <b_m_subgroup_collapsed>
0

> <r_i_docking_score>
-6.00501

> <r_i_glide_ecoul>
-2.60088

> <r_i_glide_eff_state_penalty>
0

> <r_i_glide_einternal>
4.5081

> <r_i_glide_emodel>
-55.7932

> <r_i_glide_energy>
-42.4778

> <r_i_glide_erotb>
0.303944

> <r_i_glide_esite>
0

> <r_i_glide_evdw>
-39.877

> <r_i_glide_gscore>
-6.00501

> <r_i_glide_hbond>
-0.0119688

> <r_i_glide_ligand_efficiency>
-0.261087

> <r_i_glide_ligand_efficiency_ln>
-1.45207

> <r_i_glide_ligand_efficiency_sa>
-0.742498

> <r_i_glide_lipo>
-2.89888

> <r_i_glide_metal>
0

> <r_i_glide_rewards>
-1.01413

> <s_i_glide_gridfile>
wee1_glide-grid

> <s_m_Source_File>
wee1_decoys_glide_SP.sdf

> <s_m_Source_Path>
/Users/zhangxujun/Desktop

> <s_m_entry_id>
1123

> <s_m_entry_name>
wee1_decoys_glide_SP.848

> <s_m_subgroup_title>
wee1_decoys_glide_SP

> <s_m_subgroupid>
wee1_decoys_glide_SP


$$$$
