@<TRIPOS>MOLECULE
ZINC58686634_4302
41   42    1
SMALL
USER_CHARGES


@<TRIPOS>ATOM
      1 C1         -3.7441   51.4664   24.7001 C.3       1 UNK         0.0000 
      2 C2         -2.4204   50.6623   24.6275 C.3       1 UNK         0.0000 
      3 H3         -2.6878   49.6465   24.3321 H         1 UNK         0.0000 
      4 C4         -1.4890   51.1678   23.5064 C.ar      1 UNK         0.0000 
      5 C5         -0.1521   51.5416   23.7270 C.ar      1 UNK         0.0000 
      6 C6          0.6489   51.9833   22.6728 C.ar      1 UNK         0.0000 
      7 C7          0.1330   52.0444   21.3797 C.ar      1 UNK         0.0000 
      8 C8         -1.1854   51.6578   21.1417 C.ar      1 UNK         0.0000 
      9 C9         -1.9856   51.2214   22.1968 C.ar      1 UNK         0.0000 
     10 Br10       -1.8960   51.7046   19.3754 Br        1 UNK         0.0000 
     11 N11        -1.8195   50.4699   25.9587 N.am      1 UNK         0.0000 
     12 C12        -1.4369   51.4237   26.8235 C.2       1 UNK         0.0000 
     13 O13        -1.4857   52.6290   26.5947 O.2       1 UNK         0.0000 
     14 N14        -0.9768   50.8966   27.9604 N.am      1 UNK         0.0000 
     15 C15        -0.5711   51.6302   29.1678 C.3       1 UNK         0.0000 
     16 C16         0.7749   52.3850   29.0807 C.2       1 UNK         0.0000 
     17 O17         1.1336   53.0467   30.0553 O.2       1 UNK         0.0000 
     18 N18         1.4993   52.2916   27.9460 N.am      1 UNK         0.0000 
     19 C19         2.6873   52.9817   27.6684 C.ar      1 UNK         0.0000 
     20 C20         2.7431   53.6969   26.4688 C.ar      1 UNK         0.0000 
     21 C21         3.9152   54.3525   26.0977 C.ar      1 UNK         0.0000 
     22 C22         5.0433   54.2870   26.9124 C.ar      1 UNK         0.0000 
     23 C23         5.0027   53.5632   28.1032 C.ar      1 UNK         0.0000 
     24 C24         3.8310   52.8987   28.4826 C.ar      1 UNK         0.0000 
     25 F25         3.8312   52.1504   29.6133 F         1 UNK         0.0000 
     26 F26         6.1066   53.4850   28.8809 F         1 UNK         0.0000 
     27 F27         6.1814   54.9153   26.5347 F         1 UNK         0.0000 
     28 H28        -4.3295   51.3759   23.7853 H         1 UNK         0.0000 
     29 H29        -4.3769   51.1073   25.5132 H         1 UNK         0.0000 
     30 H30        -3.5622   52.5304   24.8655 H         1 UNK         0.0000 
     31 H31         0.2846   51.4937   24.7116 H         1 UNK         0.0000 
     32 H32         1.6735   52.2750   22.8565 H         1 UNK         0.0000 
     33 H33         0.7541   52.3859   20.5630 H         1 UNK         0.0000 
     34 H34        -2.9980   50.9114   21.9828 H         1 UNK         0.0000 
     35 H35        -1.6468   49.5124   26.2324 H         1 UNK         0.0000 
     36 H36        -1.1209   49.8894   28.0950 H         1 UNK         0.0000 
     37 H37        -0.5191   50.9012   29.9734 H         1 UNK         0.0000 
     38 H38        -1.3460   52.3412   29.4425 H         1 UNK         0.0000 
     39 H39         1.0716   51.7905   27.1834 H         1 UNK         0.0000 
     40 H40         1.8794   53.7464   25.8207 H         1 UNK         0.0000 
     41 H41         3.9544   54.9088   25.1727 H         1 UNK         0.0000 
@<TRIPOS>BOND
     1    1    2 1    
     2    1   28 1    
     3    1   29 1    
     4    1   30 1    
     5    2    3 1    
     6    2    4 1    
     7    2   11 1    
     8    4    9 ar   
     9    4    5 ar   
    10    5    6 ar   
    11    5   31 1    
    12    6    7 ar   
    13    6   32 1    
    14    7    8 ar   
    15    7   33 1    
    16    8    9 ar   
    17    8   10 1    
    18    9   34 1    
    19   11   12 am   BACKBONE|DICT|INTERRES
    20   11   35 1    
    21   12   13 2    
    22   12   14 am   BACKBONE|DICT|INTERRES
    23   14   15 1    
    24   14   36 1    
    25   15   16 1    
    26   15   37 1    
    27   15   38 1    
    28   16   17 2    
    29   16   18 am   BACKBONE|DICT|INTERRES
    30   18   19 1    
    31   18   39 1    
    32   19   24 ar   
    33   19   20 ar   
    34   20   21 ar   
    35   20   40 1    
    36   21   22 ar   
    37   21   41 1    
    38   22   23 ar   
    39   22   27 1    
    40   23   24 ar   
    41   23   26 1    
    42   24   25 1    
@<TRIPOS>SUBSTRUCTURE
     1 UNK         1 GROUP             0       ****    0 ROOT    
