ZINC09045213_4922
                    3D
 Schrodinger Suite 2024-2.
 80 84  0  0  1  0            999 V2000
   -5.3130   50.0143   24.6915 C   0  0  0  0  0  0
   -4.6083   49.9098   26.0416 C   0  0  0  0  0  0
   -5.2644   49.9966   27.0788 O   0  0  0  0  0  0
   -3.0736   49.7178   26.0942 C   0  0  1  0  0  0
   -2.9127   48.9794   26.8806 H   0  0  0  0  0  0
   -2.4023   49.1623   24.8037 C   0  0  0  0  0  0
   -0.9911   49.7868   24.7600 C   0  0  0  0  0  0
   -0.8462   50.4943   26.1145 C   0  0  2  0  0  0
   -0.6545   49.6875   26.8253 H   0  0  0  0  0  0
   -2.2655   50.9943   26.4755 C   0  0  2  0  0  0
   -2.3073   51.3923   27.9895 C   0  0  0  0  0  0
   -0.9222   51.7675   28.6102 C   0  0  0  0  0  0
    0.0025   52.4771   27.5814 C   0  0  2  0  0  0
   -0.5943   53.2915   27.1846 H   0  0  0  0  0  0
    0.3016   51.4981   26.4013 C   0  0  2  0  0  0
    1.1076   50.8700   26.7813 H   0  0  0  0  0  0
    0.9290   52.2224   25.1859 C   0  0  0  0  0  0
    1.7252   53.4964   25.5623 C   0  0  0  0  0  0
    2.3115   53.3665   26.9648 C   0  0  0  0  0  0
    3.6434   53.3711   27.1484 C   0  0  0  0  0  0
    4.3387   53.1773   28.3917 C   0  0  0  0  0  0
    5.5957   53.2904   28.5653 N   0  0  0  0  0  0
    6.3219   53.3729   27.3577 O   0  0  0  0  0  0
    6.7037   54.7164   27.0768 C   0  0  0  0  0  0
    6.6618   54.9466   25.5589 C   0  0  0  0  0  0
    6.7048   56.0965   25.1375 O   0  0  0  0  0  0
    6.6046   53.8801   24.7445 N   0  0  0  0  0  0
    6.6307   53.8967   23.2789 C   0  0  0  0  0  0
    5.3962   54.5497   22.6222 C   0  0  0  0  0  0
    4.6400   53.6744   21.6370 C   0  0  0  0  0  0
    3.5855   52.8774   22.0807 C   0  0  0  0  0  0
    2.8602   52.0952   21.1833 C   0  0  0  0  0  0
    3.1830   52.1122   19.8273 C   0  0  0  0  0  0
    4.2448   52.9099   19.3748 C   0  0  0  0  0  0
    4.9655   53.6916   20.2778 C   0  0  0  0  0  0
    4.6268   52.8967   18.0586 O   0  0  0  0  0  0
    2.4505   51.3437   18.9587 O   0  0  0  0  0  0
    3.4655   52.8220   29.6062 C   0  0  0  0  0  0
    2.0607   52.2834   29.2006 C   0  0  0  0  0  0
    1.3163   53.1509   28.1379 C   0  0  2  0  0  0
    0.9741   54.5270   28.7684 C   0  0  0  0  0  0
   -2.6945   52.2158   25.5977 C   0  0  0  0  0  0
   -4.8424   50.7736   24.0652 H   0  0  0  0  0  0
   -6.3601   50.2928   24.8300 H   0  0  0  0  0  0
   -5.2880   49.0541   24.1758 H   0  0  0  0  0  0
   -2.3399   48.0735   24.8583 H   0  0  0  0  0  0
   -2.9334   49.4061   23.8834 H   0  0  0  0  0  0
   -0.1897   49.0692   24.5783 H   0  0  0  0  0  0
   -0.9532   50.5132   23.9479 H   0  0  0  0  0  0
   -3.1113   52.0965   28.2015 H   0  0  0  0  0  0
   -2.5753   50.4969   28.5543 H   0  0  0  0  0  0
   -0.4166   50.8969   29.0342 H   0  0  0  0  0  0
   -1.0972   52.4240   29.4634 H   0  0  0  0  0  0
    1.5034   51.5290   24.5702 H   0  0  0  0  0  0
    0.1231   52.5850   24.5467 H   0  0  0  0  0  0
    1.1044   54.3778   25.5245 H   0  0  0  0  0  0
    2.4892   53.7074   24.8188 H   0  0  0  0  0  0
    4.2289   53.4770   26.2486 H   0  0  0  0  0  0
    6.0513   55.4556   27.5467 H   0  0  0  0  0  0
    7.7130   54.8777   27.4511 H   0  0  0  0  0  0
    6.5297   52.9728   25.1823 H   0  0  0  0  0  0
    7.5044   54.4929   23.0137 H   0  0  0  0  0  0
    6.8149   52.8979   22.8865 H   0  0  0  0  0  0
    4.6914   54.8967   23.3784 H   0  0  0  0  0  0
    5.7196   55.4409   22.0818 H   0  0  0  0  0  0
    3.3289   52.8528   23.1264 H   0  0  0  0  0  0
    2.0509   51.4814   21.5471 H   0  0  0  0  0  0
    5.7799   54.3033   19.9166 H   0  0  0  0  0  0
    4.7040   51.9653   17.7862 H   0  0  0  0  0  0
    1.8278   50.7613   19.3971 H   0  0  0  0  0  0
    3.9724   52.0614   30.2007 H   0  0  0  0  0  0
    3.3743   53.6997   30.2431 H   0  0  0  0  0  0
    1.4465   52.1836   30.0970 H   0  0  0  0  0  0
    2.1773   51.2668   28.8178 H   0  0  0  0  0  0
    0.3390   54.4118   29.6486 H   0  0  0  0  0  0
    1.8632   55.0733   29.0840 H   0  0  0  0  0  0
    0.4406   55.1787   28.0814 H   0  0  0  0  0  0
   -2.0018   53.0500   25.6460 H   0  0  0  0  0  0
   -2.7774   51.9550   24.5421 H   0  0  0  0  0  0
   -3.6665   52.6043   25.9042 H   0  0  0  0  0  0
  1  2  1  0  0  0
  1 43  1  0  0  0
  1 44  1  0  0  0
  1 45  1  0  0  0
  2  3  2  0  0  0
  2  4  1  0  0  0
  4  5  1  0  0  0
  4 10  1  0  0  0
  4  6  1  0  0  0
  6  7  1  0  0  0
  6 46  1  0  0  0
  6 47  1  0  0  0
  7  8  1  0  0  0
  7 48  1  0  0  0
  7 49  1  0  0  0
  8  9  1  0  0  0
  8 15  1  0  0  0
  8 10  1  0  0  0
 10 11  1  0  0  0
 10 42  1  0  0  0
 11 12  1  0  0  0
 11 50  1  0  0  0
 11 51  1  0  0  0
 12 13  1  0  0  0
 12 52  1  0  0  0
 12 53  1  0  0  0
 13 14  1  0  0  0
 13 40  1  0  0  0
 13 15  1  0  0  0
 15 16  1  0  0  0
 15 17  1  0  0  0
 17 18  1  0  0  0
 17 54  1  0  0  0
 17 55  1  0  0  0
 18 19  1  0  0  0
 18 56  1  0  0  0
 18 57  1  0  0  0
 19 40  1  0  0  0
 19 20  2  0  0  0
 20 21  1  0  0  0
 20 58  1  0  0  0
 21 22  2  0  0  0
 21 38  1  0  0  0
 22 23  1  0  0  0
 23 24  1  0  0  0
 24 25  1  0  0  0
 24 59  1  0  0  0
 24 60  1  0  0  0
 25 26  2  0  0  0
 25 27  1  0  0  0
 27 28  1  0  0  0
 27 61  1  0  0  0
 28 29  1  0  0  0
 28 62  1  0  0  0
 28 63  1  0  0  0
 29 30  1  0  0  0
 29 64  1  0  0  0
 29 65  1  0  0  0
 30 35  2  0  0  0
 30 31  1  0  0  0
 31 32  2  0  0  0
 31 66  1  0  0  0
 32 33  1  0  0  0
 32 67  1  0  0  0
 33 34  2  0  0  0
 33 37  1  0  0  0
 34 35  1  0  0  0
 34 36  1  0  0  0
 35 68  1  0  0  0
 36 69  1  0  0  0
 37 70  1  0  0  0
 38 39  1  0  0  0
 38 71  1  0  0  0
 38 72  1  0  0  0
 39 40  1  0  0  0
 39 73  1  0  0  0
 39 74  1  0  0  0
 40 41  1  0  0  0
 41 75  1  0  0  0
 41 76  1  0  0  0
 41 77  1  0  0  0
 42 78  1  0  0  0
 42 79  1  0  0  0
 42 80  1  0  0  0
M  END
> <i_i_glide_confnum>
179

> <i_i_glide_lignum>
4923

> <i_i_glide_posenum>
223

> <i_i_glide_rotatable_bonds>
10

> <i_m_Source_File_Index>
3490

> <b_m_subgroup_collapsed>
0

> <r_i_docking_score>
-1.66737

> <r_i_glide_ecoul>
-1.58948

> <r_i_glide_eff_state_penalty>
0

> <r_i_glide_einternal>
17.624

> <r_i_glide_emodel>
-30.5235

> <r_i_glide_energy>
-43.8247

> <r_i_glide_erotb>
0.526951

> <r_i_glide_esite>
-0.0129922

> <r_i_glide_evdw>
-42.2352

> <r_i_glide_gscore>
-1.66737

> <r_i_glide_hbond>
-0.185249

> <r_i_glide_ligand_efficiency>
-0.0438782

> <r_i_glide_ligand_efficiency_ln>
-0.359534

> <r_i_glide_ligand_efficiency_sa>
-0.147517

> <r_i_glide_lipo>
-2.32778

> <r_i_glide_metal>
0

> <r_i_glide_rewards>
2.68188

> <s_i_glide_gridfile>
wee1_glide-grid

> <s_m_Source_File>
wee1_decoys_glide_SP.sdf

> <s_m_Source_Path>
/Users/zhangxujun/Desktop

> <s_m_entry_id>
3765

> <s_m_entry_name>
wee1_decoys_glide_SP.3490

> <s_m_subgroup_title>
wee1_decoys_glide_SP

> <s_m_subgroupid>
wee1_decoys_glide_SP


$$$$
