@<TRIPOS>MOLECULE
ZINC38893656_5452
75   79    1
SMALL
USER_CHARGES


@<TRIPOS>ATOM
      1 C1         10.4884   53.5310   17.0374 C.3       1 UNK         0.0000 
      2 C2          9.3796   52.9811   16.1603 C.ar      1 UNK         0.0000 
      3 C3          9.6725   52.1138   15.1061 C.ar      1 UNK         0.0000 
      4 C4          8.6479   51.6329   14.2946 C.ar      1 UNK         0.0000 
      5 C5          7.3302   52.0201   14.5344 C.ar      1 UNK         0.0000 
      6 C6          7.0025   52.8713   15.6110 C.ar      1 UNK         0.0000 
      7 C7          8.0536   53.3476   16.4068 C.ar      1 UNK         0.0000 
      8 C8          5.5484   53.2950   15.8441 C.3       1 UNK         0.0000 
      9 H9          5.4774   54.3148   15.4574 H         1 UNK         0.0000 
     10 C10         4.6092   52.4148   14.9952 C.3       1 UNK         0.0000 
     11 C11         5.1416   52.1716   13.5603 C.3       1 UNK         0.0000 
     12 O12         6.3846   51.4673   13.6870 O.3       1 UNK         0.0000 
     13 C13         5.3464   53.4843   12.7682 C.3       1 UNK         0.0000 
     14 C14         4.2087   51.1813   12.8413 C.3       1 UNK         0.0000 
     15 N15         5.1475   53.2967   17.2505 N.am      1 UNK         0.0000 
     16 C16         4.8863   54.3630   18.0292 C.2       1 UNK         0.0000 
     17 O17         4.9786   55.5209   17.6212 O.2       1 UNK         0.0000 
     18 C18         4.4641   54.1197   19.5003 C.3       1 UNK         0.0000 
     19 H19         3.5067   54.6441   19.5657 H         1 UNK         0.0000 
     20 C20         4.2411   52.6141   19.8019 C.3       1 UNK         0.0000 
     21 C21         3.8526   52.4452   21.2719 C.3       1 UNK         0.0000 
     22 C22         4.9679   52.9567   22.1920 C.3       1 UNK         0.0000 
     23 N23         5.2430   54.4573   21.9193 N.4       1 UNK         0.0000 
     24 C24         5.5352   54.7698   20.4240 C.3       1 UNK         0.0000 
     25 C25         6.3996   54.9885   22.8163 C.3       1 UNK         0.0000 
     26 C26         6.1258   54.8432   24.3088 C.2       1 UNK         0.0000 
     27 N27         5.0042   54.6292   24.9435 N.2       1 UNK         0.0000 
     28 C28         5.4058   54.4969   26.1966 C.2       1 UNK         0.0000 
     29 N29         6.6965   54.6629   26.4062 N.2       1 UNK         0.0000 
     30 O30         7.1933   54.9027   25.1322 O.3       1 UNK         0.0000 
     31 C31         4.4538   54.1881   27.3141 C.ar      1 UNK         0.0000 
     32 C32         4.8404   54.3906   28.6422 C.ar      1 UNK         0.0000 
     33 C33         3.9489   54.1532   29.6817 C.ar      1 UNK         0.0000 
     34 C34         2.6527   53.7118   29.4193 C.ar      1 UNK         0.0000 
     35 C35         2.2489   53.4621   28.0975 C.ar      1 UNK         0.0000 
     36 C36         3.1629   53.7044   27.0572 C.ar      1 UNK         0.0000 
     37 O37         0.9590   53.0082   27.8923 O.3       1 UNK         0.0000 
     38 C38         0.5821   52.5248   26.6061 C.3       1 UNK         0.0000 
     39 O39         1.7897   53.5847   30.4812 O.3       1 UNK         0.0000 
     40 C40         1.4844   52.2507   30.8640 C.3       1 UNK         0.0000 
     41 H41        11.4649   53.1134   16.7837 H         1 UNK         0.0000 
     42 H42        10.2829   53.2992   18.0818 H         1 UNK         0.0000 
     43 H43        10.5389   54.6183   16.9529 H         1 UNK         0.0000 
     44 H44        10.6919   51.8151   14.9078 H         1 UNK         0.0000 
     45 H45         8.8745   50.9627   13.4789 H         1 UNK         0.0000 
     46 H46         7.8381   54.0203   17.2242 H         1 UNK         0.0000 
     47 H47         3.6028   52.8352   14.9729 H         1 UNK         0.0000 
     48 H48         4.5174   51.4451   15.4899 H         1 UNK         0.0000 
     49 H49         4.4182   54.0518   12.6976 H         1 UNK         0.0000 
     50 H50         6.0997   54.1334   13.2142 H         1 UNK         0.0000 
     51 H51         5.6833   53.2714   11.7531 H         1 UNK         0.0000 
     52 H52         3.2126   51.6013   12.7028 H         1 UNK         0.0000 
     53 H53         4.5977   50.9191   11.8568 H         1 UNK         0.0000 
     54 H54         4.1058   50.2522   13.4044 H         1 UNK         0.0000 
     55 H55         5.1054   52.3713   17.6692 H         1 UNK         0.0000 
     56 H56         3.4326   52.1907   19.2014 H         1 UNK         0.0000 
     57 H57         5.1651   52.0471   19.6816 H         1 UNK         0.0000 
     58 H58         2.9174   52.9699   21.4791 H         1 UNK         0.0000 
     59 H59         3.6617   51.3907   21.4843 H         1 UNK         0.0000 
     60 H60         4.6135   52.8969   23.2151 H         1 UNK         0.0000 
     61 H61         5.9033   52.4051   22.0837 H         1 UNK         0.0000 
     62 H62         6.5436   54.4066   20.2182 H         1 UNK         0.0000 
     63 H63         5.5044   55.8598   20.3517 H         1 UNK         0.0000 
     64 H64         7.2848   54.4227   22.5172 H         1 UNK         0.0000 
     65 H65         6.5575   56.0303   22.5322 H         1 UNK         0.0000 
     66 H66         5.8311   54.7549   28.8820 H         1 UNK         0.0000 
     67 H67         4.2802   54.3266   30.6922 H         1 UNK         0.0000 
     68 H68         2.8739   53.5334   26.0330 H         1 UNK         0.0000 
     69 H69        -0.4573   52.1973   26.6327 H         1 UNK         0.0000 
     70 H70         0.6681   53.2943   25.8382 H         1 UNK         0.0000 
     71 H71         1.1877   51.6660   26.3147 H         1 UNK         0.0000 
     72 H72         0.8147   52.2664   31.7241 H         1 UNK         0.0000 
     73 H73         0.9845   51.6963   30.0694 H         1 UNK         0.0000 
     74 H74         2.3858   51.7120   31.1569 H         1 UNK         0.0000 
     75 H75         4.3839   54.9427   22.1476 H         1 UNK         0.0000 
@<TRIPOS>BOND
     1    1    2 1    
     2    1   41 1    
     3    1   42 1    
     4    1   43 1    
     5    2    7 ar   
     6    2    3 ar   
     7    3    4 ar   
     8    3   44 1    
     9    4    5 ar   
    10    4   45 1    
    11    5   12 1    
    12    5    6 ar   
    13    6    7 ar   
    14    6    8 1    
    15    7   46 1    
    16    8    9 1    
    17    8   10 1    
    18    8   15 1    
    19   10   11 1    
    20   10   47 1    
    21   10   48 1    
    22   11   12 1    
    23   11   13 1    
    24   11   14 1    
    25   13   49 1    
    26   13   50 1    
    27   13   51 1    
    28   14   52 1    
    29   14   53 1    
    30   14   54 1    
    31   15   16 am   BACKBONE|DICT|INTERRES
    32   15   55 1    
    33   16   17 2    
    34   16   18 1    
    35   18   19 1    
    36   18   24 1    
    37   18   20 1    
    38   20   21 1    
    39   20   56 1    
    40   20   57 1    
    41   21   22 1    
    42   21   58 1    
    43   21   59 1    
    44   22   23 1    
    45   22   60 1    
    46   22   61 1    
    47   23   24 1    
    48   23   25 1    
    49   23   75 1    
    50   24   62 1    
    51   24   63 1    
    52   25   26 1    
    53   25   64 1    
    54   25   65 1    
    55   26   30 1    
    56   26   27 2    
    57   27   28 1    
    58   28   29 2    
    59   28   31 1    
    60   29   30 1    
    61   31   36 ar   
    62   31   32 ar   
    63   32   33 ar   
    64   32   66 1    
    65   33   34 ar   
    66   33   67 1    
    67   34   35 ar   
    68   34   39 1    
    69   35   36 ar   
    70   35   37 1    
    71   36   68 1    
    72   37   38 1    
    73   38   69 1    
    74   38   70 1    
    75   38   71 1    
    76   39   40 1    
    77   40   72 1    
    78   40   73 1    
    79   40   74 1    
@<TRIPOS>SUBSTRUCTURE
     1 UNK         1 GROUP             0       ****    0 ROOT    
