@<TRIPOS>MOLECULE
ZINC12420623_6124
66   71    1
SMALL
USER_CHARGES


@<TRIPOS>ATOM
      1 C1          6.7144   55.1678   13.2704 C.3       1 UNK         0.0000 
      2 O2          6.5048   56.0531   14.3656 O.3       1 UNK         0.0000 
      3 C3          6.2686   55.5280   15.6209 C.ar      1 UNK         0.0000 
      4 C4          6.0813   56.4504   16.6506 C.ar      1 UNK         0.0000 
      5 C5          5.8355   56.0176   17.9510 C.ar      1 UNK         0.0000 
      6 C6          5.7758   54.6499   18.2358 C.ar      1 UNK         0.0000 
      7 C7          5.9535   53.7202   17.2083 C.ar      1 UNK         0.0000 
      8 C8          6.2021   54.1554   15.9088 C.ar      1 UNK         0.0000 
      9 C9          5.4848   54.1558   19.6509 C.3       1 UNK         0.0000 
     10 H10         5.8714   53.1343   19.6800 H         1 UNK         0.0000 
     11 C11         3.9625   54.1277   19.9198 C.3       1 UNK         0.0000 
     12 C12         3.5663   53.6182   21.3350 C.3       1 UNK         0.0000 
     13 H13         2.6225   54.0786   21.6267 H         1 UNK         0.0000 
     14 N14         4.5756   54.0963   22.2998 N.pl3     1 UNK         0.0000 
     15 C15         5.8129   54.6332   22.0007 C.ar      1 UNK         0.0000 
     16 C16         6.4030   54.8964   23.2200 C.ar      1 UNK         0.0000 
     17 C17         5.4946   54.4874   24.2115 C.ar      1 UNK         0.0000 
     18 N18         4.3952   54.0205   23.6343 N.2       1 UNK         0.0000 
     19 C19         5.7187   54.6159   25.6439 C.2       1 UNK         0.0000 
     20 O20         6.6620   55.2712   26.0927 O.2       1 UNK         0.0000 
     21 N21         4.8152   53.9778   26.4148 N.am      1 UNK         0.0000 
     22 C22         4.7454   53.9619   27.8826 C.3       1 UNK         0.0000 
     23 C23         3.2986   53.7258   28.4243 C.3       1 UNK         0.0000 
     24 C24         2.7059   52.3897   27.8868 C.3       1 UNK         0.0000 
     25 C25         1.2648   52.1377   28.3837 C.3       1 UNK         0.0000 
     26 C26         1.2643   52.0961   29.9230 C.3       1 UNK         0.0000 
     27 C27         1.8058   53.4206   30.4888 C.3       1 UNK         0.0000 
     28 C28         3.2635   53.6562   29.9840 C.3       1 UNK         0.0000 
     29 C29         0.9006   54.5891   30.0157 C.3       1 UNK         0.0000 
     30 C30         0.9075   54.6324   28.4624 C.3       1 UNK         0.0000 
     31 C31         0.3656   53.2916   27.9012 C.3       1 UNK         0.0000 
     32 C32         2.3521   54.8645   27.9673 C.3       1 UNK         0.0000 
     33 N33         6.1944   54.8966   20.7011 N.pl3     1 UNK         0.0000 
     34 C34         3.3292   52.0867   21.3694 C.3       1 UNK         0.0000 
     35 F35         2.5507   51.6829   20.3648 F         1 UNK         0.0000 
     36 F36         4.4695   51.4024   21.2814 F         1 UNK         0.0000 
     37 F37         2.7043   51.7158   22.4832 F         1 UNK         0.0000 
     38 H38         6.8819   55.7499   12.3650 H         1 UNK         0.0000 
     39 H39         7.5916   54.5394   13.4270 H         1 UNK         0.0000 
     40 H40         5.8441   54.5323   13.0968 H         1 UNK         0.0000 
     41 H41         6.1225   57.5077   16.4359 H         1 UNK         0.0000 
     42 H42         5.6846   56.7492   18.7331 H         1 UNK         0.0000 
     43 H43         5.8956   52.6584   17.4102 H         1 UNK         0.0000 
     44 H44         6.3365   53.4117   15.1374 H         1 UNK         0.0000 
     45 H45         3.4783   53.5214   19.1525 H         1 UNK         0.0000 
     46 H46         3.5188   55.1080   19.7399 H         1 UNK         0.0000 
     47 H47         7.3749   55.3450   23.3802 H         1 UNK         0.0000 
     48 H48         4.1766   53.3572   25.9422 H         1 UNK         0.0000 
     49 H49         5.1405   54.8952   28.2871 H         1 UNK         0.0000 
     50 H50         5.4090   53.1710   28.2398 H         1 UNK         0.0000 
     51 H51         3.3393   51.5850   28.2346 H         1 UNK         0.0000 
     52 H52         2.7063   52.3719   26.7982 H         1 UNK         0.0000 
     53 H53         0.8974   51.1887   27.9911 H         1 UNK         0.0000 
     54 H54         0.2631   51.8901   30.3041 H         1 UNK         0.0000 
     55 H55         1.9044   51.2967   30.2753 H         1 UNK         0.0000 
     56 H56         1.7779   53.2966   31.5704 H         1 UNK         0.0000 
     57 H57         3.6708   54.5739   30.4052 H         1 UNK         0.0000 
     58 H58         3.9121   52.8545   30.3397 H         1 UNK         0.0000 
     59 H59         1.2498   55.5366   30.4277 H         1 UNK         0.0000 
     60 H60        -0.1161   54.4541   30.3875 H         1 UNK         0.0000 
     61 H61         0.3044   55.4515   28.0820 H         1 UNK         0.0000 
     62 H62        -0.6648   53.1262   28.2193 H         1 UNK         0.0000 
     63 H63         0.3475   53.2967   26.8114 H         1 UNK         0.0000 
     64 H64         2.3539   54.8967   26.8816 H         1 UNK         0.0000 
     65 H65         2.7058   55.8341   28.3174 H         1 UNK         0.0000 
     66 H66         7.1842   54.9012   20.5073 H         1 UNK         0.0000 
@<TRIPOS>BOND
     1    1    2 1    
     2    1   38 1    
     3    1   39 1    
     4    1   40 1    
     5    2    3 1    
     6    3    8 ar   
     7    3    4 ar   
     8    4    5 ar   
     9    4   41 1    
    10    5    6 ar   
    11    5   42 1    
    12    6    7 ar   
    13    6    9 1    
    14    7    8 ar   
    15    7   43 1    
    16    8   44 1    
    17    9   10 1    
    18    9   33 1    
    19    9   11 1    
    20   11   12 1    
    21   11   45 1    
    22   11   46 1    
    23   12   13 1    
    24   12   14 1    
    25   12   34 1    
    26   14   18 ar   
    27   14   15 ar   
    28   15   16 ar   
    29   15   33 1    
    30   16   17 ar   
    31   16   47 1    
    32   17   18 ar   
    33   17   19 1    
    34   19   20 2    
    35   19   21 am   BACKBONE|DICT|INTERRES
    36   21   22 1    
    37   21   48 1    
    38   22   23 1    
    39   22   49 1    
    40   22   50 1    
    41   23   28 1    
    42   23   32 1    
    43   23   24 1    
    44   24   25 1    
    45   24   51 1    
    46   24   52 1    
    47   25   31 1    
    48   25   26 1    
    49   25   53 1    
    50   26   27 1    
    51   26   54 1    
    52   26   55 1    
    53   27   28 1    
    54   27   29 1    
    55   27   56 1    
    56   28   57 1    
    57   28   58 1    
    58   29   30 1    
    59   29   59 1    
    60   29   60 1    
    61   30   31 1    
    62   30   32 1    
    63   30   61 1    
    64   31   62 1    
    65   31   63 1    
    66   32   64 1    
    67   32   65 1    
    68   33   66 1    
    69   34   35 1    
    70   34   36 1    
    71   34   37 1    
@<TRIPOS>SUBSTRUCTURE
     1 UNK         1 GROUP             0       ****    0 ROOT    
