@<TRIPOS>MOLECULE
ZINC44173492_6122
67   71    1
SMALL
USER_CHARGES


@<TRIPOS>ATOM
      1 C1          1.2727   58.0288   15.5482 C.3       1 UNK         0.0000 
      2 C2          2.6481   57.3140   15.7052 C.3       1 UNK         0.0000 
      3 C3          3.3199   57.3303   14.3093 C.3       1 UNK         0.0000 
      4 C4          3.4700   58.2314   16.6573 C.3       1 UNK         0.0000 
      5 N5          2.5716   55.8889   16.2026 N.am      1 UNK         0.0000 
      6 C6          3.6903   55.1850   16.5946 C.2       1 UNK         0.0000 
      7 O7          4.8515   55.5672   16.7328 O.2       1 UNK         0.0000 
      8 C8          3.2475   53.7414   16.6559 C.3       1 UNK         0.0000 
      9 H9          3.4075   53.3471   15.6457 H         1 UNK         0.0000 
     10 C10         3.7420   52.6657   17.6225 C.3       1 UNK         0.0000 
     11 H11         4.5893   52.1034   17.2244 H         1 UNK         0.0000 
     12 N12         2.5521   51.6748   17.4913 N.4       1 UNK         0.0000 
     13 C13         1.2835   52.4335   16.9438 C.3       1 UNK         0.0000 
     14 C14         1.8424   53.8798   17.0406 C.3       1 UNK         0.0000 
     15 H15         1.7001   54.1865   18.0817 H         1 UNK         0.0000 
     16 C16         1.4313   55.1124   16.2576 C.2       1 UNK         0.0000 
     17 O17         0.2860   55.3573   15.8820 O.2       1 UNK         0.0000 
     18 C18         0.9598   51.9418   15.4988 C.ar      1 UNK         0.0000 
     19 C19        -0.1954   52.4097   14.8531 C.ar      1 UNK         0.0000 
     20 C20        -0.5122   52.0017   13.5610 C.ar      1 UNK         0.0000 
     21 C21         0.3271   51.1158   12.8936 C.ar      1 UNK         0.0000 
     22 C22         1.4796   50.6398   13.5082 C.ar      1 UNK         0.0000 
     23 C23         1.7966   51.0499   14.8003 C.ar      1 UNK         0.0000 
     24 C24         0.1105   52.0674   17.9263 C.2       1 UNK         0.0000 
     25 O25         0.1862   51.0302   18.6283 O.co2     1 UNK         0.0000 
     26 O26        -0.8571   52.8601   17.9864 O.co2     1 UNK         0.0000 
     27 C27         4.0226   53.0560   19.0859 C.ar      1 UNK         0.0000 
     28 C28         3.1697   52.7060   20.1423 C.ar      1 UNK         0.0000 
     29 C29         3.4952   53.0404   21.4521 C.ar      1 UNK         0.0000 
     30 C30         4.6743   53.7392   21.7328 C.ar      1 UNK         0.0000 
     31 C31         5.5047   54.1174   20.6759 C.ar      1 UNK         0.0000 
     32 C32         5.1925   53.7630   19.3677 C.ar      1 UNK         0.0000 
     33 C33         5.0943   54.0560   23.1128 C.2       1 UNK         0.0000 
     34 C34         4.3319   53.9667   24.2217 C.2       1 UNK         0.0000 
     35 C35         4.7686   54.1883   25.6148 C.ar      1 UNK         0.0000 
     36 C36         3.7965   54.1909   26.6210 C.ar      1 UNK         0.0000 
     37 C37         4.1613   54.3474   27.9543 C.ar      1 UNK         0.0000 
     38 C38         5.5048   54.4961   28.2837 C.ar      1 UNK         0.0000 
     39 C39         6.4830   54.4961   27.2943 C.ar      1 UNK         0.0000 
     40 C40         6.1182   54.3505   25.9603 C.ar      1 UNK         0.0000 
     41 H41         0.7090   58.0356   16.4815 H         1 UNK         0.0000 
     42 H42         1.3895   59.0721   15.2522 H         1 UNK         0.0000 
     43 H43         0.6496   57.5705   14.7801 H         1 UNK         0.0000 
     44 H44         4.3353   56.9344   14.3424 H         1 UNK         0.0000 
     45 H45         2.7618   56.7272   13.5927 H         1 UNK         0.0000 
     46 H46         3.3878   58.3424   13.9044 H         1 UNK         0.0000 
     47 H47         4.5344   57.9951   16.6710 H         1 UNK         0.0000 
     48 H48         3.4134   59.2811   16.3639 H         1 UNK         0.0000 
     49 H49         3.1058   58.1687   17.6816 H         1 UNK         0.0000 
     50 H50         2.8085   50.8901   16.9006 H         1 UNK         0.0000 
     51 H51        -0.8616   53.0991   15.3526 H         1 UNK         0.0000 
     52 H52        -1.4058   52.3721   13.0800 H         1 UNK         0.0000 
     53 H53         0.0848   50.7983   11.8892 H         1 UNK         0.0000 
     54 H54         2.1294   49.9522   12.9862 H         1 UNK         0.0000 
     55 H55         2.7048   50.6507   15.2272 H         1 UNK         0.0000 
     56 H56         2.2473   52.1721   19.9810 H         1 UNK         0.0000 
     57 H57         2.8254   52.7295   22.2383 H         1 UNK         0.0000 
     58 H58         6.4175   54.6631   20.8637 H         1 UNK         0.0000 
     59 H59         5.8728   54.0304   18.5720 H         1 UNK         0.0000 
     60 H60         6.1261   54.3560   23.2159 H         1 UNK         0.0000 
     61 H61         3.2977   53.6796   24.1123 H         1 UNK         0.0000 
     62 H62         2.7523   54.0617   26.3757 H         1 UNK         0.0000 
     63 H63         3.4084   54.3471   28.7288 H         1 UNK         0.0000 
     64 H64         5.7986   54.6186   29.3148 H         1 UNK         0.0000 
     65 H65         7.5207   54.6122   27.5711 H         1 UNK         0.0000 
     66 H66         6.8964   54.3362   25.2126 H         1 UNK         0.0000 
     67 H67         2.3380   51.2529   18.3857 H         1 UNK         0.0000 
@<TRIPOS>BOND
     1    1    2 1    
     2    1   41 1    
     3    1   42 1    
     4    1   43 1    
     5    2    3 1    
     6    2    4 1    
     7    2    5 1    
     8    3   44 1    
     9    3   45 1    
    10    3   46 1    
    11    4   47 1    
    12    4   48 1    
    13    4   49 1    
    14    5   16 am   BACKBONE|DICT|INTERRES
    15    5    6 am   BACKBONE|DICT|INTERRES
    16    6    7 2    
    17    6    8 1    
    18    8    9 1    
    19    8   14 1    
    20    8   10 1    
    21   10   11 1    
    22   10   12 1    
    23   10   27 1    
    24   12   13 1    
    25   12   50 1    
    26   12   67 1    
    27   13   14 1    
    28   13   18 1    
    29   13   24 1    
    30   14   15 1    
    31   14   16 1    
    32   16   17 2    
    33   18   23 ar   
    34   18   19 ar   
    35   19   20 ar   
    36   19   51 1    
    37   20   21 ar   
    38   20   52 1    
    39   21   22 ar   
    40   21   53 1    
    41   22   23 ar   
    42   22   54 1    
    43   23   55 1    
    44   24   25 2    
    45   24   26 1    
    46   27   32 ar   
    47   27   28 ar   
    48   28   29 ar   
    49   28   56 1    
    50   29   30 ar   
    51   29   57 1    
    52   30   31 ar   
    53   30   33 1    
    54   31   32 ar   
    55   31   58 1    
    56   32   59 1    
    57   33   34 2    
    58   33   60 1    
    59   34   35 1    
    60   34   61 1    
    61   35   40 ar   
    62   35   36 ar   
    63   36   37 ar   
    64   36   62 1    
    65   37   38 ar   
    66   37   63 1    
    67   38   39 ar   
    68   38   64 1    
    69   39   40 ar   
    70   39   65 1    
    71   40   66 1    
@<TRIPOS>SUBSTRUCTURE
     1 UNK         1 GROUP             0       ****    0 ROOT    
