@<TRIPOS>MOLECULE
ZINC09227627_3246
55   58    1
SMALL
USER_CHARGES


@<TRIPOS>ATOM
      1 C1          4.0036   54.0330   24.1130 C.3       1 UNK         0.0000 
      2 C2          2.6617   53.4746   23.6765 C.ar      1 UNK         0.0000 
      3 C3          2.5323   52.8425   22.4375 C.ar      1 UNK         0.0000 
      4 C4          1.2949   52.3431   22.0355 C.ar      1 UNK         0.0000 
      5 C5          0.1833   52.4968   22.8675 C.ar      1 UNK         0.0000 
      6 C6          0.3116   53.1383   24.0980 C.ar      1 UNK         0.0000 
      7 C7          1.5514   53.6159   24.5085 C.ar      1 UNK         0.0000 
      8 S8         -1.4257   51.8855   22.3726 S.o2      1 UNK         0.0000 
      9 O9         -1.3507   51.5922   20.9366 O.2       1 UNK         0.0000 
     10 O10        -2.4231   52.8341   22.8826 O.2       1 UNK         0.0000 
     11 N11        -1.6141   50.3426   23.2287 N.pl3     1 UNK         0.0000 
     12 C12        -0.6251   49.2737   22.9653 C.3       1 UNK         0.0000 
     13 C13         0.4364   49.2577   24.0754 C.3       1 UNK         0.0000 
     14 C14        -0.1978   49.1881   25.4826 C.3       1 UNK         0.0000 
     15 N15        -1.1622   50.3127   25.5869 N.am      1 UNK         0.0000 
     16 C16        -2.2639   50.3210   24.5772 C.3       1 UNK         0.0000 
     17 H17        -2.8527   51.2355   24.6522 H         1 UNK         0.0000 
     18 C18        -3.3692   49.2583   24.7010 C.ar      1 UNK         0.0000 
     19 C19        -3.5365   48.5252   25.8828 C.ar      1 UNK         0.0000 
     20 C20        -4.5373   47.5634   25.9818 C.ar      1 UNK         0.0000 
     21 C21        -5.3852   47.3362   24.9015 C.ar      1 UNK         0.0000 
     22 C22        -5.2399   48.0649   23.7233 C.ar      1 UNK         0.0000 
     23 C23        -4.2353   49.0244   23.6251 C.ar      1 UNK         0.0000 
     24 C24        -1.1397   51.2080   26.6177 C.2       1 UNK         0.0000 
     25 O25        -1.9797   52.1042   26.7253 O.2       1 UNK         0.0000 
     26 C26        -0.0279   51.1064   27.6788 C.3       1 UNK         0.0000 
     27 S27        -0.1796   52.2561   29.0984 S.3       1 UNK         0.0000 
     28 C28         1.2767   53.2379   28.9527 C.2       1 UNK         0.0000 
     29 N29         1.3093   54.5313   29.1765 N.2       1 UNK         0.0000 
     30 N30         2.5895   55.0715   29.1088 N.2       1 UNK         0.0000 
     31 C31         3.4937   54.1625   28.8579 C.2       1 UNK         0.0000 
     32 S32         2.8568   52.5597   28.6751 S.3       1 UNK         0.0000 
     33 N33         4.8332   54.3912   28.7541 N.pl3     1 UNK         0.0000 
     34 H34         4.6060   54.3278   23.2529 H         1 UNK         0.0000 
     35 H35         3.8695   54.9257   24.7237 H         1 UNK         0.0000 
     36 H36         4.5555   53.2981   24.6984 H         1 UNK         0.0000 
     37 H37         3.3863   52.7367   21.7840 H         1 UNK         0.0000 
     38 H38         1.2030   51.8545   21.0758 H         1 UNK         0.0000 
     39 H39        -0.5499   53.2699   24.7363 H         1 UNK         0.0000 
     40 H40         1.6435   54.0977   25.4706 H         1 UNK         0.0000 
     41 H41        -0.1739   49.4319   21.9849 H         1 UNK         0.0000 
     42 H42        -1.1568   48.3220   22.9299 H         1 UNK         0.0000 
     43 H43         1.0861   50.1301   24.0055 H         1 UNK         0.0000 
     44 H44         1.0993   48.4102   23.9263 H         1 UNK         0.0000 
     45 H45         0.5859   49.1810   26.2381 H         1 UNK         0.0000 
     46 H46        -0.7545   48.2563   25.5893 H         1 UNK         0.0000 
     47 H47        -2.8965   48.6957   26.7355 H         1 UNK         0.0000 
     48 H48        -4.6560   47.0041   26.8986 H         1 UNK         0.0000 
     49 H49        -6.1676   46.5954   24.9824 H         1 UNK         0.0000 
     50 H50        -5.9073   47.8918   22.8920 H         1 UNK         0.0000 
     51 H51        -4.1351   49.5903   22.7103 H         1 UNK         0.0000 
     52 H52         0.9366   51.2115   27.1868 H         1 UNK         0.0000 
     53 H53        -0.0955   50.1001   28.0816 H         1 UNK         0.0000 
     54 H54         5.2282   55.3118   28.8818 H         1 UNK         0.0000 
     55 H55         5.4809   53.6495   28.5321 H         1 UNK         0.0000 
@<TRIPOS>BOND
     1    1    2 1    
     2    1   34 1    
     3    1   35 1    
     4    1   36 1    
     5    2    7 ar   
     6    2    3 ar   
     7    3    4 ar   
     8    3   37 1    
     9    4    5 ar   
    10    4   38 1    
    11    5    6 ar   
    12    5    8 1    
    13    6    7 ar   
    14    6   39 1    
    15    7   40 1    
    16    8    9 2    
    17    8   10 2    
    18    8   11 1    
    19   11   16 1    
    20   11   12 1    
    21   12   13 1    
    22   12   41 1    
    23   12   42 1    
    24   13   14 1    
    25   13   43 1    
    26   13   44 1    
    27   14   15 1    
    28   14   45 1    
    29   14   46 1    
    30   15   16 1    
    31   15   24 am   BACKBONE|DICT|INTERRES
    32   16   17 1    
    33   16   18 1    
    34   18   23 ar   
    35   18   19 ar   
    36   19   20 ar   
    37   19   47 1    
    38   20   21 ar   
    39   20   48 1    
    40   21   22 ar   
    41   21   49 1    
    42   22   23 ar   
    43   22   50 1    
    44   23   51 1    
    45   24   25 2    
    46   24   26 1    
    47   26   27 1    
    48   26   52 1    
    49   26   53 1    
    50   27   28 1    
    51   28   32 1    
    52   28   29 2    
    53   29   30 1    
    54   30   31 2    
    55   31   32 1    
    56   31   33 1    
    57   33   54 1    
    58   33   55 1    
@<TRIPOS>SUBSTRUCTURE
     1 UNK         1 GROUP             0       ****    0 ROOT    
