@<TRIPOS>MOLECULE
ZINC33019106_4544
57   60    1
SMALL
USER_CHARGES


@<TRIPOS>ATOM
      1 C1         -0.1522   52.3591   30.8899 C.3       1 UNK         0.0000 
      2 C2          0.3904   52.6023   29.5009 C.ar      1 UNK         0.0000 
      3 C3          0.1127   51.6950   28.4796 C.ar      1 UNK         0.0000 
      4 C4          0.6326   51.9013   27.2059 C.ar      1 UNK         0.0000 
      5 C5          1.4226   53.0243   26.9479 C.ar      1 UNK         0.0000 
      6 C6          1.6639   53.9556   27.9704 C.ar      1 UNK         0.0000 
      7 C7          1.1522   53.7398   29.2449 C.ar      1 UNK         0.0000 
      8 N8          1.9132   53.1471   25.6368 N.am      1 UNK         0.0000 
      9 C9          2.9831   53.8476   25.2173 C.2       1 UNK         0.0000 
     10 O10         3.6812   54.5554   25.9446 O.2       1 UNK         0.0000 
     11 N11         3.2098   53.6424   23.9018 N.am      1 UNK         0.0000 
     12 C12         4.3218   54.0627   23.1460 C.ar      1 UNK         0.0000 
     13 C13         5.5525   54.4042   23.7305 C.ar      1 UNK         0.0000 
     14 C14         6.5997   54.9196   22.9765 C.ar      1 UNK         0.0000 
     15 C15         6.4185   55.0801   21.6010 C.ar      1 UNK         0.0000 
     16 C16         5.2177   54.6409   20.9923 C.ar      1 UNK         0.0000 
     17 C17         4.1644   54.1159   21.7550 C.ar      1 UNK         0.0000 
     18 S18         5.3422   54.9181   19.2632 S.3       1 UNK         0.0000 
     19 C19         6.9086   55.6694   19.5358 C.2       1 UNK         0.0000 
     20 N20         7.3230   55.6516   20.7686 N.2       1 UNK         0.0000 
     21 S21         7.8795   56.4263   18.2698 S.3       1 UNK         0.0000 
     22 C22         6.8812   56.1844   16.7494 C.3       1 UNK         0.0000 
     23 C23         7.1586   54.9109   15.9368 C.2       1 UNK         0.0000 
     24 O24         6.5129   54.7415   14.9027 O.2       1 UNK         0.0000 
     25 N25         8.0872   54.0545   16.4097 N.am      1 UNK         0.0000 
     26 C26         8.5961   52.8702   15.8488 C.ar      1 UNK         0.0000 
     27 C27         9.4175   52.1010   16.6742 C.ar      1 UNK         0.0000 
     28 C28        10.0006   50.9269   16.2032 C.ar      1 UNK         0.0000 
     29 C29         9.7848   50.5089   14.8859 C.ar      1 UNK         0.0000 
     30 C30         8.9640   51.2749   14.0429 C.ar      1 UNK         0.0000 
     31 C31         8.3716   52.4468   14.5284 C.ar      1 UNK         0.0000 
     32 C32         8.7138   50.8636   12.5992 C.3       1 UNK         0.0000 
     33 C33        10.4666   49.2445   14.3894 C.3       1 UNK         0.0000 
     34 H34        -1.0025   51.6760   30.8798 H         1 UNK         0.0000 
     35 H35         0.6228   51.9481   31.5391 H         1 UNK         0.0000 
     36 H36        -0.4969   53.2914   31.3404 H         1 UNK         0.0000 
     37 H37        -0.4958   50.8214   28.6684 H         1 UNK         0.0000 
     38 H38         0.4294   51.1727   26.4315 H         1 UNK         0.0000 
     39 H39         2.2333   54.8568   27.7990 H         1 UNK         0.0000 
     40 H40         1.3503   54.4547   30.0325 H         1 UNK         0.0000 
     41 H41         1.4658   52.5488   24.9593 H         1 UNK         0.0000 
     42 H42         2.4843   53.1759   23.3806 H         1 UNK         0.0000 
     43 H43         5.7147   54.3038   24.7934 H         1 UNK         0.0000 
     44 H44         7.5048   55.2378   23.4593 H         1 UNK         0.0000 
     45 H45         3.2335   53.8294   21.2846 H         1 UNK         0.0000 
     46 H46         7.1240   57.0170   16.0884 H         1 UNK         0.0000 
     47 H47         5.8158   56.2812   16.9467 H         1 UNK         0.0000 
     48 H48         8.4822   54.2975   17.3074 H         1 UNK         0.0000 
     49 H49         9.6183   52.4099   17.6889 H         1 UNK         0.0000 
     50 H50        10.6322   50.3555   16.8649 H         1 UNK         0.0000 
     51 H51         7.7594   53.0244   13.8579 H         1 UNK         0.0000 
     52 H52         8.0730   51.5749   12.0722 H         1 UNK         0.0000 
     53 H53         8.2385   49.8825   12.5638 H         1 UNK         0.0000 
     54 H54         9.6575   50.7949   12.0566 H         1 UNK         0.0000 
     55 H55        11.1443   48.8214   15.1321 H         1 UNK         0.0000 
     56 H56         9.7210   48.4957   14.1190 H         1 UNK         0.0000 
     57 H57        11.0540   49.4579   13.4958 H         1 UNK         0.0000 
@<TRIPOS>BOND
     1    1    2 1    
     2    1   34 1    
     3    1   35 1    
     4    1   36 1    
     5    2    7 ar   
     6    2    3 ar   
     7    3    4 ar   
     8    3   37 1    
     9    4    5 ar   
    10    4   38 1    
    11    5    6 ar   
    12    5    8 1    
    13    6    7 ar   
    14    6   39 1    
    15    7   40 1    
    16    8    9 am   BACKBONE|DICT|INTERRES
    17    8   41 1    
    18    9   10 2    
    19    9   11 am   BACKBONE|DICT|INTERRES
    20   11   12 1    
    21   11   42 1    
    22   12   17 ar   
    23   12   13 ar   
    24   13   14 ar   
    25   13   43 1    
    26   14   15 ar   
    27   14   44 1    
    28   15   20 1    
    29   15   16 ar   
    30   16   17 ar   
    31   16   18 1    
    32   17   45 1    
    33   18   19 1    
    34   19   20 2    
    35   19   21 1    
    36   21   22 1    
    37   22   23 1    
    38   22   46 1    
    39   22   47 1    
    40   23   24 2    
    41   23   25 am   BACKBONE|DICT|INTERRES
    42   25   26 1    
    43   25   48 1    
    44   26   31 ar   
    45   26   27 ar   
    46   27   28 ar   
    47   27   49 1    
    48   28   29 ar   
    49   28   50 1    
    50   29   30 ar   
    51   29   33 1    
    52   30   31 ar   
    53   30   32 1    
    54   31   51 1    
    55   32   52 1    
    56   32   53 1    
    57   32   54 1    
    58   33   55 1    
    59   33   56 1    
    60   33   57 1    
@<TRIPOS>SUBSTRUCTURE
     1 UNK         1 GROUP             0       ****    0 ROOT    
