@<TRIPOS>MOLECULE
ZINC10075313_5824
62   66    1
SMALL
USER_CHARGES


@<TRIPOS>ATOM
      1 C1         -8.2397   50.9148   33.4530 C.3       1 UNK         0.0000 
      2 O2         -6.8857   50.5961   33.1517 O.3       1 UNK         0.0000 
      3 C3         -6.4348   50.7212   31.8514 C.ar      1 UNK         0.0000 
      4 C4         -7.2288   51.1494   30.7795 C.ar      1 UNK         0.0000 
      5 C5         -6.6914   51.2428   29.4994 C.ar      1 UNK         0.0000 
      6 C6         -5.3504   50.9092   29.2565 C.ar      1 UNK         0.0000 
      7 C7         -4.5596   50.4900   30.3338 C.ar      1 UNK         0.0000 
      8 C8         -5.0999   50.3999   31.6144 C.ar      1 UNK         0.0000 
      9 C9         -4.7277   51.0082   27.8479 C.3       1 UNK         0.0000 
     10 H10        -3.9362   51.7528   27.9614 H         1 UNK         0.0000 
     11 C11        -4.0858   49.6717   27.3937 C.3       1 UNK         0.0000 
     12 C12        -3.5167   49.7716   25.9765 C.2       1 UNK         0.0000 
     13 C13        -4.0084   50.6430   25.0570 C.2       1 UNK         0.0000 
     14 C14        -3.3914   50.6389   23.6450 C.3       1 UNK         0.0000 
     15 H15        -4.1039   50.9442   22.8757 H         1 UNK         0.0000 
     16 C16        -2.9471   49.1672   23.3082 C.3       1 UNK         0.0000 
     17 C17        -2.1522   48.4719   24.4466 C.2       1 UNK         0.0000 
     18 O18        -1.2917   47.6191   24.2476 O.2       1 UNK         0.0000 
     19 N19        -2.5620   48.8372   25.6818 N.am      1 UNK         0.0000 
     20 C20        -2.2614   51.6979   23.4896 C.2       1 UNK         0.0000 
     21 O21        -2.5690   52.8901   23.5485 O.2       1 UNK         0.0000 
     22 N22        -1.0015   51.2626   23.2643 N.am      1 UNK         0.0000 
     23 C23         0.1876   52.0040   23.1667 C.ar      1 UNK         0.0000 
     24 C24         1.2699   51.3689   22.5558 C.ar      1 UNK         0.0000 
     25 C25         2.5007   52.0128   22.4783 C.ar      1 UNK         0.0000 
     26 C26         2.6667   53.2790   23.0360 C.ar      1 UNK         0.0000 
     27 C27         1.5754   53.9377   23.6039 C.ar      1 UNK         0.0000 
     28 C28         0.3456   53.2948   23.6894 C.ar      1 UNK         0.0000 
     29 O29         3.9142   53.8554   22.9969 O.3       1 UNK         0.0000 
     30 C30         4.6207   54.1617   24.1464 C.ar      1 UNK         0.0000 
     31 C31         5.9246   54.6193   23.9596 C.ar      1 UNK         0.0000 
     32 C32         6.7035   54.9937   25.0482 C.ar      1 UNK         0.0000 
     33 C33         6.1924   54.8936   26.3388 C.ar      1 UNK         0.0000 
     34 C34         4.8966   54.4306   26.5450 C.ar      1 UNK         0.0000 
     35 C35         4.1113   54.0688   25.4537 C.ar      1 UNK         0.0000 
     36 C36        -5.1206   51.5658   25.3529 C.2       1 UNK         0.0000 
     37 O37        -5.6441   52.2568   24.4828 O.2       1 UNK         0.0000 
     38 C38        -5.7052   51.5430   26.7706 C.3       1 UNK         0.0000 
     39 H39        -8.4250   50.7414   34.5123 H         1 UNK         0.0000 
     40 H40        -8.4575   51.9640   33.2485 H         1 UNK         0.0000 
     41 H41        -8.9349   50.2885   32.8920 H         1 UNK         0.0000 
     42 H42        -8.2669   51.4095   30.9191 H         1 UNK         0.0000 
     43 H43        -7.3439   51.5740   28.7070 H         1 UNK         0.0000 
     44 H44        -3.5183   50.2321   30.1933 H         1 UNK         0.0000 
     45 H45        -4.4695   50.0957   32.4379 H         1 UNK         0.0000 
     46 H46        -4.7978   48.8455   27.3934 H         1 UNK         0.0000 
     47 H47        -3.2964   49.4154   28.1001 H         1 UNK         0.0000 
     48 H48        -3.8440   48.5558   23.1973 H         1 UNK         0.0000 
     49 H49        -2.4078   49.0923   22.3629 H         1 UNK         0.0000 
     50 H50        -2.1203   48.3315   26.4430 H         1 UNK         0.0000 
     51 H51        -0.8856   50.2689   23.1401 H         1 UNK         0.0000 
     52 H52         1.1714   50.3732   22.1473 H         1 UNK         0.0000 
     53 H53         3.3394   51.5152   22.0141 H         1 UNK         0.0000 
     54 H54         1.6950   54.9295   24.0124 H         1 UNK         0.0000 
     55 H55        -0.4635   53.8102   24.1797 H         1 UNK         0.0000 
     56 H56         6.3277   54.6993   22.9606 H         1 UNK         0.0000 
     57 H57         7.7039   55.3582   24.8807 H         1 UNK         0.0000 
     58 H58         6.7980   55.1764   27.1883 H         1 UNK         0.0000 
     59 H59         4.5029   54.3493   27.5475 H         1 UNK         0.0000 
     60 H60         3.1163   53.7010   25.6463 H         1 UNK         0.0000 
     61 H61        -6.5713   50.8833   26.7266 H         1 UNK         0.0000 
     62 H62        -6.0601   52.5478   26.9994 H         1 UNK         0.0000 
@<TRIPOS>BOND
     1    1    2 1    
     2    1   39 1    
     3    1   40 1    
     4    1   41 1    
     5    2    3 1    
     6    3    8 ar   
     7    3    4 ar   
     8    4    5 ar   
     9    4   42 1    
    10    5    6 ar   
    11    5   43 1    
    12    6    7 ar   
    13    6    9 1    
    14    7    8 ar   
    15    7   44 1    
    16    8   45 1    
    17    9   10 1    
    18    9   38 1    
    19    9   11 1    
    20   11   12 1    
    21   11   46 1    
    22   11   47 1    
    23   12   19 1    
    24   12   13 2    
    25   13   14 1    
    26   13   36 1    
    27   14   15 1    
    28   14   16 1    
    29   14   20 1    
    30   16   17 1    
    31   16   48 1    
    32   16   49 1    
    33   17   18 2    
    34   17   19 am   BACKBONE|DICT|INTERRES
    35   19   50 1    
    36   20   21 2    
    37   20   22 am   BACKBONE|DICT|INTERRES
    38   22   23 1    
    39   22   51 1    
    40   23   28 ar   
    41   23   24 ar   
    42   24   25 ar   
    43   24   52 1    
    44   25   26 ar   
    45   25   53 1    
    46   26   27 ar   
    47   26   29 1    
    48   27   28 ar   
    49   27   54 1    
    50   28   55 1    
    51   29   30 1    
    52   30   35 ar   
    53   30   31 ar   
    54   31   32 ar   
    55   31   56 1    
    56   32   33 ar   
    57   32   57 1    
    58   33   34 ar   
    59   33   58 1    
    60   34   35 ar   
    61   34   59 1    
    62   35   60 1    
    63   36   37 2    
    64   36   38 1    
    65   38   61 1    
    66   38   62 1    
@<TRIPOS>SUBSTRUCTURE
     1 UNK         1 GROUP             0       ****    0 ROOT    
