@<TRIPOS>MOLECULE
ZINC59166666_4305
36   37    1
SMALL
USER_CHARGES


@<TRIPOS>ATOM
      1 C1          0.5402   51.4756   28.4310 C.ar      1 UNK         0.0000 
      2 C2         -0.3820   52.2435   29.1297 C.ar      1 UNK         0.0000 
      3 C3         -0.0346   53.5245   29.5489 C.ar      1 UNK         0.0000 
      4 C4          1.2329   54.0435   29.2720 C.ar      1 UNK         0.0000 
      5 C5          2.1902   53.2459   28.6088 C.ar      1 UNK         0.0000 
      6 C6          1.8233   51.9628   28.1949 C.ar      1 UNK         0.0000 
      7 C7          3.6187   53.7240   28.3239 C.3       1 UNK         0.0000 
      8 O8          3.6153   54.7996   27.3883 O.3       1 UNK         0.0000 
      9 C9          3.7614   54.4460   26.0699 C.ar      1 UNK         0.0000 
     10 C10         2.6537   54.0162   25.3365 C.ar      1 UNK         0.0000 
     11 C11         2.7761   53.7109   23.9822 C.ar      1 UNK         0.0000 
     12 C12         4.0098   53.8348   23.3316 C.ar      1 UNK         0.0000 
     13 C13         5.1209   54.2572   24.0809 C.ar      1 UNK         0.0000 
     14 C14         5.0032   54.5510   25.4397 C.ar      1 UNK         0.0000 
     15 I15         6.7036   55.1496   26.5017 I         1 UNK         0.0000 
     16 C16         4.1168   53.4928   21.9100 C.2       1 UNK         0.0000 
     17 N17         5.1067   53.8464   21.1968 N.2       1 UNK         0.0000 
     18 N18         5.1038   53.3060   19.9591 N.pl3     1 UNK         0.0000 
     19 C19         5.8951   53.7285   18.9290 C.2       1 UNK         0.0000 
     20 S20         6.8420   55.1047   18.8809 S.2       1 UNK         0.0000 
     21 N21         5.8921   52.8968   17.8656 N.pl3     1 UNK         0.0000 
     22 C22         1.5064   55.4122   29.6828 C.1       1 UNK         0.0000 
     23 N23         1.7180   56.4970   30.0130 N.1       1 UNK         0.0000 
     24 H24         0.2542   50.4967   28.0812 H         1 UNK         0.0000 
     25 H25        -1.3634   51.8412   29.3371 H         1 UNK         0.0000 
     26 H26        -0.7682   54.1115   30.0808 H         1 UNK         0.0000 
     27 H27         2.5308   51.3316   27.6819 H         1 UNK         0.0000 
     28 H28         4.0593   54.0795   29.2568 H         1 UNK         0.0000 
     29 H29         4.2605   52.8986   28.0026 H         1 UNK         0.0000 
     30 H30         1.6885   53.9397   25.8170 H         1 UNK         0.0000 
     31 H31         1.8970   53.3902   23.4394 H         1 UNK         0.0000 
     32 H32         6.0912   54.3546   23.6121 H         1 UNK         0.0000 
     33 H33         3.2808   52.9132   21.5130 H         1 UNK         0.0000 
     34 H34         4.3659   52.6421   19.7700 H         1 UNK         0.0000 
     35 H35         5.5644   51.9266   17.9760 H         1 UNK         0.0000 
     36 H36         6.3795   53.1693   17.0258 H         1 UNK         0.0000 
@<TRIPOS>BOND
     1    1    6 ar   
     2    1    2 ar   
     3    1   24 1    
     4    2    3 ar   
     5    2   25 1    
     6    3    4 ar   
     7    3   26 1    
     8    4    5 ar   
     9    4   22 1    
    10    5    6 ar   
    11    5    7 1    
    12    6   27 1    
    13    7    8 1    
    14    7   28 1    
    15    7   29 1    
    16    8    9 1    
    17    9   14 ar   
    18    9   10 ar   
    19   10   11 ar   
    20   10   30 1    
    21   11   12 ar   
    22   11   31 1    
    23   12   13 ar   
    24   12   16 1    
    25   13   14 ar   
    26   13   32 1    
    27   14   15 1    
    28   16   17 2    
    29   16   33 1    
    30   17   18 1    
    31   18   19 1    
    32   18   34 1    
    33   19   20 2    
    34   19   21 1    
    35   21   35 1    
    36   21   36 1    
    37   22   23 3    
@<TRIPOS>SUBSTRUCTURE
     1 UNK         1 GROUP             0       ****    0 ROOT    
