ZINC13089074_549
                    3D
 Schrodinger Suite 2024-2.
 58 60  0  0  1  0            999 V2000
   -0.3397   51.9207   29.6148 C   0  0  0  0  0  0
    0.6967   52.8762   29.0380 C   0  0  0  0  0  0
    1.2523   53.8378   29.8857 C   0  0  0  0  0  0
    2.2366   54.7056   29.4239 C   0  0  0  0  0  0
    2.6812   54.6105   28.1101 C   0  0  0  0  0  0
    2.1296   53.6692   27.2241 C   0  0  0  0  0  0
    1.1179   52.7987   27.6938 C   0  0  0  0  0  0
    0.4675   51.7801   26.7484 C   0  0  0  0  0  0
    2.5134   53.5790   25.8649 N   0  0  0  0  0  0
    3.5045   54.1920   25.1769 C   0  0  0  0  0  0
    4.3623   54.9085   25.6889 O   0  0  0  0  0  0
    3.5836   53.9760   23.6445 C   0  0  0  0  0  0
    2.7044   52.8960   23.1655 N   0  0  0  0  0  0
    1.3016   53.3151   22.9465 C   0  0  0  0  0  0
    0.4429   52.0694   22.6287 C   0  0  0  0  0  0
    1.0059   51.3461   21.4688 N   0  0  0  0  0  0
    2.4340   51.0022   21.6064 C   0  0  0  0  0  0
    3.2577   52.2591   21.9505 C   0  0  0  0  0  0
    0.2051   51.3057   19.8944 S   0  0  0  0  0  0
    1.0279   52.0806   18.9588 O   0  0  0  0  0  0
   -1.2070   51.6510   20.0976 O   0  0  0  0  0  0
    0.2925   49.5779   19.4259 C   0  0  0  0  0  0
   -0.6148   48.6671   19.9744 C   0  0  0  0  0  0
   -0.5014   47.3103   19.6780 C   0  0  0  0  0  0
    0.5165   46.8504   18.8315 C   0  0  0  0  0  0
    1.4153   47.7729   18.2813 C   0  0  0  0  0  0
    1.3099   49.1292   18.5791 C   0  0  0  0  0  0
    0.7044   45.4172   18.5287 C   0  0  0  0  0  0
    0.2890   44.3758   19.2858 C   0  0  0  0  0  0
    0.5329   42.8943   18.9428 C   0  0  0  0  0  0
    0.8925   42.6505   17.7703 O   0  0  0  0  0  0
    0.3042   42.1006   19.8863 O   0  5  0  0  0  0
   -0.0862   50.8953   29.3456 H   0  0  0  0  0  0
   -0.3922   51.9642   30.7040 H   0  0  0  0  0  0
   -1.3246   52.1298   29.2038 H   0  0  0  0  0  0
    0.9223   53.9140   30.9116 H   0  0  0  0  0  0
    2.6559   55.4514   30.0813 H   0  0  0  0  0  0
    3.4516   55.2965   27.8020 H   0  0  0  0  0  0
   -0.5174   51.4527   27.0812 H   0  0  0  0  0  0
    0.2967   52.2140   25.7603 H   0  0  0  0  0  0
    1.1033   50.9019   26.6347 H   0  0  0  0  0  0
    1.9707   52.9313   25.3105 H   0  0  0  0  0  0
    4.6280   53.7447   23.4284 H   0  0  0  0  0  0
    3.3503   54.9057   23.1269 H   0  0  0  0  0  0
    1.3281   53.9821   22.0837 H   0  0  0  0  0  0
    0.8844   53.8610   23.7949 H   0  0  0  0  0  0
   -0.5738   52.3801   22.3865 H   0  0  0  0  0  0
    0.3836   51.3889   23.4793 H   0  0  0  0  0  0
    2.5477   50.2245   22.3631 H   0  0  0  0  0  0
    2.7857   50.5902   20.6597 H   0  0  0  0  0  0
    4.3116   51.9969   22.0661 H   0  0  0  0  0  0
    3.1547   53.0047   21.1577 H   0  0  0  0  0  0
   -1.3952   49.0098   20.6416 H   0  0  0  0  0  0
   -1.2090   46.6197   20.1140 H   0  0  0  0  0  0
    2.2186   47.4476   17.6338 H   0  0  0  0  0  0
    2.0349   49.8188   18.1596 H   0  0  0  0  0  0
    1.2227   45.2027   17.6026 H   0  0  0  0  0  0
   -0.2460   44.5764   20.2031 H   0  0  0  0  0  0
  1  2  1  0  0  0
  1 33  1  0  0  0
  1 34  1  0  0  0
  1 35  1  0  0  0
  2  7  2  0  0  0
  2  3  1  0  0  0
  3  4  2  0  0  0
  3 36  1  0  0  0
  4  5  1  0  0  0
  4 37  1  0  0  0
  5  6  2  0  0  0
  5 38  1  0  0  0
  6  7  1  0  0  0
  6  9  1  0  0  0
  7  8  1  0  0  0
  8 39  1  0  0  0
  8 40  1  0  0  0
  8 41  1  0  0  0
  9 10  1  0  0  0
  9 42  1  0  0  0
 10 11  2  0  0  0
 10 12  1  0  0  0
 12 13  1  0  0  0
 12 43  1  0  0  0
 12 44  1  0  0  0
 13 18  1  0  0  0
 13 14  1  0  0  0
 14 15  1  0  0  0
 14 45  1  0  0  0
 14 46  1  0  0  0
 15 16  1  0  0  0
 15 47  1  0  0  0
 15 48  1  0  0  0
 16 17  1  0  0  0
 16 19  1  0  0  0
 17 18  1  0  0  0
 17 49  1  0  0  0
 17 50  1  0  0  0
 18 51  1  0  0  0
 18 52  1  0  0  0
 19 20  2  0  0  0
 19 21  2  0  0  0
 19 22  1  0  0  0
 22 27  2  0  0  0
 22 23  1  0  0  0
 23 24  2  0  0  0
 23 53  1  0  0  0
 24 25  1  0  0  0
 24 54  1  0  0  0
 25 26  2  0  0  0
 25 28  1  0  0  0
 26 27  1  0  0  0
 26 55  1  0  0  0
 27 56  1  0  0  0
 28 29  2  0  0  0
 28 57  1  0  0  0
 29 30  1  0  0  0
 29 58  1  0  0  0
 30 31  2  0  0  0
 30 32  1  0  0  0
M  CHG  1  32  -1
M  END
> <i_i_glide_confnum>
183

> <i_i_glide_lignum>
550

> <i_i_glide_posenum>
174

> <i_i_glide_rotatable_bonds>
8

> <i_m_Source_File_Index>
5392

> <b_m_subgroup_collapsed>
0

> <r_i_docking_score>
-4.34704

> <r_i_glide_ecoul>
-5.683

> <r_i_glide_eff_state_penalty>
0

> <r_i_glide_einternal>
5.61094

> <r_i_glide_emodel>
-55.9029

> <r_i_glide_energy>
-43.1337

> <r_i_glide_erotb>
0.771416

> <r_i_glide_esite>
-0.0968328

> <r_i_glide_evdw>
-37.4507

> <r_i_glide_gscore>
-4.34704

> <r_i_glide_hbond>
-0.357579

> <r_i_glide_ligand_efficiency>
-0.135845

> <r_i_glide_ligand_efficiency_ln>
-0.973422

> <r_i_glide_ligand_efficiency_sa>
-0.431281

> <r_i_glide_lipo>
-1.70266

> <r_i_glide_metal>
0

> <r_i_glide_rewards>
-0.236404

> <s_i_glide_gridfile>
wee1_glide-grid

> <s_m_Source_File>
wee1_decoys_glide_SP.sdf

> <s_m_Source_Path>
/Users/zhangxujun/Desktop

> <s_m_entry_id>
5667

> <s_m_entry_name>
wee1_decoys_glide_SP.5392

> <s_m_subgroup_title>
wee1_decoys_glide_SP

> <s_m_subgroupid>
wee1_decoys_glide_SP


$$$$
