@<TRIPOS>MOLECULE
ZINC39946110_3087
57   60    1
SMALL
USER_CHARGES


@<TRIPOS>ATOM
      1 C1          1.4148   55.6327   30.2035 C.3       1 UNK         0.0000 
      2 C2          0.4499   54.4731   30.5080 C.3       1 UNK         0.0000 
      3 C3          0.1532   53.5224   29.3252 C.3       1 UNK         0.0000 
      4 C4          1.2555   52.4737   29.0010 C.3       1 UNK         0.0000 
      5 H5          1.4521   52.0046   29.9641 H         1 UNK         0.0000 
      6 C6          0.7294   51.3302   28.0879 C.3       1 UNK         0.0000 
      7 N7          0.4511   51.7586   26.7148 N.am      1 UNK         0.0000 
      8 C8          0.3042   50.9379   25.6626 C.2       1 UNK         0.0000 
      9 O9          0.3015   49.7127   25.7587 O.2       1 UNK         0.0000 
     10 C10         0.1902   51.6078   24.2905 C.3       1 UNK         0.0000 
     11 S11         1.3505   50.9053   23.0717 S.3       1 UNK         0.0000 
     12 C12         1.6630   52.3840   22.0646 C.3       1 UNK         0.0000 
     13 H13         0.7046   52.8964   21.9795 H         1 UNK         0.0000 
     14 N14         2.1511   52.0541   20.7657 N.pl3     1 UNK         0.0000 
     15 N15         3.3773   52.6828   20.6060 N.2       1 UNK         0.0000 
     16 C16         3.5901   53.2883   21.7023 C.2       1 UNK         0.0000 
     17 O17         2.5977   53.2168   22.6393 O.3       1 UNK         0.0000 
     18 C18         4.7832   54.0278   22.0205 C.2       1 UNK         0.0000 
     19 C19         5.6401   54.5965   21.1452 C.2       1 UNK         0.0000 
     20 C20         5.6434   54.6988   19.6741 C.2       1 UNK         0.0000 
     21 C21         6.6781   55.2668   19.0218 C.2       1 UNK         0.0000 
     22 C22         7.7930   55.7676   19.8109 C.2       1 UNK         0.0000 
     23 C23         7.8005   55.6967   21.1679 C.2       1 UNK         0.0000 
     24 C24         6.7286   55.1128   21.8572 C.2       1 UNK         0.0000 
     25 N25         6.5874   54.9156   23.1483 N.pl3     1 UNK         0.0000 
     26 C26         5.3081   54.2306   23.4234 C.3       1 UNK         0.0000 
     27 C27         2.5732   53.0804   28.4694 C.ar      1 UNK         0.0000 
     28 C28         2.5364   53.9698   27.3863 C.ar      1 UNK         0.0000 
     29 C29         3.7075   54.4972   26.8472 C.ar      1 UNK         0.0000 
     30 C30         4.9408   54.1630   27.3963 C.ar      1 UNK         0.0000 
     31 C31         4.9961   53.2945   28.4819 C.ar      1 UNK         0.0000 
     32 C32         3.8258   52.7573   29.0273 C.ar      1 UNK         0.0000 
     33 Cl33        3.9808   51.7004   30.3867 Cl        1 UNK         0.0000 
     34 Cl34        6.3958   54.8295   26.7418 Cl        1 UNK         0.0000 
     35 H35         1.4554   56.3346   31.0383 H         1 UNK         0.0000 
     36 H36         2.4312   55.2849   30.0342 H         1 UNK         0.0000 
     37 H37         1.1032   56.1932   29.3233 H         1 UNK         0.0000 
     38 H38        -0.4956   54.8975   30.8444 H         1 UNK         0.0000 
     39 H39         0.8162   53.8999   31.3598 H         1 UNK         0.0000 
     40 H40        -0.1136   54.0994   28.4406 H         1 UNK         0.0000 
     41 H41        -0.7558   52.9779   29.5861 H         1 UNK         0.0000 
     42 H42         1.4686   50.5241   28.0726 H         1 UNK         0.0000 
     43 H43        -0.1814   50.8973   28.5056 H         1 UNK         0.0000 
     44 H44         0.3863   52.7526   26.5632 H         1 UNK         0.0000 
     45 H45        -0.8291   51.4894   23.9214 H         1 UNK         0.0000 
     46 H46         0.3743   52.6794   24.3836 H         1 UNK         0.0000 
     47 H47         1.6056   52.1939   19.9261 H         1 UNK         0.0000 
     48 H48         4.8223   54.3250   19.0751 H         1 UNK         0.0000 
     49 H49         6.6828   55.3453   17.9447 H         1 UNK         0.0000 
     50 H50         8.6434   56.1989   19.2993 H         1 UNK         0.0000 
     51 H51         8.6651   56.0790   21.6948 H         1 UNK         0.0000 
     52 H52         4.6904   54.8869   24.0358 H         1 UNK         0.0000 
     53 H53         5.5230   53.3047   23.9572 H         1 UNK         0.0000 
     54 H54         1.5941   54.2508   26.9424 H         1 UNK         0.0000 
     55 H55         3.6494   55.1843   26.0185 H         1 UNK         0.0000 
     56 H56         5.9558   53.0356   28.9004 H         1 UNK         0.0000 
     57 H57         7.2691   55.1777   23.8564 H         1 UNK         0.0000 
@<TRIPOS>BOND
     1    1    2 1    
     2    1   35 1    
     3    1   36 1    
     4    1   37 1    
     5    2    3 1    
     6    2   38 1    
     7    2   39 1    
     8    3    4 1    
     9    3   40 1    
    10    3   41 1    
    11    4    5 1    
    12    4    6 1    
    13    4   27 1    
    14    6    7 1    
    15    6   42 1    
    16    6   43 1    
    17    7    8 am   BACKBONE|DICT|INTERRES
    18    7   44 1    
    19    8    9 2    
    20    8   10 1    
    21   10   11 1    
    22   10   45 1    
    23   10   46 1    
    24   11   12 1    
    25   12   13 1    
    26   12   17 1    
    27   12   14 1    
    28   14   15 1    
    29   14   47 1    
    30   15   16 2    
    31   16   17 1    
    32   16   18 1    
    33   18   26 1    
    34   18   19 2    
    35   19   24 1    
    36   19   20 1    
    37   20   21 2    
    38   20   48 1    
    39   21   22 1    
    40   21   49 1    
    41   22   23 2    
    42   22   50 1    
    43   23   24 1    
    44   23   51 1    
    45   24   25 2    
    46   25   26 1    
    47   25   57 1    
    48   26   52 1    
    49   26   53 1    
    50   27   32 ar   
    51   27   28 ar   
    52   28   29 ar   
    53   28   54 1    
    54   29   30 ar   
    55   29   55 1    
    56   30   31 ar   
    57   30   34 1    
    58   31   32 ar   
    59   31   56 1    
    60   32   33 1    
@<TRIPOS>SUBSTRUCTURE
     1 UNK         1 GROUP             0       ****    0 ROOT    
