@<TRIPOS>MOLECULE
ZINC38597985_887
62   65    1
SMALL
USER_CHARGES


@<TRIPOS>ATOM
      1 C1         -4.2764   49.8335   29.7120 C.3       1 UNK         0.0000 
      2 O2         -4.1527   48.9985   28.5669 O.3       1 UNK         0.0000 
      3 C3         -4.9035   47.8375   28.4931 C.ar      1 UNK         0.0000 
      4 C4         -6.0879   47.6523   29.2254 C.ar      1 UNK         0.0000 
      5 C5         -6.8505   46.4968   29.0690 C.ar      1 UNK         0.0000 
      6 C6         -6.4325   45.5012   28.1905 C.ar      1 UNK         0.0000 
      7 C7         -5.2530   45.6596   27.4668 C.ar      1 UNK         0.0000 
      8 C8         -4.4914   46.8332   27.5962 C.ar      1 UNK         0.0000 
      9 N9         -3.2959   47.0635   26.8817 N.am      1 UNK         0.0000 
     10 C10        -2.9394   46.5984   25.6596 C.2       1 UNK         0.0000 
     11 O11        -3.5482   45.6992   25.0673 O.2       1 UNK         0.0000 
     12 C12        -1.7865   47.2967   24.9879 C.2       1 UNK         0.0000 
     13 O13        -1.4924   47.0251   23.8206 O.2       1 UNK         0.0000 
     14 N14        -1.1269   48.2555   25.6817 N.am      1 UNK         0.0000 
     15 C15        -0.1489   49.1834   25.0954 C.3       1 UNK         0.0000 
     16 C16        -0.7483   50.1487   24.0194 C.3       1 UNK         0.0000 
     17 H17        -0.7442   49.6362   23.0542 H         1 UNK         0.0000 
     18 C18        -2.1661   50.6346   24.3078 C.2       1 UNK         0.0000 
     19 C19        -3.3007   50.8061   23.5247 C.2       1 UNK         0.0000 
     20 C20        -4.3266   51.2280   24.3734 C.2       1 UNK         0.0000 
     21 C21        -3.7796   51.2849   25.6438 C.2       1 UNK         0.0000 
     22 O22        -2.4700   50.9343   25.6017 O.3       1 UNK         0.0000 
     23 N23         0.1349   51.3995   23.7306 N.4       1 UNK         0.0000 
     24 C24         0.3043   52.3861   24.9077 C.3       1 UNK         0.0000 
     25 C25         1.0117   53.6465   24.3748 C.3       1 UNK         0.0000 
     26 N26         2.3235   53.3721   23.7731 N.pl3     1 UNK         0.0000 
     27 C27         2.2520   52.3384   22.7232 C.3       1 UNK         0.0000 
     28 C28         1.5215   51.0402   23.1504 C.3       1 UNK         0.0000 
     29 C29         3.5220   53.8393   24.3067 C.ar      1 UNK         0.0000 
     30 C30         3.6629   54.0481   25.6872 C.ar      1 UNK         0.0000 
     31 C31         4.8676   54.4968   26.2190 C.ar      1 UNK         0.0000 
     32 C32         5.9429   54.7426   25.3728 C.ar      1 UNK         0.0000 
     33 C33         5.8300   54.5321   24.0026 C.ar      1 UNK         0.0000 
     34 C34         4.6183   54.0949   23.4706 C.ar      1 UNK         0.0000 
     35 F35         7.1044   55.1967   25.8881 F         1 UNK         0.0000 
     36 Cl36       -7.3544   44.0509   28.0333 Cl        1 UNK         0.0000 
     37 H37        -3.4852   50.5823   29.6925 H         1 UNK         0.0000 
     38 H38        -5.2317   50.3584   29.7276 H         1 UNK         0.0000 
     39 H39        -4.1610   49.2665   30.6375 H         1 UNK         0.0000 
     40 H40        -6.4414   48.4089   29.9082 H         1 UNK         0.0000 
     41 H41        -7.7625   46.3725   29.6355 H         1 UNK         0.0000 
     42 H42        -4.9399   44.8513   26.8242 H         1 UNK         0.0000 
     43 H43        -2.6908   47.7389   27.3528 H         1 UNK         0.0000 
     44 H44        -1.3203   48.4032   26.6756 H         1 UNK         0.0000 
     45 H45         0.2936   49.7397   25.9203 H         1 UNK         0.0000 
     46 H46         0.6733   48.6036   24.6670 H         1 UNK         0.0000 
     47 H47        -3.3788   50.6272   22.4617 H         1 UNK         0.0000 
     48 H48        -5.3488   51.4454   24.0974 H         1 UNK         0.0000 
     49 H49        -4.1753   51.5317   26.6193 H         1 UNK         0.0000 
     50 H50        -0.6948   52.6617   25.2450 H         1 UNK         0.0000 
     51 H51         0.8533   51.8953   25.7115 H         1 UNK         0.0000 
     52 H52         0.4121   54.1176   23.5948 H         1 UNK         0.0000 
     53 H53         1.1045   54.3863   25.1669 H         1 UNK         0.0000 
     54 H54         3.2414   52.0830   22.3438 H         1 UNK         0.0000 
     55 H55         1.7184   52.8138   21.8979 H         1 UNK         0.0000 
     56 H56         2.0677   50.4636   23.8993 H         1 UNK         0.0000 
     57 H57         1.3318   50.4248   22.2682 H         1 UNK         0.0000 
     58 H58         2.8497   53.8417   26.3649 H         1 UNK         0.0000 
     59 H59         4.9718   54.6534   27.2828 H         1 UNK         0.0000 
     60 H60         6.6733   54.7274   23.3568 H         1 UNK         0.0000 
     61 H61         4.5370   53.9564   22.4027 H         1 UNK         0.0000 
     62 H62        -0.3579   51.9041   23.0061 H         1 UNK         0.0000 
@<TRIPOS>BOND
     1    1    2 1    
     2    1   37 1    
     3    1   38 1    
     4    1   39 1    
     5    2    3 1    
     6    3    8 ar   
     7    3    4 ar   
     8    4    5 ar   
     9    4   40 1    
    10    5    6 ar   
    11    5   41 1    
    12    6    7 ar   
    13    6   36 1    
    14    7    8 ar   
    15    7   42 1    
    16    8    9 1    
    17    9   10 am   BACKBONE|DICT|INTERRES
    18    9   43 1    
    19   10   11 2    
    20   10   12 1    
    21   12   13 2    
    22   12   14 am   BACKBONE|DICT|INTERRES
    23   14   15 1    
    24   14   44 1    
    25   15   16 1    
    26   15   45 1    
    27   15   46 1    
    28   16   17 1    
    29   16   18 1    
    30   16   23 1    
    31   18   22 1    
    32   18   19 2    
    33   19   20 1    
    34   19   47 1    
    35   20   21 2    
    36   20   48 1    
    37   21   22 1    
    38   21   49 1    
    39   23   28 1    
    40   23   24 1    
    41   23   62 1    
    42   24   25 1    
    43   24   50 1    
    44   24   51 1    
    45   25   26 1    
    46   25   52 1    
    47   25   53 1    
    48   26   27 1    
    49   26   29 1    
    50   27   28 1    
    51   27   54 1    
    52   27   55 1    
    53   28   56 1    
    54   28   57 1    
    55   29   34 ar   
    56   29   30 ar   
    57   30   31 ar   
    58   30   58 1    
    59   31   32 ar   
    60   31   59 1    
    61   32   33 ar   
    62   32   35 1    
    63   33   34 ar   
    64   33   60 1    
    65   34   61 1    
@<TRIPOS>SUBSTRUCTURE
     1 UNK         1 GROUP             0       ****    0 ROOT    
