@<TRIPOS>MOLECULE
ZINC08690872_2982
56   59    1
SMALL
USER_CHARGES


@<TRIPOS>ATOM
      1 C1          5.8703   55.1919   26.0447 C.3       1 UNK         0.0000 
      2 C2          4.5250   54.5054   25.8661 C.ar      1 UNK         0.0000 
      3 C3          3.8799   54.0889   24.6825 C.ar      1 UNK         0.0000 
      4 C4          2.7016   53.4618   25.1244 C.ar      1 UNK         0.0000 
      5 N5          2.6893   53.6215   26.5060 N.pl3     1 UNK         0.0000 
      6 N6          3.7993   54.2529   26.9254 N.2       1 UNK         0.0000 
      7 C7          1.7280   53.2318   27.4863 C.ar      1 UNK         0.0000 
      8 C8          1.5333   54.0286   28.6281 C.ar      1 UNK         0.0000 
      9 C9          0.6263   53.6437   29.6107 C.ar      1 UNK         0.0000 
     10 C10        -0.0922   52.4626   29.4592 C.ar      1 UNK         0.0000 
     11 C11         0.0744   51.6722   28.3244 C.ar      1 UNK         0.0000 
     12 C12         0.9862   52.0514   27.3445 C.ar      1 UNK         0.0000 
     13 N13         1.7071   52.7751   24.4496 N.pl3     1 UNK         0.0000 
     14 C14         0.4759   53.4219   24.0263 C.3       1 UNK         0.0000 
     15 C15        -0.3034   52.3905   23.2282 C.3       1 UNK         0.0000 
     16 C16         0.7938   51.6784   22.4709 C.3       1 UNK         0.0000 
     17 C17         1.9975   51.7820   23.4118 C.3       1 UNK         0.0000 
     18 C18         4.3212   54.2918   23.3072 C.2       1 UNK         0.0000 
     19 N19         5.5494   54.4964   23.0076 N.2       1 UNK         0.0000 
     20 N20         5.9085   54.8265   21.7099 N.pl3     1 UNK         0.0000 
     21 C21         5.4298   54.4143   20.4867 C.2       1 UNK         0.0000 
     22 N22         5.7839   55.2909   19.4993 N.pl3     1 UNK         0.0000 
     23 C23         5.4697   55.2481   18.1312 C.ar      1 UNK         0.0000 
     24 C24         4.2422   55.7696   17.7035 C.ar      1 UNK         0.0000 
     25 C25         3.8953   55.7511   16.3468 C.ar      1 UNK         0.0000 
     26 C26         4.7951   55.2094   15.4228 C.ar      1 UNK         0.0000 
     27 C27         6.0215   54.6942   15.8466 C.ar      1 UNK         0.0000 
     28 C28         6.3669   54.7100   17.1985 C.ar      1 UNK         0.0000 
     29 Cl29        7.8993   54.0614   17.6730 Cl        1 UNK         0.0000 
     30 C30         2.5553   56.3134   15.8681 C.3       1 UNK         0.0000 
     31 F31         2.7605   57.4974   15.2980 F         1 UNK         0.0000 
     32 F32         1.6909   56.4779   16.8713 F         1 UNK         0.0000 
     33 F33         1.9970   55.4988   14.9699 F         1 UNK         0.0000 
     34 S34         4.5529   53.0057   20.2013 S.2       1 UNK         0.0000 
     35 H35         6.0163   55.9763   25.3001 H         1 UNK         0.0000 
     36 H36         5.9880   55.6670   27.0217 H         1 UNK         0.0000 
     37 H37         6.6930   54.4847   25.9280 H         1 UNK         0.0000 
     38 H38         2.0812   54.9492   28.7617 H         1 UNK         0.0000 
     39 H39         0.4859   54.2551   30.4897 H         1 UNK         0.0000 
     40 H40        -0.7891   52.1514   30.2247 H         1 UNK         0.0000 
     41 H41        -0.4888   50.7562   28.2140 H         1 UNK         0.0000 
     42 H42         1.1260   51.3936   26.4981 H         1 UNK         0.0000 
     43 H43        -0.1146   53.7001   24.8811 H         1 UNK         0.0000 
     44 H44         0.7016   54.3199   23.4464 H         1 UNK         0.0000 
     45 H45        -0.8581   51.7224   23.8885 H         1 UNK         0.0000 
     46 H46        -1.0287   52.8807   22.5790 H         1 UNK         0.0000 
     47 H47         1.0014   52.1902   21.5311 H         1 UNK         0.0000 
     48 H48         0.5281   50.6457   22.2483 H         1 UNK         0.0000 
     49 H49         2.8356   52.1136   22.8021 H         1 UNK         0.0000 
     50 H50         2.2794   50.8193   23.8386 H         1 UNK         0.0000 
     51 H51         3.4963   54.2927   22.5968 H         1 UNK         0.0000 
     52 H52         6.3538   56.0791   19.7687 H         1 UNK         0.0000 
     53 H53         3.5549   56.1739   18.4360 H         1 UNK         0.0000 
     54 H54         4.5494   55.1966   14.3692 H         1 UNK         0.0000 
     55 H55         6.7050   54.2805   15.1211 H         1 UNK         0.0000 
     56 H56         6.6854   55.4701   21.6880 H         1 UNK         0.0000 
@<TRIPOS>BOND
     1    1    2 1    
     2    1   35 1    
     3    1   36 1    
     4    1   37 1    
     5    2    6 ar   
     6    2    3 ar   
     7    3    4 ar   
     8    3   18 1    
     9    4    5 ar   
    10    4   13 1    
    11    5    6 ar   
    12    5    7 1    
    13    7   12 ar   
    14    7    8 ar   
    15    8    9 ar   
    16    8   38 1    
    17    9   10 ar   
    18    9   39 1    
    19   10   11 ar   
    20   10   40 1    
    21   11   12 ar   
    22   11   41 1    
    23   12   42 1    
    24   13   17 1    
    25   13   14 1    
    26   14   15 1    
    27   14   43 1    
    28   14   44 1    
    29   15   16 1    
    30   15   45 1    
    31   15   46 1    
    32   16   17 1    
    33   16   47 1    
    34   16   48 1    
    35   17   49 1    
    36   17   50 1    
    37   18   19 2    
    38   18   51 1    
    39   19   20 1    
    40   20   21 1    
    41   20   56 1    
    42   21   22 1    
    43   21   34 2    
    44   22   23 1    
    45   22   52 1    
    46   23   28 ar   
    47   23   24 ar   
    48   24   25 ar   
    49   24   53 1    
    50   25   26 ar   
    51   25   30 1    
    52   26   27 ar   
    53   26   54 1    
    54   27   28 ar   
    55   27   55 1    
    56   28   29 1    
    57   30   31 1    
    58   30   32 1    
    59   30   33 1    
@<TRIPOS>SUBSTRUCTURE
     1 UNK         1 GROUP             0       ****    0 ROOT    
