@<TRIPOS>MOLECULE
ZINC38700419_5407
60   63    1
SMALL
USER_CHARGES


@<TRIPOS>ATOM
      1 C1          3.8547   52.3407   30.7480 C.3       1 UNK         0.0000 
      2 O2          3.9044   53.6957   30.3205 O.3       1 UNK         0.0000 
      3 C3          3.9488   53.8480   28.9583 C.ar      1 UNK         0.0000 
      4 C4          5.1834   53.9467   28.3108 C.ar      1 UNK         0.0000 
      5 C5          5.2429   54.0974   26.9242 C.ar      1 UNK         0.0000 
      6 C6          4.0640   54.1564   26.1626 C.ar      1 UNK         0.0000 
      7 C7          2.8319   54.0630   26.8271 C.ar      1 UNK         0.0000 
      8 C8          2.7684   53.9220   28.2118 C.ar      1 UNK         0.0000 
      9 Cl9         1.2234   53.8468   28.9829 Cl        1 UNK         0.0000 
     10 C10         4.0692   54.3314   24.6733 C.2       1 UNK         0.0000 
     11 O11         3.0280   54.4968   24.0274 O.2       1 UNK         0.0000 
     12 O12         5.3270   54.2662   24.1099 O.3       1 UNK         0.0000 
     13 C13         5.4918   54.3045   22.7354 C.ar      1 UNK         0.0000 
     14 C14         4.7894   53.4454   21.8795 C.ar      1 UNK         0.0000 
     15 C15         4.9616   53.5203   20.5015 C.ar      1 UNK         0.0000 
     16 C16         5.8373   54.4526   19.9291 C.ar      1 UNK         0.0000 
     17 C17         6.5607   55.2958   20.7980 C.ar      1 UNK         0.0000 
     18 C18         6.4026   55.2093   22.1816 C.ar      1 UNK         0.0000 
     19 O19         7.5057   56.1872   20.3365 O.3       1 UNK         0.0000 
     20 C20         7.8802   56.1257   19.0347 C.2       1 UNK         0.0000 
     21 C21         7.2749   55.3834   18.0849 C.2       1 UNK         0.0000 
     22 C22         6.0686   54.5006   18.4109 C.3       1 UNK         0.0000 
     23 H23         6.3685   53.4965   18.0991 H         1 UNK         0.0000 
     24 C24         4.7755   54.7899   17.6390 C.ar      1 UNK         0.0000 
     25 C25         3.9622   53.7188   17.2601 C.ar      1 UNK         0.0000 
     26 C26         2.7443   53.9269   16.5999 C.ar      1 UNK         0.0000 
     27 C27         2.3669   55.2391   16.2831 C.ar      1 UNK         0.0000 
     28 C28         3.1910   56.3281   16.6067 C.ar      1 UNK         0.0000 
     29 C29         4.3929   56.0920   17.2955 C.ar      1 UNK         0.0000 
     30 O30         2.7544   57.5820   16.2161 O.3       1 UNK         0.0000 
     31 C31         3.6452   58.6925   16.2670 C.3       1 UNK         0.0000 
     32 O32         1.1681   55.4598   15.6455 O.3       1 UNK         0.0000 
     33 C33         1.2670   55.4807   14.2279 C.3       1 UNK         0.0000 
     34 O34         1.8867   52.9032   16.2315 O.3       1 UNK         0.0000 
     35 C35         2.2684   51.5507   16.4679 C.3       1 UNK         0.0000 
     36 C36         7.7751   55.3772   16.7484 C.1       1 UNK         0.0000 
     37 N37         8.1949   55.3949   15.6713 N.1       1 UNK         0.0000 
     38 N38         8.9977   56.8973   18.8818 N.pl3     1 UNK         0.0000 
     39 H39         3.8809   52.2995   31.8372 H         1 UNK         0.0000 
     40 H40         2.9361   51.8529   30.4187 H         1 UNK         0.0000 
     41 H41         4.7041   51.7661   30.3723 H         1 UNK         0.0000 
     42 H42         6.0989   53.9076   28.8826 H         1 UNK         0.0000 
     43 H43         6.2140   54.1687   26.4539 H         1 UNK         0.0000 
     44 H44         1.9030   54.0963   26.2726 H         1 UNK         0.0000 
     45 H45         4.0953   52.7219   22.2826 H         1 UNK         0.0000 
     46 H46         4.4116   52.8363   19.8696 H         1 UNK         0.0000 
     47 H47         6.9811   55.8527   22.8268 H         1 UNK         0.0000 
     48 H48         4.2794   52.7169   17.5128 H         1 UNK         0.0000 
     49 H49         5.0316   56.9152   17.5775 H         1 UNK         0.0000 
     50 H50         3.1393   59.5680   15.8614 H         1 UNK         0.0000 
     51 H51         3.9437   58.9336   17.2834 H         1 UNK         0.0000 
     52 H52         4.5390   58.5186   15.6667 H         1 UNK         0.0000 
     53 H53         0.2839   55.6721   13.7986 H         1 UNK         0.0000 
     54 H54         1.9397   56.2674   13.8819 H         1 UNK         0.0000 
     55 H55         1.6194   54.5245   13.8392 H         1 UNK         0.0000 
     56 H56         1.4803   50.8872   16.1118 H         1 UNK         0.0000 
     57 H57         2.4173   51.3477   17.5292 H         1 UNK         0.0000 
     58 H58         3.1782   51.2970   15.9233 H         1 UNK         0.0000 
     59 H59         9.4103   57.0083   17.9664 H         1 UNK         0.0000 
     60 H60         9.5964   57.0768   19.6754 H         1 UNK         0.0000 
@<TRIPOS>BOND
     1    1    2 1    
     2    1   39 1    
     3    1   40 1    
     4    1   41 1    
     5    2    3 1    
     6    3    8 ar   
     7    3    4 ar   
     8    4    5 ar   
     9    4   42 1    
    10    5    6 ar   
    11    5   43 1    
    12    6    7 ar   
    13    6   10 1    
    14    7    8 ar   
    15    7   44 1    
    16    8    9 1    
    17   10   11 2    
    18   10   12 1    
    19   12   13 1    
    20   13   18 ar   
    21   13   14 ar   
    22   14   15 ar   
    23   14   45 1    
    24   15   16 ar   
    25   15   46 1    
    26   16   22 1    
    27   16   17 ar   
    28   17   18 ar   
    29   17   19 1    
    30   18   47 1    
    31   19   20 1    
    32   20   21 2    
    33   20   38 1    
    34   21   22 1    
    35   21   36 1    
    36   22   23 1    
    37   22   24 1    
    38   24   29 ar   
    39   24   25 ar   
    40   25   26 ar   
    41   25   48 1    
    42   26   27 ar   
    43   26   34 1    
    44   27   28 ar   
    45   27   32 1    
    46   28   29 ar   
    47   28   30 1    
    48   29   49 1    
    49   30   31 1    
    50   31   50 1    
    51   31   51 1    
    52   31   52 1    
    53   32   33 1    
    54   33   53 1    
    55   33   54 1    
    56   33   55 1    
    57   34   35 1    
    58   35   56 1    
    59   35   57 1    
    60   35   58 1    
    61   36   37 3    
    62   38   59 1    
    63   38   60 1    
@<TRIPOS>SUBSTRUCTURE
     1 UNK         1 GROUP             0       ****    0 ROOT    
