@<TRIPOS>MOLECULE
ZINC35453989_3876
24   25    1
SMALL
USER_CHARGES


@<TRIPOS>ATOM
      1 C1          3.7229   54.0969   23.4218 C.ar      1 UNK         0.0000 
      2 C2          5.1033   53.9738   23.2681 C.ar      1 UNK         0.0000 
      3 C3          5.9418   54.0974   24.3755 C.ar      1 UNK         0.0000 
      4 C4          5.4035   54.3470   25.6404 C.ar      1 UNK         0.0000 
      5 C5          4.0186   54.4921   25.8002 C.ar      1 UNK         0.0000 
      6 C6          3.1850   54.3667   24.6803 C.ar      1 UNK         0.0000 
      7 O7          3.5066   54.8282   27.0388 O.3       1 UNK         0.0000 
      8 C8          2.5400   54.0909   27.7017 C.ar      1 UNK         0.0000 
      9 C9          2.0412   54.5941   28.9063 C.ar      1 UNK         0.0000 
     10 C10         1.0489   53.8785   29.5820 C.ar      1 UNK         0.0000 
     11 C11         0.5737   52.6827   29.0392 C.ar      1 UNK         0.0000 
     12 C12         1.1229   52.2365   27.8349 C.ar      1 UNK         0.0000 
     13 N13         2.0930   52.9162   27.1678 N.ar      1 UNK         0.0000 
     14 N14        -0.4278   51.9548   29.6823 N.pl3     1 UNK         0.0000 
     15 I15         6.7041   54.4966   27.2762 I         1 UNK         0.0000 
     16 H16         3.0722   54.0030   22.5638 H         1 UNK         0.0000 
     17 H17         5.5211   53.7776   22.2912 H         1 UNK         0.0000 
     18 H18         7.0107   53.9932   24.2532 H         1 UNK         0.0000 
     19 H19         2.1174   54.4891   24.7889 H         1 UNK         0.0000 
     20 H20         2.4118   55.5285   29.3011 H         1 UNK         0.0000 
     21 H21         0.6469   54.2572   30.5100 H         1 UNK         0.0000 
     22 H22         0.7879   51.3149   27.3805 H         1 UNK         0.0000 
     23 H23        -0.7287   51.0713   29.2892 H         1 UNK         0.0000 
     24 H24        -0.6616   52.1622   30.6461 H         1 UNK         0.0000 
@<TRIPOS>BOND
     1    1    6 ar   
     2    1    2 ar   
     3    1   16 1    
     4    2    3 ar   
     5    2   17 1    
     6    3    4 ar   
     7    3   18 1    
     8    4    5 ar   
     9    4   15 1    
    10    5    6 ar   
    11    5    7 1    
    12    6   19 1    
    13    7    8 1    
    14    8   13 ar   
    15    8    9 ar   
    16    9   10 ar   
    17    9   20 1    
    18   10   11 ar   
    19   10   21 1    
    20   11   12 ar   
    21   11   14 1    
    22   12   13 ar   
    23   12   22 1    
    24   14   23 1    
    25   14   24 1    
@<TRIPOS>SUBSTRUCTURE
     1 UNK         1 GROUP             0       ****    0 ROOT    
