@<TRIPOS>MOLECULE
ZINC32527474_3425
64   67    1
SMALL
USER_CHARGES


@<TRIPOS>ATOM
      1 C1         -3.0080   51.1624   26.9241 C.3       1 UNK         0.0000 
      2 C2         -1.6672   51.7181   27.4373 C.3       1 UNK         0.0000 
      3 C3         -0.3066   51.0885   26.9738 C.3       1 UNK         0.0000 
      4 H4         -0.0975   50.3597   27.7601 H         1 UNK         0.0000 
      5 C5         -0.2429   50.0616   25.7946 C.2       1 UNK         0.0000 
      6 O6          0.7048   50.0744   25.0158 O.2       1 UNK         0.0000 
      7 N7         -1.2325   49.1556   25.6812 N.am      1 UNK         0.0000 
      8 C8         -1.5860   48.4410   24.5256 C.2       1 UNK         0.0000 
      9 C9         -2.5037   47.3775   24.4472 C.2       1 UNK         0.0000 
     10 C10        -2.6453   46.8638   23.1194 C.2       1 UNK         0.0000 
     11 C11        -1.8805   47.5984   22.2194 C.2       1 UNK         0.0000 
     12 S12        -0.9743   48.8650   22.9412 S.3       1 UNK         0.0000 
     13 C13        -3.4663   45.6969   22.6449 C.ar      1 UNK         0.0000 
     14 C14        -4.7506   45.4514   23.1456 C.ar      1 UNK         0.0000 
     15 C15        -5.4610   44.3261   22.7405 C.ar      1 UNK         0.0000 
     16 C16        -4.9001   43.4419   21.8189 C.ar      1 UNK         0.0000 
     17 C17        -3.6411   43.7019   21.2782 C.ar      1 UNK         0.0000 
     18 C18        -2.9275   44.8251   21.6878 C.ar      1 UNK         0.0000 
     19 C19        -5.6575   42.1982   21.3927 C.3       1 UNK         0.0000 
     20 C20        -3.1875   46.8538   25.5993 C.2       1 UNK         0.0000 
     21 O21        -3.0529   45.6962   25.9691 O.2       1 UNK         0.0000 
     22 N22        -3.9800   47.7209   26.2276 N.am      1 UNK         0.0000 
     23 N23         0.8213   52.1020   26.9709 N.pl3     1 UNK         0.0000 
     24 C24         1.4210   52.2305   28.2102 C.ar      1 UNK         0.0000 
     25 O25         1.0632   51.6970   29.2626 O.2       1 UNK         0.0000 
     26 C26         2.6329   53.0138   28.2269 C.ar      1 UNK         0.0000 
     27 C27         3.2395   53.5147   27.1364 C.ar      1 UNK         0.0000 
     28 C28         2.5609   53.3957   25.8212 C.ar      1 UNK         0.0000 
     29 C29         1.2544   52.8370   25.7775 C.ar      1 UNK         0.0000 
     30 C30         0.5425   52.9716   24.5438 C.ar      1 UNK         0.0000 
     31 C31         1.2195   53.3903   23.3925 C.ar      1 UNK         0.0000 
     32 C32         2.5440   53.7983   23.4365 C.ar      1 UNK         0.0000 
     33 C33         3.1951   53.8442   24.6580 C.ar      1 UNK         0.0000 
     34 C34         3.2714   54.2114   22.1724 C.3       1 UNK         0.0000 
     35 C35        -0.9706   52.8246   24.3787 C.3       1 UNK         0.0000 
     36 C36         4.5560   54.2720   27.2438 C.3       1 UNK         0.0000 
     37 H37        -3.8377   51.7604   27.3014 H         1 UNK         0.0000 
     38 H38        -3.0740   51.1739   25.8367 H         1 UNK         0.0000 
     39 H39        -3.1669   50.1445   27.2776 H         1 UNK         0.0000 
     40 H40        -1.6943   51.6519   28.5283 H         1 UNK         0.0000 
     41 H41        -1.6512   52.7910   27.2507 H         1 UNK         0.0000 
     42 H42        -1.6951   48.9005   26.5552 H         1 UNK         0.0000 
     43 H43        -1.8034   47.4477   21.1521 H         1 UNK         0.0000 
     44 H44        -5.2022   46.1274   23.8581 H         1 UNK         0.0000 
     45 H45        -6.4433   44.1416   23.1516 H         1 UNK         0.0000 
     46 H46        -3.2133   43.0302   20.5479 H         1 UNK         0.0000 
     47 H47        -1.9425   44.9997   21.2807 H         1 UNK         0.0000 
     48 H48        -6.7017   42.2289   21.7059 H         1 UNK         0.0000 
     49 H49        -5.6427   42.1053   20.3081 H         1 UNK         0.0000 
     50 H50        -5.1825   41.3125   21.8147 H         1 UNK         0.0000 
     51 H51        -4.4179   47.4346   27.0904 H         1 UNK         0.0000 
     52 H52        -4.0822   48.6657   25.8939 H         1 UNK         0.0000 
     53 H53         3.1033   53.1338   29.1903 H         1 UNK         0.0000 
     54 H54         0.7053   53.4228   22.4445 H         1 UNK         0.0000 
     55 H55         4.2065   54.2202   24.6853 H         1 UNK         0.0000 
     56 H56         2.8011   53.7867   21.2865 H         1 UNK         0.0000 
     57 H57         4.2983   53.8469   22.1866 H         1 UNK         0.0000 
     58 H58         3.2934   55.2963   22.0827 H         1 UNK         0.0000 
     59 H59        -1.3037   51.8021   24.2466 H         1 UNK         0.0000 
     60 H60        -1.4980   53.2953   25.2018 H         1 UNK         0.0000 
     61 H61        -1.3248   53.3565   23.4975 H         1 UNK         0.0000 
     62 H62         4.8933   54.3547   28.2775 H         1 UNK         0.0000 
     63 H63         5.3386   53.7501   26.6919 H         1 UNK         0.0000 
     64 H64         4.4539   55.2826   26.8501 H         1 UNK         0.0000 
@<TRIPOS>BOND
     1    1    2 1    
     2    1   37 1    
     3    1   38 1    
     4    1   39 1    
     5    2    3 1    
     6    2   40 1    
     7    2   41 1    
     8    3    4 1    
     9    3    5 1    
    10    3   23 1    
    11    5    6 2    
    12    5    7 am   BACKBONE|DICT|INTERRES
    13    7    8 am   BACKBONE|DICT|INTERRES
    14    7   42 1    
    15    8   12 1    
    16    8    9 2    
    17    9   10 1    
    18    9   20 1    
    19   10   11 2    
    20   10   13 1    
    21   11   12 1    
    22   11   43 1    
    23   13   18 ar   
    24   13   14 ar   
    25   14   15 ar   
    26   14   44 1    
    27   15   16 ar   
    28   15   45 1    
    29   16   17 ar   
    30   16   19 1    
    31   17   18 ar   
    32   17   46 1    
    33   18   47 1    
    34   19   48 1    
    35   19   49 1    
    36   19   50 1    
    37   20   21 2    
    38   20   22 am   BACKBONE|DICT|INTERRES
    39   22   51 1    
    40   22   52 1    
    41   23   29 ar   
    42   23   24 ar   
    43   24   25 2    
    44   24   26 ar   
    45   26   27 ar   
    46   26   53 1    
    47   27   28 ar   
    48   27   36 1    
    49   28   33 ar   
    50   28   29 ar   
    51   29   30 ar   
    52   30   31 ar   
    53   30   35 1    
    54   31   32 ar   
    55   31   54 1    
    56   32   33 ar   
    57   32   34 1    
    58   33   55 1    
    59   34   56 1    
    60   34   57 1    
    61   34   58 1    
    62   35   59 1    
    63   35   60 1    
    64   35   61 1    
    65   36   62 1    
    66   36   63 1    
    67   36   64 1    
@<TRIPOS>SUBSTRUCTURE
     1 UNK         1 GROUP             0       ****    0 ROOT    
