@<TRIPOS>MOLECULE
ZINC15945761_4512
56   59    1
SMALL
USER_CHARGES


@<TRIPOS>ATOM
      1 C1          4.1153   54.5519   28.4922 C.3       1 UNK         0.0000 
      2 C2          2.9391   54.5918   29.4874 C.3       1 UNK         0.0000 
      3 C3          1.9401   53.3858   29.5131 C.3       1 UNK         0.0000 
      4 C4          2.6976   52.0950   29.8992 C.3       1 UNK         0.0000 
      5 C5          0.9646   53.6602   30.6944 C.3       1 UNK         0.0000 
      6 C6          1.1398   53.2216   28.1518 C.3       1 UNK         0.0000 
      7 H7          0.9393   54.2371   27.8038 H         1 UNK         0.0000 
      8 C8          1.9372   52.5050   27.0259 C.3       1 UNK         0.0000 
      9 C9          1.2924   52.6860   25.6362 C.3       1 UNK         0.0000 
     10 C10        -0.1785   52.2867   25.7202 C.2       1 UNK         0.0000 
     11 C11        -0.8422   52.1782   26.9544 C.2       1 UNK         0.0000 
     12 S12        -2.4872   51.6507   26.7843 S.3       1 UNK         0.0000 
     13 C13        -2.2945   51.5608   25.0709 C.2       1 UNK         0.0000 
     14 C14        -1.0179   51.9341   24.6413 C.2       1 UNK         0.0000 
     15 C15        -0.8030   51.9038   23.1965 C.2       1 UNK         0.0000 
     16 N16        -1.5876   51.3768   22.3469 N.2       1 UNK         0.0000 
     17 C17        -2.8120   50.7432   22.8668 C.3       1 UNK         0.0000 
     18 H18        -3.6207   51.0256   22.1927 H         1 UNK         0.0000 
     19 N19        -3.2977   51.1470   24.2106 N.pl3     1 UNK         0.0000 
     20 C20        -2.6545   49.2244   22.6774 C.ar      1 UNK         0.0000 
     21 C21        -2.4663   48.3633   23.7677 C.ar      1 UNK         0.0000 
     22 C22        -2.2935   46.9805   23.5886 C.ar      1 UNK         0.0000 
     23 C23        -2.3159   46.4605   22.2857 C.ar      1 UNK         0.0000 
     24 C24        -2.5085   47.3101   21.1902 C.ar      1 UNK         0.0000 
     25 C25        -2.6791   48.6800   21.3894 C.ar      1 UNK         0.0000 
     26 I26        -2.5203   46.5678   19.2302 I         1 UNK         0.0000 
     27 O27        -2.0930   45.1189   22.0820 O.3       1 UNK         0.0000 
     28 O28        -2.0948   46.0969   24.6358 O.3       1 UNK         0.0000 
     29 C29        -2.0626   46.5900   25.9728 C.3       1 UNK         0.0000 
     30 O30         0.3017   52.4826   22.6356 O.3       1 UNK         0.0000 
     31 C31        -0.2007   52.4345   28.3137 C.3       1 UNK         0.0000 
     32 H32         4.8648   55.2966   28.7567 H         1 UNK         0.0000 
     33 H33         3.7920   54.7783   27.4779 H         1 UNK         0.0000 
     34 H34         4.6315   53.5912   28.4915 H         1 UNK         0.0000 
     35 H35         3.3796   54.7005   30.4790 H         1 UNK         0.0000 
     36 H36         2.3899   55.5205   29.3225 H         1 UNK         0.0000 
     37 H37         1.9777   51.2966   30.0389 H         1 UNK         0.0000 
     38 H38         3.4111   51.7705   29.1446 H         1 UNK         0.0000 
     39 H39         3.2507   52.2073   30.8328 H         1 UNK         0.0000 
     40 H40         0.2313   52.8662   30.8354 H         1 UNK         0.0000 
     41 H41         1.4969   53.6972   31.6408 H         1 UNK         0.0000 
     42 H42         0.4200   54.5973   30.5715 H         1 UNK         0.0000 
     43 H43         2.9467   52.8862   26.9477 H         1 UNK         0.0000 
     44 H44         2.0683   51.4538   27.2837 H         1 UNK         0.0000 
     45 H45         1.3822   53.7230   25.3104 H         1 UNK         0.0000 
     46 H46         1.8356   52.0840   24.9085 H         1 UNK         0.0000 
     47 H47        -4.0326   50.5371   24.5396 H         1 UNK         0.0000 
     48 H48        -2.4325   48.7816   24.7600 H         1 UNK         0.0000 
     49 H49        -2.8082   49.3296   20.5375 H         1 UNK         0.0000 
     50 H50        -1.1787   44.9005   22.3117 H         1 UNK         0.0000 
     51 H51        -1.8210   45.7775   26.6601 H         1 UNK         0.0000 
     52 H52        -1.2942   47.3562   26.0883 H         1 UNK         0.0000 
     53 H53        -3.0246   47.0072   26.2747 H         1 UNK         0.0000 
     54 H54         1.0645   52.3078   23.1855 H         1 UNK         0.0000 
     55 H55        -0.0187   51.4742   28.7989 H         1 UNK         0.0000 
     56 H56        -0.8945   52.9824   28.9438 H         1 UNK         0.0000 
@<TRIPOS>BOND
     1    1    2 1    
     2    1   32 1    
     3    1   33 1    
     4    1   34 1    
     5    2    3 1    
     6    2   35 1    
     7    2   36 1    
     8    3    4 1    
     9    3    5 1    
    10    3    6 1    
    11    4   37 1    
    12    4   38 1    
    13    4   39 1    
    14    5   40 1    
    15    5   41 1    
    16    5   42 1    
    17    6    7 1    
    18    6   31 1    
    19    6    8 1    
    20    8    9 1    
    21    8   43 1    
    22    8   44 1    
    23    9   10 1    
    24    9   45 1    
    25    9   46 1    
    26   10   14 1    
    27   10   11 2    
    28   11   12 1    
    29   11   31 1    
    30   12   13 1    
    31   13   19 1    
    32   13   14 2    
    33   14   15 1    
    34   15   16 2    
    35   15   30 1    
    36   16   17 1    
    37   17   18 1    
    38   17   19 1    
    39   17   20 1    
    40   19   47 1    
    41   20   25 ar   
    42   20   21 ar   
    43   21   22 ar   
    44   21   48 1    
    45   22   23 ar   
    46   22   28 1    
    47   23   24 ar   
    48   23   27 1    
    49   24   25 ar   
    50   24   26 1    
    51   25   49 1    
    52   27   50 1    
    53   28   29 1    
    54   29   51 1    
    55   29   52 1    
    56   29   53 1    
    57   30   54 1    
    58   31   55 1    
    59   31   56 1    
@<TRIPOS>SUBSTRUCTURE
     1 UNK         1 GROUP             0       ****    0 ROOT    
