@<TRIPOS>MOLECULE
ZINC49853205_3895
42   43    1
SMALL
USER_CHARGES


@<TRIPOS>ATOM
      1 C1          3.1073   54.2966   24.3328 C.3       1 UNK         0.0000 
      2 C2          3.6656   54.1443   25.7279 C.ar      1 UNK         0.0000 
      3 C3          4.9423   54.4646   26.2090 C.ar      1 UNK         0.0000 
      4 C4          4.9292   54.1025   27.5419 C.ar      1 UNK         0.0000 
      5 N5          3.6565   53.6297   27.7924 N.pl3     1 UNK         0.0000 
      6 N6          2.9085   53.6420   26.6770 N.2       1 UNK         0.0000 
      7 C7          3.1114   53.1072   29.0758 C.3       1 UNK         0.0000 
      8 H8          3.8226   53.4221   29.8357 H         1 UNK         0.0000 
      9 C9          3.2119   51.5932   29.1495 C.3       1 UNK         0.0000 
     10 C10         2.1339   50.9232   28.2892 C.3       1 UNK         0.0000 
     11 C11         0.7103   51.2967   28.7066 C.3       1 UNK         0.0000 
     12 C12         0.5430   52.8138   28.7251 C.3       1 UNK         0.0000 
     13 C13         1.6703   53.5577   29.5128 C.3       1 UNK         0.0000 
     14 H14         1.5345   53.1435   30.5149 H         1 UNK         0.0000 
     15 C15         1.4199   55.0946   29.6411 C.3       1 UNK         0.0000 
     16 C16         0.8533   55.6879   28.3789 C.3       1 UNK         0.0000 
     17 C17         2.7044   55.8802   29.8404 C.3       1 UNK         0.0000 
     18 C18         0.4649   55.3875   30.8093 C.3       1 UNK         0.0000 
     19 N19         5.9172   54.1436   28.4817 N.pl3     1 UNK         0.0000 
     20 I20         6.5870   55.2968   25.1166 I         1 UNK         0.0000 
     21 H21         3.8146   54.7797   23.6590 H         1 UNK         0.0000 
     22 H22         2.8606   53.3294   23.8944 H         1 UNK         0.0000 
     23 H23         2.1977   54.8965   24.3212 H         1 UNK         0.0000 
     24 H24         3.1556   51.2967   30.1943 H         1 UNK         0.0000 
     25 H25         4.2230   51.2967   28.8817 H         1 UNK         0.0000 
     26 H26         2.3044   49.8554   28.2346 H         1 UNK         0.0000 
     27 H27         2.2412   51.2967   27.2817 H         1 UNK         0.0000 
     28 H28         0.4729   50.8967   29.6817 H         1 UNK         0.0000 
     29 H29        -0.0117   50.8489   28.0215 H         1 UNK         0.0000 
     30 H30         0.4901   53.1580   27.6928 H         1 UNK         0.0000 
     31 H31        -0.4316   53.0494   29.1546 H         1 UNK         0.0000 
     32 H32        -0.0634   55.1946   28.0817 H         1 UNK         0.0000 
     33 H33         0.7044   56.7627   28.4817 H         1 UNK         0.0000 
     34 H34         1.5892   55.5244   27.6210 H         1 UNK         0.0000 
     35 H35         3.3410   55.2967   30.4817 H         1 UNK         0.0000 
     36 H36         3.2764   56.0276   28.9261 H         1 UNK         0.0000 
     37 H37         2.5176   56.8760   30.2474 H         1 UNK         0.0000 
     38 H38         0.8517   55.0485   31.7663 H         1 UNK         0.0000 
     39 H39         0.3044   56.4629   30.8817 H         1 UNK         0.0000 
     40 H40        -0.4956   54.8968   30.6690 H         1 UNK         0.0000 
     41 H41         6.5181   54.9537   28.5917 H         1 UNK         0.0000 
     42 H42         6.1795   53.3240   29.0073 H         1 UNK         0.0000 
@<TRIPOS>BOND
     1    1    2 1    
     2    1   21 1    
     3    1   22 1    
     4    1   23 1    
     5    2    6 ar   
     6    2    3 ar   
     7    3    4 ar   
     8    3   20 1    
     9    4    5 ar   
    10    4   19 1    
    11    5    6 ar   
    12    5    7 1    
    13    7    8 1    
    14    7   13 1    
    15    7    9 1    
    16    9   10 1    
    17    9   24 1    
    18    9   25 1    
    19   10   11 1    
    20   10   26 1    
    21   10   27 1    
    22   11   12 1    
    23   11   28 1    
    24   11   29 1    
    25   12   13 1    
    26   12   30 1    
    27   12   31 1    
    28   13   14 1    
    29   13   15 1    
    30   15   16 1    
    31   15   17 1    
    32   15   18 1    
    33   16   32 1    
    34   16   33 1    
    35   16   34 1    
    36   17   35 1    
    37   17   36 1    
    38   17   37 1    
    39   18   38 1    
    40   18   39 1    
    41   18   40 1    
    42   19   41 1    
    43   19   42 1    
@<TRIPOS>SUBSTRUCTURE
     1 UNK         1 GROUP             0       ****    0 ROOT    
