ZINC14544902_3920
                    3D
 Schrodinger Suite 2024-2.
 60 65  0  0  1  0            999 V2000
   -0.4351   52.7066   29.6949 C   0  0  0  0  0  0
    0.8699   52.0451   29.2290 C   0  0  2  0  0  0
    1.0975   51.2968   29.9833 H   0  0  0  0  0  0
    2.1099   52.9561   29.2222 C   0  0  0  0  0  0
    2.0167   54.3454   29.3765 C   0  0  0  0  0  0
    3.1582   55.1344   29.2815 C   0  0  0  0  0  0
    4.3935   54.5391   29.0398 C   0  0  0  0  0  0
    4.5003   53.1606   28.8955 C   0  0  0  0  0  0
    3.3603   52.3730   29.0042 C   0  0  0  0  0  0
    0.6462   51.2973   27.9811 N   0  0  0  0  0  0
    0.7041   51.7822   26.7254 C   0  0  0  0  0  0
    1.0031   52.9572   26.5134 O   0  0  0  0  0  0
    0.4606   50.8055   25.5781 C   0  0  0  0  0  0
    0.0301   49.5003   25.8643 C   0  0  0  0  0  0
   -0.1888   48.5665   24.8614 C   0  0  0  0  0  0
    0.0746   48.8969   23.5411 C   0  0  0  0  0  0
    0.5635   50.1605   23.1991 C   0  0  0  0  0  0
    0.7075   51.1377   24.2171 C   0  0  0  0  0  0
    1.1311   52.4483   23.8599 N   0  0  0  0  0  0
    1.4874   52.8680   22.4957 C   0  0  2  0  0  0
    1.0948   53.8774   22.3773 H   0  0  0  0  0  0
    0.7089   51.9496   21.5166 C   0  0  2  0  0  0
   -0.3442   52.1187   21.7706 H   0  0  0  0  0  0
    1.0202   50.4910   21.7832 C   0  0  2  0  0  0
    2.0958   50.3030   21.7659 H   0  0  0  0  0  0
    0.3910   49.8287   20.5746 C   0  0  0  0  0  0
    0.2982   50.7124   19.5604 C   0  0  0  0  0  0
    0.7341   52.1050   19.9948 C   0  0  0  0  0  0
    2.9995   53.0076   22.3221 C   0  0  0  0  0  0
    3.8111   52.5463   21.2964 C   0  0  0  0  0  0
    5.1044   52.9498   21.4882 N   0  0  0  0  0  0
    5.8350   52.7372   20.8269 H   0  0  0  0  0  0
    5.2118   53.6455   22.6698 C   0  0  0  0  0  0
    3.8981   53.6966   23.2284 C   0  0  0  0  0  0
    3.7340   54.3485   24.4650 C   0  0  0  0  0  0
    4.8471   54.8928   25.1100 C   0  0  0  0  0  0
    6.1110   54.8291   24.5323 C   0  0  0  0  0  0
    6.3258   54.2138   23.2988 C   0  0  0  0  0  0
   -0.3355   53.1255   30.6984 H   0  0  0  0  0  0
   -0.7268   53.5071   29.0166 H   0  0  0  0  0  0
   -1.2525   51.9824   29.7278 H   0  0  0  0  0  0
    1.0654   54.8303   29.5411 H   0  0  0  0  0  0
    3.0830   56.2066   29.3799 H   0  0  0  0  0  0
    5.2808   55.1545   28.9580 H   0  0  0  0  0  0
    5.4618   52.7067   28.6972 H   0  0  0  0  0  0
    3.4426   51.3032   28.8820 H   0  0  0  0  0  0
    0.1981   50.3974   28.0895 H   0  0  0  0  0  0
   -0.1298   49.1655   26.8794 H   0  0  0  0  0  0
   -0.5285   47.5752   25.1232 H   0  0  0  0  0  0
   -0.0706   48.1455   22.7805 H   0  0  0  0  0  0
    1.2992   53.1190   24.5983 H   0  0  0  0  0  0
    0.1771   48.7721   20.5252 H   0  0  0  0  0  0
   -0.0398   50.5030   18.5562 H   0  0  0  0  0  0
    0.0305   52.8776   19.6747 H   0  0  0  0  0  0
    1.6967   52.3857   19.5833 H   0  0  0  0  0  0
    3.5798   51.9675   20.4127 H   0  0  0  0  0  0
    2.7640   54.4153   24.9334 H   0  0  0  0  0  0
    4.7221   55.3748   26.0694 H   0  0  0  0  0  0
    6.9509   55.2665   25.0521 H   0  0  0  0  0  0
    7.3177   54.1689   22.8761 H   0  0  0  0  0  0
  1  2  1  0  0  0
  1 39  1  0  0  0
  1 40  1  0  0  0
  1 41  1  0  0  0
  2  3  1  0  0  0
  2  4  1  0  0  0
  2 10  1  0  0  0
  4  9  2  0  0  0
  4  5  1  0  0  0
  5  6  2  0  0  0
  5 42  1  0  0  0
  6  7  1  0  0  0
  6 43  1  0  0  0
  7  8  2  0  0  0
  7 44  1  0  0  0
  8  9  1  0  0  0
  8 45  1  0  0  0
  9 46  1  0  0  0
 10 11  1  0  0  0
 10 47  1  0  0  0
 11 12  2  0  0  0
 11 13  1  0  0  0
 13 18  2  0  0  0
 13 14  1  0  0  0
 14 15  2  0  0  0
 14 48  1  0  0  0
 15 16  1  0  0  0
 15 49  1  0  0  0
 16 17  2  0  0  0
 16 50  1  0  0  0
 17 24  1  0  0  0
 17 18  1  0  0  0
 18 19  1  0  0  0
 19 20  1  0  0  0
 19 51  1  0  0  0
 20 21  1  0  0  0
 20 22  1  0  0  0
 20 29  1  0  0  0
 22 23  1  0  0  0
 22 28  1  0  0  0
 22 24  1  0  0  0
 24 25  1  0  0  0
 24 26  1  0  0  0
 26 27  2  0  0  0
 26 52  1  0  0  0
 27 28  1  0  0  0
 27 53  1  0  0  0
 28 54  1  0  0  0
 28 55  1  0  0  0
 29 34  1  0  0  0
 29 30  2  0  0  0
 30 31  1  0  0  0
 30 56  1  0  0  0
 31 32  1  0  0  0
 31 33  1  0  0  0
 33 38  2  0  0  0
 33 34  1  0  0  0
 34 35  2  0  0  0
 35 36  1  0  0  0
 35 57  1  0  0  0
 36 37  2  0  0  0
 36 58  1  0  0  0
 37 38  1  0  0  0
 37 59  1  0  0  0
 38 60  1  0  0  0
M  END
> <i_i_glide_confnum>
53

> <i_i_glide_lignum>
3921

> <i_i_glide_posenum>
399

> <i_i_glide_rotatable_bonds>
5

> <i_m_Source_File_Index>
1223

> <b_m_subgroup_collapsed>
0

> <r_i_docking_score>
-6.0338

> <r_i_glide_ecoul>
-0.718224

> <r_i_glide_eff_state_penalty>
0

> <r_i_glide_einternal>
5.86333

> <r_i_glide_emodel>
-60.5951

> <r_i_glide_energy>
-46.8596

> <r_i_glide_erotb>
0.423665

> <r_i_glide_esite>
-0.013657

> <r_i_glide_evdw>
-46.1414

> <r_i_glide_gscore>
-6.0338

> <r_i_glide_hbond>
0

> <r_i_glide_ligand_efficiency>
-0.182842

> <r_i_glide_ligand_efficiency_ln>
-1.34189

> <r_i_glide_ligand_efficiency_sa>
-0.586473

> <r_i_glide_lipo>
-3.43781

> <r_i_glide_metal>
0

> <r_i_glide_rewards>
-0.591186

> <s_i_glide_gridfile>
wee1_glide-grid

> <s_m_Source_File>
wee1_decoys_glide_SP.sdf

> <s_m_Source_Path>
/Users/zhangxujun/Desktop

> <s_m_entry_id>
1498

> <s_m_entry_name>
wee1_decoys_glide_SP.1223

> <s_m_subgroup_title>
wee1_decoys_glide_SP

> <s_m_subgroupid>
wee1_decoys_glide_SP


$$$$
