@<TRIPOS>MOLECULE
ZINC01055753_1950
42   45    1
SMALL
USER_CHARGES


@<TRIPOS>ATOM
      1 C1         -1.9365   51.2970   27.7712 C.3       1 UNK         0.0000 
      2 C2         -0.5735   51.7488   28.2247 C.2       1 UNK         0.0000 
      3 C3         -0.0922   52.8422   28.9053 C.2       1 UNK         0.0000 
      4 C4          1.2955   52.7372   28.9123 C.2       1 UNK         0.0000 
      5 N5          1.6367   51.5842   28.3656 N.2       1 UNK         0.0000 
      6 O6          0.4765   50.9591   27.9050 O.3       1 UNK         0.0000 
      7 N7          2.1263   53.6998   29.3423 N.2       1 UNK         0.0000 
      8 S8          3.6816   53.6855   29.1498 S.o2      1 UNK         0.0000 
      9 O9          4.3062   52.4011   29.4864 O.2       1 UNK         0.0000 
     10 O10         4.3127   54.8955   29.6815 O.2       1 UNK         0.0000 
     11 C11         3.9224   53.8761   27.3655 C.ar      1 UNK         0.0000 
     12 C12         2.8764   53.9774   26.4404 C.ar      1 UNK         0.0000 
     13 C13         3.1471   54.0979   25.0824 C.ar      1 UNK         0.0000 
     14 C14         4.4636   54.1452   24.6310 C.ar      1 UNK         0.0000 
     15 C15         5.5163   54.0973   25.5585 C.ar      1 UNK         0.0000 
     16 C16         5.2419   53.9490   26.9151 C.ar      1 UNK         0.0000 
     17 N17         4.6169   54.2481   23.2374 N.am      1 UNK         0.0000 
     18 C18         5.7421   54.3028   22.4969 C.2       1 UNK         0.0000 
     19 O19         6.8851   54.1865   22.9347 O.2       1 UNK         0.0000 
     20 C20         5.5048   54.5389   21.0891 C.2       1 UNK         0.0000 
     21 C21         4.3841   54.0975   20.3901 C.2       1 UNK         0.0000 
     22 S22         4.3941   54.4377   18.6861 S.3       1 UNK         0.0000 
     23 C23         5.9909   55.1403   18.8352 C.ar      1 UNK         0.0000 
     24 C24         6.4632   55.1302   20.1868 C.ar      1 UNK         0.0000 
     25 C25         7.7432   55.6763   20.4309 C.ar      1 UNK         0.0000 
     26 C26         8.5133   56.1577   19.3756 C.ar      1 UNK         0.0000 
     27 C27         8.0267   56.1532   18.0755 C.ar      1 UNK         0.0000 
     28 C28         6.7621   55.6540   17.7835 C.ar      1 UNK         0.0000 
     29 H29        -2.6717   52.0964   27.7715 H         1 UNK         0.0000 
     30 H30        -1.9025   50.8972   26.7589 H         1 UNK         0.0000 
     31 H31        -2.3222   50.5020   28.4100 H         1 UNK         0.0000 
     32 H32        -0.6535   53.6729   29.2946 H         1 UNK         0.0000 
     33 H33         1.8427   53.9659   26.7443 H         1 UNK         0.0000 
     34 H34         2.3209   54.1540   24.3904 H         1 UNK         0.0000 
     35 H35         6.5515   54.1385   25.2590 H         1 UNK         0.0000 
     36 H36         6.0552   53.8873   27.6251 H         1 UNK         0.0000 
     37 H37         3.7550   54.3373   22.7250 H         1 UNK         0.0000 
     38 H38         3.5209   53.5777   20.7831 H         1 UNK         0.0000 
     39 H39         8.1519   55.6955   21.4299 H         1 UNK         0.0000 
     40 H40         9.5035   56.5496   19.5717 H         1 UNK         0.0000 
     41 H41         8.6443   56.5425   17.2778 H         1 UNK         0.0000 
     42 H42         6.3926   55.6514   16.7681 H         1 UNK         0.0000 
@<TRIPOS>BOND
     1    1    2 1    
     2    1   29 1    
     3    1   30 1    
     4    1   31 1    
     5    2    6 1    
     6    2    3 2    
     7    3    4 1    
     8    3   32 1    
     9    4    5 2    
    10    4    7 1    
    11    5    6 1    
    12    7    8 1    
    13    8    9 2    
    14    8   10 2    
    15    8   11 1    
    16   11   16 ar   
    17   11   12 ar   
    18   12   13 ar   
    19   12   33 1    
    20   13   14 ar   
    21   13   34 1    
    22   14   15 ar   
    23   14   17 1    
    24   15   16 ar   
    25   15   35 1    
    26   16   36 1    
    27   17   18 am   BACKBONE|DICT|INTERRES
    28   17   37 1    
    29   18   19 2    
    30   18   20 1    
    31   20   24 1    
    32   20   21 2    
    33   21   22 1    
    34   21   38 1    
    35   22   23 1    
    36   23   28 ar   
    37   23   24 ar   
    38   24   25 ar   
    39   25   26 ar   
    40   25   39 1    
    41   26   27 ar   
    42   26   40 1    
    43   27   28 ar   
    44   27   41 1    
    45   28   42 1    
@<TRIPOS>SUBSTRUCTURE
     1 UNK         1 GROUP             0       ****    0 ROOT    
