@<TRIPOS>MOLECULE
ZINC39352274_2729
52   55    1
SMALL
USER_CHARGES


@<TRIPOS>ATOM
      1 C1         -0.7223   48.3400   19.6594 C.3       1 UNK         0.0000 
      2 C2         -0.4956   48.6512   21.1231 C.2       1 UNK         0.0000 
      3 N3          0.4776   49.4549   21.3640 N.am      1 UNK         0.0000 
      4 C4          0.8872   49.8765   22.6388 C.2       1 UNK         0.0000 
      5 O5          1.9060   50.5167   22.8857 O.2       1 UNK         0.0000 
      6 C6         -0.0410   49.4743   23.8385 C.3       1 UNK         0.0000 
      7 H7          0.6219   49.0057   24.5683 H         1 UNK         0.0000 
      8 C8         -0.8007   50.6720   24.5288 C.3       1 UNK         0.0000 
      9 H9         -1.3405   51.2203   23.7529 H         1 UNK         0.0000 
     10 C10        -1.9118   50.1355   25.4524 C.2       1 UNK         0.0000 
     11 C11        -2.3695   48.8708   25.3160 C.2       1 UNK         0.0000 
     12 O12        -1.9492   47.9935   24.3745 O.3       1 UNK         0.0000 
     13 C13        -1.0773   48.4252   23.4375 C.2       1 UNK         0.0000 
     14 C14        -1.2954   48.0800   22.1630 C.2       1 UNK         0.0000 
     15 N15        -3.3148   48.2501   26.0817 N.pl3     1 UNK         0.0000 
     16 C16        -2.4979   50.9959   26.4300 C.1       1 UNK         0.0000 
     17 N17        -3.0053   51.6959   27.1977 N.1       1 UNK         0.0000 
     18 C18         0.1353   51.7125   25.1672 C.ar      1 UNK         0.0000 
     19 C19         0.5857   52.7935   24.4030 C.ar      1 UNK         0.0000 
     20 C20         1.5036   53.6949   24.9295 C.ar      1 UNK         0.0000 
     21 C21         1.9768   53.5408   26.2324 C.ar      1 UNK         0.0000 
     22 C22         1.4685   52.5222   27.0494 C.ar      1 UNK         0.0000 
     23 C23         0.5688   51.5943   26.4962 C.ar      1 UNK         0.0000 
     24 O24         1.8969   52.4817   28.3623 O.3       1 UNK         0.0000 
     25 C25         0.9986   51.9637   29.3363 C.3       1 UNK         0.0000 
     26 O26         2.9211   54.4233   26.7012 O.3       1 UNK         0.0000 
     27 C27         4.2585   53.9288   26.7052 C.3       1 UNK         0.0000 
     28 C28         4.9725   54.2791   25.4031 C.ar      1 UNK         0.0000 
     29 C29         4.5789   53.6990   24.1914 C.ar      1 UNK         0.0000 
     30 C30         5.2386   54.0076   23.0080 C.ar      1 UNK         0.0000 
     31 C31         6.3049   54.8968   23.0384 C.ar      1 UNK         0.0000 
     32 C32         6.7078   55.4709   24.2406 C.ar      1 UNK         0.0000 
     33 C33         6.0461   55.1680   25.4240 C.ar      1 UNK         0.0000 
     34 Cl34        7.1069   55.3222   21.5739 Cl        1 UNK         0.0000 
     35 H35        -0.8405   49.2550   19.0776 H         1 UNK         0.0000 
     36 H36         0.1222   47.7886   19.2451 H         1 UNK         0.0000 
     37 H37        -1.6177   47.7377   19.5103 H         1 UNK         0.0000 
     38 H38        -2.1005   47.3986   21.9348 H         1 UNK         0.0000 
     39 H39        -3.5432   48.6887   26.9639 H         1 UNK         0.0000 
     40 H40        -3.3133   47.2430   26.1158 H         1 UNK         0.0000 
     41 H41         0.2605   52.9142   23.3801 H         1 UNK         0.0000 
     42 H42         1.8639   54.5102   24.3189 H         1 UNK         0.0000 
     43 H43         0.2114   50.7654   27.0898 H         1 UNK         0.0000 
     44 H44         0.0285   52.4642   29.2936 H         1 UNK         0.0000 
     45 H45         0.8457   50.8956   29.2179 H         1 UNK         0.0000 
     46 H46         1.4104   52.1268   30.3323 H         1 UNK         0.0000 
     47 H47         4.7719   54.3885   27.5509 H         1 UNK         0.0000 
     48 H48         4.3180   52.8547   26.8830 H         1 UNK         0.0000 
     49 H49         3.7751   52.9820   24.1577 H         1 UNK         0.0000 
     50 H50         4.9244   53.5582   22.0767 H         1 UNK         0.0000 
     51 H51         7.5468   56.1459   24.2510 H         1 UNK         0.0000 
     52 H52         6.3674   55.6205   26.3506 H         1 UNK         0.0000 
@<TRIPOS>BOND
     1    1    2 1    
     2    1   35 1    
     3    1   36 1    
     4    1   37 1    
     5    2   14 1    
     6    2    3 2    
     7    3    4 am   BACKBONE|DICT|INTERRES
     8    4    5 2    
     9    4    6 1    
    10    6    7 1    
    11    6   13 1    
    12    6    8 1    
    13    8    9 1    
    14    8   10 1    
    15    8   18 1    
    16   10   11 2    
    17   10   16 1    
    18   11   12 1    
    19   11   15 1    
    20   12   13 1    
    21   13   14 2    
    22   14   38 1    
    23   15   39 1    
    24   15   40 1    
    25   16   17 3    
    26   18   23 ar   
    27   18   19 ar   
    28   19   20 ar   
    29   19   41 1    
    30   20   21 ar   
    31   20   42 1    
    32   21   22 ar   
    33   21   26 1    
    34   22   23 ar   
    35   22   24 1    
    36   23   43 1    
    37   24   25 1    
    38   25   44 1    
    39   25   45 1    
    40   25   46 1    
    41   26   27 1    
    42   27   28 1    
    43   27   47 1    
    44   27   48 1    
    45   28   33 ar   
    46   28   29 ar   
    47   29   30 ar   
    48   29   49 1    
    49   30   31 ar   
    50   30   50 1    
    51   31   32 ar   
    52   31   34 1    
    53   32   33 ar   
    54   32   51 1    
    55   33   52 1    
@<TRIPOS>SUBSTRUCTURE
     1 UNK         1 GROUP             0       ****    0 ROOT    
