@<TRIPOS>MOLECULE
ZINC20940882_574
55   58    1
SMALL
USER_CHARGES


@<TRIPOS>ATOM
      1 C1          3.8155   53.1547   29.2450 C.3       1 UNK         0.0000 
      2 C2          4.3066   53.5861   27.8712 C.ar      1 UNK         0.0000 
      3 C3          5.6806   53.6967   27.6445 C.ar      1 UNK         0.0000 
      4 C4          6.1620   54.0501   26.3862 C.ar      1 UNK         0.0000 
      5 C5          5.2782   54.3088   25.3264 C.ar      1 UNK         0.0000 
      6 C6          3.9017   54.2460   25.5742 C.ar      1 UNK         0.0000 
      7 C7          3.4091   53.8668   26.8273 C.ar      1 UNK         0.0000 
      8 C8          1.9043   53.7375   27.0175 C.3       1 UNK         0.0000 
      9 N9          5.7855   54.6692   24.0460 N.pl3     1 UNK         0.0000 
     10 C10         5.3892   54.3214   22.7509 C.ar      1 UNK         0.0000 
     11 C11         6.2209   55.0803   21.8988 C.ar      1 UNK         0.0000 
     12 C12         7.1044   55.6966   22.7724 C.ar      1 UNK         0.0000 
     13 N13         6.8205   55.5103   24.0308 N.2       1 UNK         0.0000 
     14 C14         6.2875   55.2319   20.4601 C.2       1 UNK         0.0000 
     15 O15         7.2137   55.8533   19.9361 O.2       1 UNK         0.0000 
     16 N16         5.2671   54.6741   19.7875 N.am      1 UNK         0.0000 
     17 C17         5.1024   54.6375   18.3974 C.ar      1 UNK         0.0000 
     18 C18         4.8196   53.3976   17.8170 C.ar      1 UNK         0.0000 
     19 C19         4.5960   53.2975   16.4445 C.ar      1 UNK         0.0000 
     20 C20         4.6295   54.4416   15.6472 C.ar      1 UNK         0.0000 
     21 C21         4.8814   55.6869   16.2238 C.ar      1 UNK         0.0000 
     22 C22         5.1090   55.7935   17.5964 C.ar      1 UNK         0.0000 
     23 F23         5.3052   57.0201   18.1333 F         1 UNK         0.0000 
     24 Br24        4.3187   54.3060   13.7745 Br        1 UNK         0.0000 
     25 C25         4.2829   53.3168   22.4630 C.3       1 UNK         0.0000 
     26 C26         2.9444   53.9236   21.9884 C.3       1 UNK         0.0000 
     27 C27         1.8704   52.8698   21.6679 C.3       1 UNK         0.0000 
     28 N28         2.4478   51.8589   20.6664 N.4       1 UNK         0.0000 
     29 C29         3.6206   51.0816   21.2815 C.3       1 UNK         0.0000 
     30 C30         4.7518   52.0518   21.6817 C.3       1 UNK         0.0000 
     31 H31         3.2490   52.2264   29.1694 H         1 UNK         0.0000 
     32 H32         4.6350   52.9889   29.9428 H         1 UNK         0.0000 
     33 H33         3.1550   53.9137   29.6641 H         1 UNK         0.0000 
     34 H34         6.3846   53.4907   28.4383 H         1 UNK         0.0000 
     35 H35         7.2303   54.0990   26.2401 H         1 UNK         0.0000 
     36 H36         3.1989   54.4927   24.7966 H         1 UNK         0.0000 
     37 H37         1.5174   54.5672   27.6099 H         1 UNK         0.0000 
     38 H38         1.3786   53.6968   26.0631 H         1 UNK         0.0000 
     39 H39         1.6597   52.8115   27.5378 H         1 UNK         0.0000 
     40 H40         7.9440   56.3123   22.4816 H         1 UNK         0.0000 
     41 H41         4.6472   54.0956   20.3290 H         1 UNK         0.0000 
     42 H42         4.7907   52.4967   18.4130 H         1 UNK         0.0000 
     43 H43         4.3988   52.3290   16.0056 H         1 UNK         0.0000 
     44 H44         4.8919   56.5762   15.6106 H         1 UNK         0.0000 
     45 H45         3.9386   52.8967   23.3984 H         1 UNK         0.0000 
     46 H46         2.5194   54.5899   22.7383 H         1 UNK         0.0000 
     47 H47         3.1044   54.4967   21.0817 H         1 UNK         0.0000 
     48 H48         1.5587   52.3035   22.5479 H         1 UNK         0.0000 
     49 H49         0.9850   53.2967   21.1974 H         1 UNK         0.0000 
     50 H50         1.7277   51.2070   20.3832 H         1 UNK         0.0000 
     51 H51         3.2108   50.5291   22.1296 H         1 UNK         0.0000 
     52 H52         3.9288   50.3721   20.5131 H         1 UNK         0.0000 
     53 H53         5.2343   52.3247   20.7464 H         1 UNK         0.0000 
     54 H54         5.4855   51.4943   22.2674 H         1 UNK         0.0000 
     55 H55         2.7474   52.3351   19.8255 H         1 UNK         0.0000 
@<TRIPOS>BOND
     1    1    2 1    
     2    1   31 1    
     3    1   32 1    
     4    1   33 1    
     5    2    7 ar   
     6    2    3 ar   
     7    3    4 ar   
     8    3   34 1    
     9    4    5 ar   
    10    4   35 1    
    11    5    6 ar   
    12    5    9 1    
    13    6    7 ar   
    14    6   36 1    
    15    7    8 1    
    16    8   37 1    
    17    8   38 1    
    18    8   39 1    
    19    9   13 ar   
    20    9   10 ar   
    21   10   11 ar   
    22   10   25 1    
    23   11   12 ar   
    24   11   14 1    
    25   12   13 ar   
    26   12   40 1    
    27   14   15 2    
    28   14   16 am   BACKBONE|DICT|INTERRES
    29   16   17 1    
    30   16   41 1    
    31   17   22 ar   
    32   17   18 ar   
    33   18   19 ar   
    34   18   42 1    
    35   19   20 ar   
    36   19   43 1    
    37   20   21 ar   
    38   20   24 1    
    39   21   22 ar   
    40   21   44 1    
    41   22   23 1    
    42   25   30 1    
    43   25   26 1    
    44   25   45 1    
    45   26   27 1    
    46   26   46 1    
    47   26   47 1    
    48   27   28 1    
    49   27   48 1    
    50   27   49 1    
    51   28   29 1    
    52   28   50 1    
    53   28   55 1    
    54   29   30 1    
    55   29   51 1    
    56   29   52 1    
    57   30   53 1    
    58   30   54 1    
@<TRIPOS>SUBSTRUCTURE
     1 UNK         1 GROUP             0       ****    0 ROOT    
