@<TRIPOS>MOLECULE
ZINC35858967_5341
73   77    1
SMALL
USER_CHARGES


@<TRIPOS>ATOM
      1 C1          6.7047   53.9432   23.3721 C.3       1 UNK         0.0000 
      2 C2          6.8714   55.0739   22.3463 C.3       1 UNK         0.0000 
      3 C3          5.9554   54.9536   21.0986 C.3       1 UNK         0.0000 
      4 H4          6.2713   54.0967   20.5137 H         1 UNK         0.0000 
      5 C5          6.0780   56.1530   20.1176 C.2       1 UNK         0.0000 
      6 O6          6.7044   57.1524   20.4810 O.2       1 UNK         0.0000 
      7 N7          5.5045   56.0936   18.8819 N.am      1 UNK         0.0000 
      8 C8          5.6299   57.2132   17.9242 C.3       1 UNK         0.0000 
      9 C9          6.3167   56.6710   16.6516 C.3       1 UNK         0.0000 
     10 N10         5.5359   55.4674   16.0876 N.4       1 UNK         0.0000 
     11 C11         5.3507   54.3648   17.1478 C.3       1 UNK         0.0000 
     12 H12         6.3216   53.9123   17.3683 H         1 UNK         0.0000 
     13 C13         4.6914   54.9567   18.4139 C.3       1 UNK         0.0000 
     14 C14         4.4690   53.2895   16.4934 C.3       1 UNK         0.0000 
     15 O15         4.5948   54.8783   21.5430 O.3       1 UNK         0.0000 
     16 C16         3.9379   53.6694   21.6901 C.ar      1 UNK         0.0000 
     17 C17         4.3182   52.4600   21.0951 C.ar      1 UNK         0.0000 
     18 C18         3.5504   51.3172   21.2812 C.ar      1 UNK         0.0000 
     19 C19         2.4044   51.3333   22.0812 C.ar      1 UNK         0.0000 
     20 C20         2.0192   52.5374   22.7133 C.ar      1 UNK         0.0000 
     21 C21         2.7918   53.6839   22.4820 C.ar      1 UNK         0.0000 
     22 C22         0.8050   52.5778   23.6664 C.3       1 UNK         0.0000 
     23 H23         0.3272   53.5424   23.4878 H         1 UNK         0.0000 
     24 N24        -0.1419   51.5220   23.2358 N.am      1 UNK         0.0000 
     25 C25         0.4311   50.1637   23.2712 C.3       1 UNK         0.0000 
     26 C26         1.5708   50.0617   22.2343 C.3       1 UNK         0.0000 
     27 C27        -1.4659   51.7907   23.0455 C.2       1 UNK         0.0000 
     28 O28        -1.9582   52.8969   23.2825 O.2       1 UNK         0.0000 
     29 C29        -2.3808   50.7112   22.5160 C.ar      1 UNK         0.0000 
     30 C30        -3.6263   50.5029   23.1254 C.ar      1 UNK         0.0000 
     31 C31        -4.4992   49.5387   22.6282 C.ar      1 UNK         0.0000 
     32 C32        -4.1365   48.7892   21.5111 C.ar      1 UNK         0.0000 
     33 C33        -2.9091   48.9984   20.8847 C.ar      1 UNK         0.0000 
     34 C34        -2.0366   49.9624   21.3816 C.ar      1 UNK         0.0000 
     35 C35         1.1309   52.6294   25.1822 C.ar      1 UNK         0.0000 
     36 C36         2.2665   53.2970   25.6684 C.ar      1 UNK         0.0000 
     37 C37         2.5364   53.3465   27.0340 C.ar      1 UNK         0.0000 
     38 C38         1.6764   52.7237   27.9318 C.ar      1 UNK         0.0000 
     39 C39         0.5449   52.0559   27.4744 C.ar      1 UNK         0.0000 
     40 C40         0.2707   52.0190   26.1104 C.ar      1 UNK         0.0000 
     41 H41         7.4609   54.0121   24.1547 H         1 UNK         0.0000 
     42 H42         5.7287   53.9816   23.8573 H         1 UNK         0.0000 
     43 H43         6.8017   52.9649   22.9014 H         1 UNK         0.0000 
     44 H44         7.9126   55.0973   22.0230 H         1 UNK         0.0000 
     45 H45         6.7027   56.0229   22.8573 H         1 UNK         0.0000 
     46 H46         4.6425   57.6148   17.6857 H         1 UNK         0.0000 
     47 H47         6.1965   58.0538   18.3319 H         1 UNK         0.0000 
     48 H48         6.3345   57.4168   15.8537 H         1 UNK         0.0000 
     49 H49         7.3425   56.3428   16.8369 H         1 UNK         0.0000 
     50 H50         6.0219   55.0893   15.2852 H         1 UNK         0.0000 
     51 H51         3.7289   55.3946   18.1429 H         1 UNK         0.0000 
     52 H52         4.4313   54.2043   19.1533 H         1 UNK         0.0000 
     53 H53         4.3031   52.4554   17.1779 H         1 UNK         0.0000 
     54 H54         4.9347   52.8654   15.6028 H         1 UNK         0.0000 
     55 H55         3.4873   53.6712   16.2114 H         1 UNK         0.0000 
     56 H56         5.1761   52.3703   20.4495 H         1 UNK         0.0000 
     57 H57         3.8546   50.4073   20.7867 H         1 UNK         0.0000 
     58 H58         2.4986   54.6208   22.9316 H         1 UNK         0.0000 
     59 H59        -0.2837   49.3412   23.2333 H         1 UNK         0.0000 
     60 H60         0.8724   50.0238   24.2592 H         1 UNK         0.0000 
     61 H61         1.1448   49.8083   21.2637 H         1 UNK         0.0000 
     62 H62         2.2114   49.2141   22.4833 H         1 UNK         0.0000 
     63 H63        -3.9222   51.0856   23.9876 H         1 UNK         0.0000 
     64 H64        -5.4557   49.3763   23.1046 H         1 UNK         0.0000 
     65 H65        -4.8150   48.0434   21.1242 H         1 UNK         0.0000 
     66 H66        -2.6413   48.4231   20.0101 H         1 UNK         0.0000 
     67 H67        -1.1023   50.1312   20.8665 H         1 UNK         0.0000 
     68 H68         2.9621   53.7879   25.0092 H         1 UNK         0.0000 
     69 H69         3.4170   53.8614   27.3928 H         1 UNK         0.0000 
     70 H70         1.8864   52.7568   28.9910 H         1 UNK         0.0000 
     71 H71        -0.1213   51.5697   28.1725 H         1 UNK         0.0000 
     72 H72        -0.6203   51.5004   25.7889 H         1 UNK         0.0000 
     73 H73         4.6290   55.7696   15.7603 H         1 UNK         0.0000 
@<TRIPOS>BOND
     1    1    2 1    
     2    1   41 1    
     3    1   42 1    
     4    1   43 1    
     5    2    3 1    
     6    2   44 1    
     7    2   45 1    
     8    3    4 1    
     9    3    5 1    
    10    3   15 1    
    11    5    6 2    
    12    5    7 am   BACKBONE|DICT|INTERRES
    13    7   13 1    
    14    7    8 1    
    15    8    9 1    
    16    8   46 1    
    17    8   47 1    
    18    9   10 1    
    19    9   48 1    
    20    9   49 1    
    21   10   11 1    
    22   10   50 1    
    23   10   73 1    
    24   11   12 1    
    25   11   13 1    
    26   11   14 1    
    27   13   51 1    
    28   13   52 1    
    29   14   53 1    
    30   14   54 1    
    31   14   55 1    
    32   15   16 1    
    33   16   21 ar   
    34   16   17 ar   
    35   17   18 ar   
    36   17   56 1    
    37   18   19 ar   
    38   18   57 1    
    39   19   26 1    
    40   19   20 ar   
    41   20   21 ar   
    42   20   22 1    
    43   21   58 1    
    44   22   23 1    
    45   22   24 1    
    46   22   35 1    
    47   24   25 1    
    48   24   27 am   BACKBONE|DICT|INTERRES
    49   25   26 1    
    50   25   59 1    
    51   25   60 1    
    52   26   61 1    
    53   26   62 1    
    54   27   28 2    
    55   27   29 1    
    56   29   34 ar   
    57   29   30 ar   
    58   30   31 ar   
    59   30   63 1    
    60   31   32 ar   
    61   31   64 1    
    62   32   33 ar   
    63   32   65 1    
    64   33   34 ar   
    65   33   66 1    
    66   34   67 1    
    67   35   40 ar   
    68   35   36 ar   
    69   36   37 ar   
    70   36   68 1    
    71   37   38 ar   
    72   37   69 1    
    73   38   39 ar   
    74   38   70 1    
    75   39   40 ar   
    76   39   71 1    
    77   40   72 1    
@<TRIPOS>SUBSTRUCTURE
     1 UNK         1 GROUP             0       ****    0 ROOT    
