@<TRIPOS>MOLECULE
ZINC39677691_343
71   75    1
SMALL
USER_CHARGES


@<TRIPOS>ATOM
      1 C1          6.9643   55.0081   27.1836 C.3       1 UNK         0.0000 
      2 C2          6.4572   53.6968   26.5717 C.3       1 UNK         0.0000 
      3 C3          5.2117   53.8436   25.6660 C.3       1 UNK         0.0000 
      4 H4          4.7980   52.8967   25.5108 H         1 UNK         0.0000 
      5 C5          5.4447   54.2782   24.1988 C.ar      1 UNK         0.0000 
      6 C6          6.6761   54.7765   23.7542 C.ar      1 UNK         0.0000 
      7 C7          6.8669   55.0932   22.4119 C.ar      1 UNK         0.0000 
      8 C8          5.8351   54.8966   21.4983 C.ar      1 UNK         0.0000 
      9 C9          4.6055   54.3987   21.9201 C.ar      1 UNK         0.0000 
     10 C10         4.4116   54.0966   23.2654 C.ar      1 UNK         0.0000 
     11 C11         4.0530   54.5462   26.3780 C.2       1 UNK         0.0000 
     12 O12         3.9043   55.6967   26.0766 O.2       1 UNK         0.0000 
     13 N13         3.2797   53.9575   27.3203 N.am      1 UNK         0.0000 
     14 C14         3.1721   52.5168   27.4380 C.3       1 UNK         0.0000 
     15 C15         1.8318   52.2548   28.1353 C.3       1 UNK         0.0000 
     16 H16         1.8767   51.3492   28.7352 H         1 UNK         0.0000 
     17 C17         1.6313   53.5426   28.9860 C.3       1 UNK         0.0000 
     18 C18         2.1957   54.6357   28.0465 C.3       1 UNK         0.0000 
     19 C19         0.2051   53.8163   29.5367 C.3       1 UNK         0.0000 
     20 C20        -0.2433   52.6345   30.4311 C.3       1 UNK         0.0000 
     21 N21         0.7045   52.5521   31.6473 N.4       1 UNK         0.0000 
     22 C22         2.1959   52.4634   31.2549 C.3       1 UNK         0.0000 
     23 C23         2.5164   53.6004   30.2564 C.3       1 UNK         0.0000 
     24 C24         0.7044   52.0820   27.0818 C.2       1 UNK         0.0000 
     25 O25         0.6111   52.8813   26.1505 O.2       1 UNK         0.0000 
     26 N26        -0.0886   51.0021   27.1899 N.am      1 UNK         0.0000 
     27 C27        -1.2162   50.7030   26.3068 C.3       1 UNK         0.0000 
     28 C28        -0.8001   49.9911   25.0331 C.2       1 UNK         0.0000 
     29 C29        -1.1767   48.7346   24.5739 C.2       1 UNK         0.0000 
     30 C30        -0.6760   48.4075   23.3115 C.2       1 UNK         0.0000 
     31 C31         0.1369   49.3903   22.7575 C.2       1 UNK         0.0000 
     32 S32         0.2477   50.7356   23.8548 S.3       1 UNK         0.0000 
     33 C33         0.8513   49.4126   21.4405 C.ar      1 UNK         0.0000 
     34 C34         0.5344   48.4976   20.4277 C.ar      1 UNK         0.0000 
     35 C35         1.2087   48.5788   19.2080 C.ar      1 UNK         0.0000 
     36 C36         2.1732   49.5682   19.0229 C.ar      1 UNK         0.0000 
     37 C37         2.4431   50.4431   20.0739 C.ar      1 UNK         0.0000 
     38 N38         1.7983   50.3778   21.2662 N.ar      1 UNK         0.0000 
     39 H39         7.9092   54.8435   27.6825 H         1 UNK         0.0000 
     40 H40         7.1037   55.7853   26.4344 H         1 UNK         0.0000 
     41 H41         6.2711   55.3931   27.9316 H         1 UNK         0.0000 
     42 H42         6.2338   53.0034   27.3847 H         1 UNK         0.0000 
     43 H43         7.2513   53.2073   26.0127 H         1 UNK         0.0000 
     44 H44         7.5042   54.9121   24.4301 H         1 UNK         0.0000 
     45 H45         7.8228   55.4742   22.0816 H         1 UNK         0.0000 
     46 H46         5.9872   55.1340   20.4553 H         1 UNK         0.0000 
     47 H47         3.8035   54.2523   21.2099 H         1 UNK         0.0000 
     48 H48         3.4545   53.7045   23.5798 H         1 UNK         0.0000 
     49 H49         3.1044   52.0967   26.4460 H         1 UNK         0.0000 
     50 H50         3.9770   52.0969   28.0419 H         1 UNK         0.0000 
     51 H51         2.4648   55.5772   28.5281 H         1 UNK         0.0000 
     52 H52         1.4255   54.9031   27.3242 H         1 UNK         0.0000 
     53 H53         0.1512   54.7653   30.0743 H         1 UNK         0.0000 
     54 H54        -0.4955   53.9230   28.7088 H         1 UNK         0.0000 
     55 H55        -1.2351   52.7478   30.8530 H         1 UNK         0.0000 
     56 H56        -0.2072   51.6644   29.9353 H         1 UNK         0.0000 
     57 H57         0.5518   53.3706   32.2203 H         1 UNK         0.0000 
     58 H58         2.7756   52.4967   32.1780 H         1 UNK         0.0000 
     59 H59         2.3348   51.4830   30.8171 H         1 UNK         0.0000 
     60 H60         3.5740   53.5150   29.9969 H         1 UNK         0.0000 
     61 H61         2.3990   54.6000   30.6715 H         1 UNK         0.0000 
     62 H62         0.0622   50.3304   27.9286 H         1 UNK         0.0000 
     63 H63        -1.9220   50.0960   26.8761 H         1 UNK         0.0000 
     64 H64        -1.7574   51.6219   26.0716 H         1 UNK         0.0000 
     65 H65        -1.8199   48.0773   25.1417 H         1 UNK         0.0000 
     66 H66        -0.8972   47.4713   22.8219 H         1 UNK         0.0000 
     67 H67        -0.2248   47.7444   20.5715 H         1 UNK         0.0000 
     68 H68         0.9835   47.8884   18.4089 H         1 UNK         0.0000 
     69 H69         2.7042   49.6561   18.0847 H         1 UNK         0.0000 
     70 H70         3.1909   51.2152   19.9627 H         1 UNK         0.0000 
     71 H71         0.4162   51.7747   32.2328 H         1 UNK         0.0000 
@<TRIPOS>BOND
     1    1    2 1    
     2    1   39 1    
     3    1   40 1    
     4    1   41 1    
     5    2    3 1    
     6    2   42 1    
     7    2   43 1    
     8    3    4 1    
     9    3    5 1    
    10    3   11 1    
    11    5   10 ar   
    12    5    6 ar   
    13    6    7 ar   
    14    6   44 1    
    15    7    8 ar   
    16    7   45 1    
    17    8    9 ar   
    18    8   46 1    
    19    9   10 ar   
    20    9   47 1    
    21   10   48 1    
    22   11   12 2    
    23   11   13 am   BACKBONE|DICT|INTERRES
    24   13   18 1    
    25   13   14 1    
    26   14   15 1    
    27   14   49 1    
    28   14   50 1    
    29   15   16 1    
    30   15   17 1    
    31   15   24 1    
    32   17   23 1    
    33   17   18 1    
    34   17   19 1    
    35   18   51 1    
    36   18   52 1    
    37   19   20 1    
    38   19   53 1    
    39   19   54 1    
    40   20   21 1    
    41   20   55 1    
    42   20   56 1    
    43   21   22 1    
    44   21   57 1    
    45   21   71 1    
    46   22   23 1    
    47   22   58 1    
    48   22   59 1    
    49   23   60 1    
    50   23   61 1    
    51   24   25 2    
    52   24   26 am   BACKBONE|DICT|INTERRES
    53   26   27 1    
    54   26   62 1    
    55   27   28 1    
    56   27   63 1    
    57   27   64 1    
    58   28   32 1    
    59   28   29 2    
    60   29   30 1    
    61   29   65 1    
    62   30   31 2    
    63   30   66 1    
    64   31   32 1    
    65   31   33 1    
    66   33   38 ar   
    67   33   34 ar   
    68   34   35 ar   
    69   34   67 1    
    70   35   36 ar   
    71   35   68 1    
    72   36   37 ar   
    73   36   69 1    
    74   37   38 ar   
    75   37   70 1    
@<TRIPOS>SUBSTRUCTURE
     1 UNK         1 GROUP             0       ****    0 ROOT    
