@<TRIPOS>MOLECULE
ZINC27550467_2110
51   54    1
SMALL
USER_CHARGES


@<TRIPOS>ATOM
      1 C1         -5.3096   47.9976   30.0134 C.3       1 UNK         0.0000 
      2 C2         -5.3418   48.0713   28.5070 C.2       1 UNK         0.0000 
      3 C3         -4.4813   48.7276   27.6366 C.2       1 UNK         0.0000 
      4 C4         -4.7450   48.5659   26.2655 C.2       1 UNK         0.0000 
      5 C5         -5.8978   47.7933   26.0908 C.2       1 UNK         0.0000 
      6 S6         -6.5705   47.2636   27.5946 S.3       1 UNK         0.0000 
      7 S7         -6.7045   47.3628   24.5856 S.3       1 UNK         0.0000 
      8 C8         -5.6919   45.9159   24.1862 C.3       1 UNK         0.0000 
      9 C9         -3.8887   49.1586   25.1394 C.3       1 UNK         0.0000 
     10 H10        -4.3097   48.8099   24.1941 H         1 UNK         0.0000 
     11 C11        -2.4486   48.6398   25.1859 C.2       1 UNK         0.0000 
     12 C12        -1.3977   49.4387   25.4773 C.2       1 UNK         0.0000 
     13 N13        -1.5470   50.8274   25.6156 N.pl3     1 UNK         0.0000 
     14 C14        -2.7927   51.4463   25.3758 C.2       1 UNK         0.0000 
     15 C15        -3.9073   50.7036   25.0901 C.2       1 UNK         0.0000 
     16 C16        -5.2066   51.3327   24.7259 C.2       1 UNK         0.0000 
     17 O17        -6.2226   50.6814   24.4995 O.2       1 UNK         0.0000 
     18 C18        -5.2708   52.8639   24.7071 C.3       1 UNK         0.0000 
     19 C19        -3.9214   53.4743   24.3139 C.3       1 UNK         0.0000 
     20 C20        -2.8220   52.9835   25.2708 C.3       1 UNK         0.0000 
     21 C21        -0.4202   51.6374   25.9197 C.ar      1 UNK         0.0000 
     22 C22         0.3936   52.0885   24.8696 C.ar      1 UNK         0.0000 
     23 C23         1.4953   52.9269   25.1018 C.ar      1 UNK         0.0000 
     24 C24         1.7989   53.2827   26.4243 C.ar      1 UNK         0.0000 
     25 C25         1.0158   52.8167   27.4802 C.ar      1 UNK         0.0000 
     26 C26        -0.0962   52.0088   27.2359 C.ar      1 UNK         0.0000 
     27 Cl27       -1.0499   51.4882   28.5823 Cl        1 UNK         0.0000 
     28 N28         2.3084   53.4335   23.9711 N.pl3     1 UNK         0.0000 
     29 O29         1.9843   53.1172   22.8307 O.co2     1 UNK         0.0000 
     30 O30         3.2685   54.1575   24.2194 O.co2     1 UNK         0.0000 
     31 N31        -0.1233   48.9358   25.6545 N.pl3     1 UNK         0.0000 
     32 C32        -2.2640   47.2374   25.0368 C.1       1 UNK         0.0000 
     33 N33        -2.1406   46.1016   24.8656 N.1       1 UNK         0.0000 
     34 H34        -4.4710   48.5610   30.4266 H         1 UNK         0.0000 
     35 H35        -5.2124   46.9720   30.3704 H         1 UNK         0.0000 
     36 H36        -6.2219   48.4034   30.4499 H         1 UNK         0.0000 
     37 H37        -3.6271   49.2845   27.9952 H         1 UNK         0.0000 
     38 H38        -6.1536   45.3633   23.3670 H         1 UNK         0.0000 
     39 H39        -4.7034   46.2310   23.8515 H         1 UNK         0.0000 
     40 H40        -5.5998   45.2507   25.0469 H         1 UNK         0.0000 
     41 H41        -5.5129   53.1734   25.7235 H         1 UNK         0.0000 
     42 H42        -6.0981   53.1925   24.0794 H         1 UNK         0.0000 
     43 H43        -3.9786   54.5652   24.3342 H         1 UNK         0.0000 
     44 H44        -3.6729   53.2027   23.2837 H         1 UNK         0.0000 
     45 H45        -2.8498   53.4554   26.2552 H         1 UNK         0.0000 
     46 H46        -1.9156   53.3274   24.7754 H         1 UNK         0.0000 
     47 H47         0.1384   51.7962   23.8591 H         1 UNK         0.0000 
     48 H48         2.6469   53.9216   26.6395 H         1 UNK         0.0000 
     49 H49         1.2644   53.0991   28.4944 H         1 UNK         0.0000 
     50 H50         0.0242   47.9347   25.6499 H         1 UNK         0.0000 
     51 H51         0.5451   49.4617   26.1939 H         1 UNK         0.0000 
@<TRIPOS>BOND
     1    1    2 1    
     2    1   34 1    
     3    1   35 1    
     4    1   36 1    
     5    2    6 1    
     6    2    3 2    
     7    3    4 1    
     8    3   37 1    
     9    4    5 2    
    10    4    9 1    
    11    5    6 1    
    12    5    7 1    
    13    7    8 1    
    14    8   38 1    
    15    8   39 1    
    16    8   40 1    
    17    9   10 1    
    18    9   15 1    
    19    9   11 1    
    20   11   12 2    
    21   11   32 1    
    22   12   13 1    
    23   12   31 1    
    24   13   14 1    
    25   13   21 1    
    26   14   20 1    
    27   14   15 2    
    28   15   16 1    
    29   16   17 2    
    30   16   18 1    
    31   18   19 1    
    32   18   41 1    
    33   18   42 1    
    34   19   20 1    
    35   19   43 1    
    36   19   44 1    
    37   20   45 1    
    38   20   46 1    
    39   21   26 ar   
    40   21   22 ar   
    41   22   23 ar   
    42   22   47 1    
    43   23   24 ar   
    44   23   28 1    
    45   24   25 ar   
    46   24   48 1    
    47   25   26 ar   
    48   25   49 1    
    49   26   27 1    
    50   28   29 2    
    51   28   30 1    
    52   31   50 1    
    53   31   51 1    
    54   32   33 3    
@<TRIPOS>SUBSTRUCTURE
     1 UNK         1 GROUP             0       ****    0 ROOT    
