@<TRIPOS>MOLECULE
ZINC39694201_901
77   81    1
SMALL
USER_CHARGES


@<TRIPOS>ATOM
      1 C1         11.3533   51.8079   16.2171 C.3       1 UNK         0.0000 
      2 C2          9.9104   52.2772   15.9288 C.3       1 UNK         0.0000 
      3 C3          8.9092   51.3016   16.5864 C.3       1 UNK         0.0000 
      4 C4          9.6864   53.7650   16.3373 C.3       1 UNK         0.0000 
      5 H5          9.8554   53.8160   17.4108 H         1 UNK         0.0000 
      6 C6          8.2771   54.2928   15.9269 C.2       1 UNK         0.0000 
      7 O7          8.0053   54.3702   14.7257 O.2       1 UNK         0.0000 
      8 N8          7.3963   54.7006   16.8731 N.am      1 UNK         0.0000 
      9 C9          7.6007   54.6483   18.3177 C.3       1 UNK         0.0000 
     10 C10         6.2013   54.9626   18.8861 C.3       1 UNK         0.0000 
     11 H11         5.6644   54.0117   18.9402 H         1 UNK         0.0000 
     12 C12         5.5649   55.9127   17.8285 C.3       1 UNK         0.0000 
     13 C13         6.0810   55.2429   16.5291 C.3       1 UNK         0.0000 
     14 C14         4.0234   55.9884   17.9213 C.3       1 UNK         0.0000 
     15 C15         3.4139   56.7725   16.7339 C.3       1 UNK         0.0000 
     16 N16         4.0057   58.2034   16.7149 N.4       1 UNK         0.0000 
     17 C17         5.5490   58.2551   16.7514 C.3       1 UNK         0.0000 
     18 C18         6.0402   57.3955   17.9319 C.3       1 UNK         0.0000 
     19 C19         6.4435   55.4838   20.3264 C.2       1 UNK         0.0000 
     20 O20         7.1046   56.4976   20.5372 O.2       1 UNK         0.0000 
     21 N21         5.9843   54.7132   21.3229 N.am      1 UNK         0.0000 
     22 C22         6.3309   54.8859   22.7397 C.3       1 UNK         0.0000 
     23 C23         5.2470   54.4968   23.7433 C.ar      1 UNK         0.0000 
     24 C24         5.5469   54.5484   25.1075 C.ar      1 UNK         0.0000 
     25 C25         4.5912   54.1868   26.0544 C.ar      1 UNK         0.0000 
     26 C26         3.3346   53.7434   25.6458 C.ar      1 UNK         0.0000 
     27 C27         3.0119   53.6784   24.2808 C.ar      1 UNK         0.0000 
     28 C28         3.9666   54.0926   23.3400 C.ar      1 UNK         0.0000 
     29 N29         1.7771   53.1157   23.8564 N.pl3     1 UNK         0.0000 
     30 C30         1.4695   52.6135   22.6028 C.ar      1 UNK         0.0000 
     31 C31         0.1847   52.0950   22.5897 C.ar      1 UNK         0.0000 
     32 C32        -0.3414   52.2877   23.8630 C.ar      1 UNK         0.0000 
     33 C33         0.6440   52.9030   24.6187 C.ar      1 UNK         0.0000 
     34 O34        10.6834   54.5409   15.6448 O.3       1 UNK         0.0000 
     35 C35        10.9102   55.8615   15.9879 C.ar      1 UNK         0.0000 
     36 C36        11.3659   56.7069   14.9753 C.ar      1 UNK         0.0000 
     37 C37        11.6157   58.0524   15.2382 C.ar      1 UNK         0.0000 
     38 C38        11.4201   58.5504   16.5254 C.ar      1 UNK         0.0000 
     39 C39        10.9843   57.7128   17.5500 C.ar      1 UNK         0.0000 
     40 C40        10.7327   56.3706   17.2814 C.ar      1 UNK         0.0000 
     41 H41        11.5849   51.8590   17.2810 H         1 UNK         0.0000 
     42 H42        11.5073   50.7765   15.8946 H         1 UNK         0.0000 
     43 H43        12.0870   52.4172   15.6887 H         1 UNK         0.0000 
     44 H44         9.7699   52.2028   14.8481 H         1 UNK         0.0000 
     45 H45         8.9857   51.3223   17.6723 H         1 UNK         0.0000 
     46 H46         7.8772   51.5284   16.3196 H         1 UNK         0.0000 
     47 H47         9.1028   50.2763   16.2687 H         1 UNK         0.0000 
     48 H48         7.9737   53.6926   18.6796 H         1 UNK         0.0000 
     49 H49         8.3009   55.4523   18.5518 H         1 UNK         0.0000 
     50 H50         6.0507   55.8768   15.6457 H         1 UNK         0.0000 
     51 H51         5.4365   54.3898   16.3105 H         1 UNK         0.0000 
     52 H52         3.6125   54.9771   17.8884 H         1 UNK         0.0000 
     53 H53         3.7057   56.3868   18.8810 H         1 UNK         0.0000 
     54 H54         3.6398   56.3276   15.7631 H         1 UNK         0.0000 
     55 H55         2.3327   56.8879   16.8240 H         1 UNK         0.0000 
     56 H56         3.6724   58.7194   15.9096 H         1 UNK         0.0000 
     57 H57         5.9106   57.9358   15.7742 H         1 UNK         0.0000 
     58 H58         5.8171   59.3007   16.8803 H         1 UNK         0.0000 
     59 H59         5.7488   57.8527   18.8774 H         1 UNK         0.0000 
     60 H60         7.1305   57.4315   17.9179 H         1 UNK         0.0000 
     61 H61         5.5262   53.8490   21.0811 H         1 UNK         0.0000 
     62 H62         7.1975   54.2515   22.9348 H         1 UNK         0.0000 
     63 H63         6.6871   55.8948   22.9642 H         1 UNK         0.0000 
     64 H64         6.5267   54.8617   25.4374 H         1 UNK         0.0000 
     65 H65         4.8359   54.2191   27.1058 H         1 UNK         0.0000 
     66 H66         2.6403   53.4159   26.4049 H         1 UNK         0.0000 
     67 H67         3.7271   54.0707   22.2885 H         1 UNK         0.0000 
     68 H68         2.1985   52.6376   21.8079 H         1 UNK         0.0000 
     69 H69        -0.3115   51.6282   21.7512 H         1 UNK         0.0000 
     70 H70        -1.3253   51.9981   24.2044 H         1 UNK         0.0000 
     71 H71         0.6226   53.2034   25.6540 H         1 UNK         0.0000 
     72 H72        11.5161   56.3146   13.9802 H         1 UNK         0.0000 
     73 H73        11.9605   58.7062   14.4497 H         1 UNK         0.0000 
     74 H74        11.6186   59.5914   16.7322 H         1 UNK         0.0000 
     75 H75        10.8522   58.0950   18.5513 H         1 UNK         0.0000 
     76 H76        10.4322   55.7391   18.0998 H         1 UNK         0.0000 
     77 H77         3.6556   58.7160   17.5150 H         1 UNK         0.0000 
@<TRIPOS>BOND
     1    1    2 1    
     2    1   41 1    
     3    1   42 1    
     4    1   43 1    
     5    2    3 1    
     6    2    4 1    
     7    2   44 1    
     8    3   45 1    
     9    3   46 1    
    10    3   47 1    
    11    4    5 1    
    12    4    6 1    
    13    4   34 1    
    14    6    7 2    
    15    6    8 am   BACKBONE|DICT|INTERRES
    16    8   13 1    
    17    8    9 1    
    18    9   10 1    
    19    9   48 1    
    20    9   49 1    
    21   10   11 1    
    22   10   12 1    
    23   10   19 1    
    24   12   18 1    
    25   12   13 1    
    26   12   14 1    
    27   13   50 1    
    28   13   51 1    
    29   14   15 1    
    30   14   52 1    
    31   14   53 1    
    32   15   16 1    
    33   15   54 1    
    34   15   55 1    
    35   16   17 1    
    36   16   56 1    
    37   16   77 1    
    38   17   18 1    
    39   17   57 1    
    40   17   58 1    
    41   18   59 1    
    42   18   60 1    
    43   19   20 2    
    44   19   21 am   BACKBONE|DICT|INTERRES
    45   21   22 1    
    46   21   61 1    
    47   22   23 1    
    48   22   62 1    
    49   22   63 1    
    50   23   28 ar   
    51   23   24 ar   
    52   24   25 ar   
    53   24   64 1    
    54   25   26 ar   
    55   25   65 1    
    56   26   27 ar   
    57   26   66 1    
    58   27   28 ar   
    59   27   29 1    
    60   28   67 1    
    61   29   33 ar   
    62   29   30 ar   
    63   30   31 ar   
    64   30   68 1    
    65   31   32 ar   
    66   31   69 1    
    67   32   33 ar   
    68   32   70 1    
    69   33   71 1    
    70   34   35 1    
    71   35   40 ar   
    72   35   36 ar   
    73   36   37 ar   
    74   36   72 1    
    75   37   38 ar   
    76   37   73 1    
    77   38   39 ar   
    78   38   74 1    
    79   39   40 ar   
    80   39   75 1    
    81   40   76 1    
@<TRIPOS>SUBSTRUCTURE
     1 UNK         1 GROUP             0       ****    0 ROOT    
