@<TRIPOS>MOLECULE
ZINC66462210_3804
38   41    1
SMALL
USER_CHARGES


@<TRIPOS>ATOM
      1 C1         -0.2341   51.9951   25.0875 C.3       1 UNK         0.0000 
      2 C2          0.4886   52.3047   26.3839 C.ar      1 UNK         0.0000 
      3 C3         -0.0760   51.9992   27.6202 C.ar      1 UNK         0.0000 
      4 C4          0.6324   52.3108   28.7751 C.ar      1 UNK         0.0000 
      5 C5          1.9013   52.9296   28.6693 C.ar      1 UNK         0.0000 
      6 C6          2.6592   53.2618   29.8107 C.ar      1 UNK         0.0000 
      7 C7          3.8946   53.8765   29.6679 C.ar      1 UNK         0.0000 
      8 C8          4.4130   54.1634   28.4119 C.ar      1 UNK         0.0000 
      9 C9          3.7041   53.8438   27.2454 C.ar      1 UNK         0.0000 
     10 C10         2.4176   53.2213   27.3662 C.ar      1 UNK         0.0000 
     11 N11         1.6990   52.9001   26.2447 N.ar      1 UNK         0.0000 
     12 N12         4.1945   54.0983   25.9486 N.am      1 UNK         0.0000 
     13 C13         5.4065   54.5057   25.5121 C.2       1 UNK         0.0000 
     14 O14         6.3521   54.8188   26.2423 O.2       1 UNK         0.0000 
     15 C15         5.5564   54.5768   24.0034 C.ar      1 UNK         0.0000 
     16 C16         6.7002   55.1807   23.4571 C.ar      1 UNK         0.0000 
     17 C17         6.8911   55.3049   22.0819 C.ar      1 UNK         0.0000 
     18 C18         5.9133   54.8055   21.2138 C.ar      1 UNK         0.0000 
     19 C19         5.7840   54.7400   19.7903 C.ar      1 UNK         0.0000 
     20 C20         4.5966   54.0982   19.5187 C.ar      1 UNK         0.0000 
     21 N21         3.9868   53.7673   20.7013 N.pl3     1 UNK         0.0000 
     22 H22         3.0900   53.3027   20.7320 H         1 UNK         0.0000 
     23 C23         4.7600   54.1805   21.7663 C.ar      1 UNK         0.0000 
     24 C24         4.5600   54.0653   23.1443 C.ar      1 UNK         0.0000 
     25 H25        -1.1994   51.5210   25.2693 H         1 UNK         0.0000 
     26 H26        -0.4085   52.9100   24.5189 H         1 UNK         0.0000 
     27 H27         0.3618   51.3195   24.4719 H         1 UNK         0.0000 
     28 H28        -1.0443   51.5242   27.6890 H         1 UNK         0.0000 
     29 H29         0.2243   52.0858   29.7502 H         1 UNK         0.0000 
     30 H30         2.2631   53.0425   30.7907 H         1 UNK         0.0000 
     31 H31         4.4661   54.1465   30.5408 H         1 UNK         0.0000 
     32 H32         5.3734   54.6487   28.3781 H         1 UNK         0.0000 
     33 H33         3.5286   53.8670   25.2290 H         1 UNK         0.0000 
     34 H34         7.4615   55.5867   24.1095 H         1 UNK         0.0000 
     35 H35         7.7890   55.7678   21.6989 H         1 UNK         0.0000 
     36 H36         6.4791   55.1012   19.0483 H         1 UNK         0.0000 
     37 H37         4.1263   53.8478   18.5783 H         1 UNK         0.0000 
     38 H38         3.6656   53.5867   23.5125 H         1 UNK         0.0000 
@<TRIPOS>BOND
     1    1    2 1    
     2    1   25 1    
     3    1   26 1    
     4    1   27 1    
     5    2   11 ar   
     6    2    3 ar   
     7    3    4 ar   
     8    3   28 1    
     9    4    5 ar   
    10    4   29 1    
    11    5   10 ar   
    12    5    6 ar   
    13    6    7 ar   
    14    6   30 1    
    15    7    8 ar   
    16    7   31 1    
    17    8    9 ar   
    18    8   32 1    
    19    9   10 ar   
    20    9   12 1    
    21   10   11 ar   
    22   12   13 am   BACKBONE|DICT|INTERRES
    23   12   33 1    
    24   13   14 2    
    25   13   15 1    
    26   15   24 ar   
    27   15   16 ar   
    28   16   17 ar   
    29   16   34 1    
    30   17   18 ar   
    31   17   35 1    
    32   18   23 ar   
    33   18   19 ar   
    34   19   20 ar   
    35   19   36 1    
    36   20   21 ar   
    37   20   37 1    
    38   21   22 1    
    39   21   23 ar   
    40   23   24 ar   
    41   24   38 1    
@<TRIPOS>SUBSTRUCTURE
     1 UNK         1 GROUP             0       ****    0 ROOT    
