@<TRIPOS>MOLECULE
ZINC40822878_2778
51   53    1
SMALL
USER_CHARGES


@<TRIPOS>ATOM
      1 C1          1.5923   56.6921   29.6124 C.3       1 UNK         0.0000 
      2 C2          0.9918   55.4772   30.3299 C.3       1 UNK         0.0000 
      3 C3          1.0829   54.1482   29.5408 C.3       1 UNK         0.0000 
      4 H4          1.4269   54.4195   28.5492 H         1 UNK         0.0000 
      5 C5         -0.2699   53.4647   29.3388 C.3       1 UNK         0.0000 
      6 N6          1.9852   53.1947   30.1853 N.am      1 UNK         0.0000 
      7 C7          3.2121   52.7868   29.8190 C.2       1 UNK         0.0000 
      8 O8          3.8624   52.0259   30.5331 O.2       1 UNK         0.0000 
      9 C9          3.7631   53.2910   28.5888 C.2       1 UNK         0.0000 
     10 C10         3.2941   53.2971   27.2604 C.2       1 UNK         0.0000 
     11 C11         4.3414   53.8947   26.5216 C.2       1 UNK         0.0000 
     12 C12         5.3812   54.1313   27.4141 C.2       1 UNK         0.0000 
     13 O13         5.0303   53.7657   28.6633 O.3       1 UNK         0.0000 
     14 C14         6.7664   54.6470   27.1154 C.3       1 UNK         0.0000 
     15 C15         6.9828   54.4298   25.6060 C.3       1 UNK         0.0000 
     16 C16         5.8055   54.9589   24.7572 C.3       1 UNK         0.0000 
     17 C17         4.4998   54.1733   25.0771 C.2       1 UNK         0.0000 
     18 N18         3.6018   53.7593   24.2662 N.2       1 UNK         0.0000 
     19 N19         3.8937   53.9245   22.9598 N.am      1 UNK         0.0000 
     20 C20         3.2420   53.2959   21.9611 C.2       1 UNK         0.0000 
     21 O21         2.2008   52.6508   22.1224 O.2       1 UNK         0.0000 
     22 C22         3.8769   53.4230   20.5906 C.ar      1 UNK         0.0000 
     23 C23         3.2262   52.8961   19.4629 C.ar      1 UNK         0.0000 
     24 C24         3.7934   53.0378   18.1979 C.ar      1 UNK         0.0000 
     25 C25         5.0172   53.6967   18.0839 C.ar      1 UNK         0.0000 
     26 N26         5.6751   54.2149   19.1501 N.ar      1 UNK         0.0000 
     27 C27         5.1051   54.0782   20.3735 C.ar      1 UNK         0.0000 
     28 Br28        2.9229   52.3367   16.6607 Br        1 UNK         0.0000 
     29 C29         2.0043   52.6931   26.7255 C.3       1 UNK         0.0000 
     30 H30         1.5044   57.5860   30.2297 H         1 UNK         0.0000 
     31 H31         1.0746   56.8871   28.6755 H         1 UNK         0.0000 
     32 H32         2.6494   56.5372   29.3911 H         1 UNK         0.0000 
     33 H33         1.4985   55.3906   31.2818 H         1 UNK         0.0000 
     34 H34        -0.0416   55.6910   30.5945 H         1 UNK         0.0000 
     35 H35        -0.8933   54.0966   28.7171 H         1 UNK         0.0000 
     36 H36        -0.1714   52.5047   28.8320 H         1 UNK         0.0000 
     37 H37        -0.7922   53.2997   30.2811 H         1 UNK         0.0000 
     38 H38         1.6293   52.7863   31.0373 H         1 UNK         0.0000 
     39 H39         6.8439   55.6972   27.3866 H         1 UNK         0.0000 
     40 H40         7.5132   54.0972   27.6861 H         1 UNK         0.0000 
     41 H41         7.9044   54.8968   25.2801 H         1 UNK         0.0000 
     42 H42         7.1064   53.3610   25.4122 H         1 UNK         0.0000 
     43 H43         5.6415   56.0218   24.9344 H         1 UNK         0.0000 
     44 H44         6.0873   54.8744   23.7095 H         1 UNK         0.0000 
     45 H45         4.7459   54.4307   22.7781 H         1 UNK         0.0000 
     46 H46         2.2794   52.3846   19.5589 H         1 UNK         0.0000 
     47 H47         5.4917   53.8106   17.1217 H         1 UNK         0.0000 
     48 H48         5.6749   54.5202   21.1764 H         1 UNK         0.0000 
     49 H49         2.1746   52.0980   25.8294 H         1 UNK         0.0000 
     50 H50         1.5289   52.0164   27.4315 H         1 UNK         0.0000 
     51 H51         1.2872   53.4579   26.4316 H         1 UNK         0.0000 
@<TRIPOS>BOND
     1    1    2 1    
     2    1   30 1    
     3    1   31 1    
     4    1   32 1    
     5    2    3 1    
     6    2   33 1    
     7    2   34 1    
     8    3    4 1    
     9    3    5 1    
    10    3    6 1    
    11    5   35 1    
    12    5   36 1    
    13    5   37 1    
    14    6    7 am   BACKBONE|DICT|INTERRES
    15    6   38 1    
    16    7    8 2    
    17    7    9 1    
    18    9   13 1    
    19    9   10 2    
    20   10   11 1    
    21   10   29 1    
    22   11   17 1    
    23   11   12 2    
    24   12   13 1    
    25   12   14 1    
    26   14   15 1    
    27   14   39 1    
    28   14   40 1    
    29   15   16 1    
    30   15   41 1    
    31   15   42 1    
    32   16   17 1    
    33   16   43 1    
    34   16   44 1    
    35   17   18 2    
    36   18   19 1    
    37   19   20 am   BACKBONE|DICT|INTERRES
    38   19   45 1    
    39   20   21 2    
    40   20   22 1    
    41   22   27 ar   
    42   22   23 ar   
    43   23   24 ar   
    44   23   46 1    
    45   24   25 ar   
    46   24   28 1    
    47   25   26 ar   
    48   25   47 1    
    49   26   27 ar   
    50   27   48 1    
    51   29   49 1    
    52   29   50 1    
    53   29   51 1    
@<TRIPOS>SUBSTRUCTURE
     1 UNK         1 GROUP             0       ****    0 ROOT    
