@<TRIPOS>MOLECULE
ZINC01052587_4154
37   39    1
SMALL
USER_CHARGES


@<TRIPOS>ATOM
      1 C1          2.1249   53.2968   25.8129 C.ar      1 UNK         0.0000 
      2 C2          2.0502   53.3055   27.2125 C.ar      1 UNK         0.0000 
      3 C3          0.9121   52.7672   27.7978 C.ar      1 UNK         0.0000 
      4 C4         -0.1016   52.2429   27.0480 C.ar      1 UNK         0.0000 
      5 C5         -0.0550   52.2274   25.6579 C.ar      1 UNK         0.0000 
      6 C6          1.0794   52.7734   25.0201 C.ar      1 UNK         0.0000 
      7 C7          1.2081   52.8121   23.5592 C.2       1 UNK         0.0000 
      8 N8          0.2852   52.4765   22.7469 N.2       1 UNK         0.0000 
      9 N9          0.7084   52.4964   21.4658 N.am      1 UNK         0.0000 
     10 C10        -0.0467   52.1490   20.4054 C.2       1 UNK         0.0000 
     11 O11        -1.2642   51.9505   20.4728 O.2       1 UNK         0.0000 
     12 C12         0.6532   52.0671   19.0250 C.3       1 UNK         0.0000 
     13 N13         2.0362   51.6142   19.0108 N.pl3     1 UNK         0.0000 
     14 C14         3.0882   52.4076   19.5019 C.ar      1 UNK         0.0000 
     15 C15         3.5361   53.5403   18.8000 C.ar      1 UNK         0.0000 
     16 C16         4.5356   54.3481   19.3441 C.ar      1 UNK         0.0000 
     17 C17         5.1036   54.0339   20.5765 C.ar      1 UNK         0.0000 
     18 C18         4.7037   52.8819   21.2511 C.ar      1 UNK         0.0000 
     19 C19         3.7079   52.0636   20.7155 C.ar      1 UNK         0.0000 
     20 Br20        3.1930   50.4968   21.6804 Br        1 UNK         0.0000 
     21 Br21        6.4170   55.1831   21.3385 Br        1 UNK         0.0000 
     22 Br22        2.8019   54.0383   17.1097 Br        1 UNK         0.0000 
     23 O23        -1.1032   51.8380   27.8708 O.3       1 UNK         0.0000 
     24 C24        -0.5677   51.8998   29.1652 C.3       1 UNK         0.0000 
     25 O25         0.5807   52.7028   29.1139 O.3       1 UNK         0.0000 
     26 H26         3.0068   53.7153   25.3481 H         1 UNK         0.0000 
     27 H27         2.8491   53.7240   27.8060 H         1 UNK         0.0000 
     28 H28        -0.8772   51.8186   25.0879 H         1 UNK         0.0000 
     29 H29         2.1860   53.1542   23.2190 H         1 UNK         0.0000 
     30 H30         1.6873   52.7066   21.3362 H         1 UNK         0.0000 
     31 H31         0.5029   53.0153   18.5087 H         1 UNK         0.0000 
     32 H32         0.0506   51.3599   18.4532 H         1 UNK         0.0000 
     33 H33         2.3118   51.1923   18.1323 H         1 UNK         0.0000 
     34 H34         4.8597   55.2311   18.8131 H         1 UNK         0.0000 
     35 H35         5.1597   52.6278   22.1964 H         1 UNK         0.0000 
     36 H36        -0.2872   50.8964   29.4769 H         1 UNK         0.0000 
     37 H37        -1.2946   52.2825   29.8804 H         1 UNK         0.0000 
@<TRIPOS>BOND
     1    1    6 ar   
     2    1    2 ar   
     3    1   26 1    
     4    2    3 ar   
     5    2   27 1    
     6    3   25 1    
     7    3    4 ar   
     8    4    5 ar   
     9    4   23 1    
    10    5    6 ar   
    11    5   28 1    
    12    6    7 1    
    13    7    8 2    
    14    7   29 1    
    15    8    9 1    
    16    9   10 am   BACKBONE|DICT|INTERRES
    17    9   30 1    
    18   10   11 2    
    19   10   12 1    
    20   12   13 1    
    21   12   31 1    
    22   12   32 1    
    23   13   14 1    
    24   13   33 1    
    25   14   19 ar   
    26   14   15 ar   
    27   15   16 ar   
    28   15   22 1    
    29   16   17 ar   
    30   16   34 1    
    31   17   18 ar   
    32   17   21 1    
    33   18   19 ar   
    34   18   35 1    
    35   19   20 1    
    36   23   24 1    
    37   24   25 1    
    38   24   36 1    
    39   24   37 1    
@<TRIPOS>SUBSTRUCTURE
     1 UNK         1 GROUP             0       ****    0 ROOT    
