ZINC00940659_4293
                    3D
 Schrodinger Suite 2024-2.
 42 45  0  0  1  0            999 V2000
   -1.8067   51.7014   21.5166 C   0  0  0  0  0  0
   -1.5480   51.4917   23.0053 C   0  0  0  0  0  0
   -0.3969   51.0176   23.5815 C   0  0  0  0  0  0
   -0.4218   50.7328   25.1109 C   0  0  2  0  0  0
    0.0161   49.7476   25.2781 H   0  0  0  0  0  0
   -1.8281   50.5504   25.5399 N   0  0  0  0  0  0
   -2.8117   51.3528   24.9185 C   0  0  0  0  0  0
   -2.6728   51.8046   23.7243 N   0  0  0  0  0  0
   -3.8557   51.5735   25.7940 N   0  0  0  0  0  0
   -3.5272   51.0582   26.9213 C   0  0  0  0  0  0
   -2.2216   50.4968   26.8940 N   0  0  0  0  0  0
   -4.3913   51.0099   28.1215 C   0  0  0  0  0  0
   -5.7052   51.5008   28.0775 C   0  0  0  0  0  0
   -6.5001   51.4899   29.2217 C   0  0  0  0  0  0
   -5.9903   50.9854   30.4162 C   0  0  0  0  0  0
   -4.6946   50.4800   30.4720 C   0  0  0  0  0  0
   -3.9002   50.4928   29.3293 C   0  0  0  0  0  0
   -6.9649   51.0031   31.8399 Cl  0  0  0  0  0  0
    0.4605   51.6633   25.9758 C   0  0  0  0  0  0
    0.7033   51.2996   27.3028 C   0  0  0  0  0  0
    1.5090   52.0806   28.1260 C   0  0  0  0  0  0
    2.1085   53.2265   27.6116 C   0  0  0  0  0  0
    1.9046   53.5897   26.2823 C   0  0  0  0  0  0
    1.0728   52.8205   25.4698 C   0  0  0  0  0  0
    3.2163   54.2982   28.7313 Br  0  0  0  0  0  0
    0.8151   50.7495   22.8291 C   0  0  0  0  0  0
    1.1983   51.4499   21.8974 O   0  0  0  0  0  0
    1.5278   49.6967   23.2156 N   0  0  0  0  0  0
   -1.7452   52.7615   21.2820 H   0  0  0  0  0  0
   -1.0952   51.1743   20.8837 H   0  0  0  0  0  0
   -2.7974   51.3412   21.2335 H   0  0  0  0  0  0
   -1.9765   49.5846   27.3097 H   0  0  0  0  0  0
   -6.1174   51.9025   27.1619 H   0  0  0  0  0  0
   -7.5085   51.8756   29.1814 H   0  0  0  0  0  0
   -4.2933   50.0911   31.3985 H   0  0  0  0  0  0
   -2.8974   50.0972   29.4067 H   0  0  0  0  0  0
    0.2609   50.3941   27.6835 H   0  0  0  0  0  0
    1.6747   51.7916   29.1532 H   0  0  0  0  0  0
    2.3851   54.4701   25.8831 H   0  0  0  0  0  0
    0.9177   53.1322   24.4473 H   0  0  0  0  0  0
    1.2430   49.1093   23.9842 H   0  0  0  0  0  0
    2.3823   49.4842   22.7248 H   0  0  0  0  0  0
  1  2  1  0  0  0
  1 29  1  0  0  0
  1 30  1  0  0  0
  1 31  1  0  0  0
  2  8  1  0  0  0
  2  3  2  0  0  0
  3  4  1  0  0  0
  3 26  1  0  0  0
  4  5  1  0  0  0
  4  6  1  0  0  0
  4 19  1  0  0  0
  6 11  1  0  0  0
  6  7  1  0  0  0
  7  8  2  0  0  0
  7  9  1  0  0  0
  9 10  2  0  0  0
 10 11  1  0  0  0
 10 12  1  0  0  0
 11 32  1  0  0  0
 12 17  2  0  0  0
 12 13  1  0  0  0
 13 14  2  0  0  0
 13 33  1  0  0  0
 14 15  1  0  0  0
 14 34  1  0  0  0
 15 16  2  0  0  0
 15 18  1  0  0  0
 16 17  1  0  0  0
 16 35  1  0  0  0
 17 36  1  0  0  0
 19 24  2  0  0  0
 19 20  1  0  0  0
 20 21  2  0  0  0
 20 37  1  0  0  0
 21 22  1  0  0  0
 21 38  1  0  0  0
 22 23  2  0  0  0
 22 25  1  0  0  0
 23 24  1  0  0  0
 23 39  1  0  0  0
 24 40  1  0  0  0
 26 27  2  0  0  0
 26 28  1  0  0  0
 28 41  1  0  0  0
 28 42  1  0  0  0
M  END
> <i_i_glide_confnum>
2

> <i_i_glide_lignum>
4294

> <i_i_glide_posenum>
358

> <i_i_glide_rotatable_bonds>
3

> <i_m_Source_File_Index>
1

> <b_m_subgroup_collapsed>
0

> <r_i_docking_score>
-4.21865

> <r_i_glide_ecoul>
-7.69999

> <r_i_glide_eff_state_penalty>
0

> <r_i_glide_einternal>
5.21681

> <r_i_glide_emodel>
-47.1198

> <r_i_glide_energy>
-38.2839

> <r_i_glide_erotb>
0.202279

> <r_i_glide_esite>
-0.189713

> <r_i_glide_evdw>
-30.5839

> <r_i_glide_gscore>
-4.21865

> <r_i_glide_hbond>
-0.162485

> <r_i_glide_ligand_efficiency>
-0.156246

> <r_i_glide_ligand_efficiency_ln>
-0.982033

> <r_i_glide_ligand_efficiency_sa>
-0.468739

> <r_i_glide_lipo>
-0.927736

> <r_i_glide_metal>
0

> <r_i_glide_rewards>
-0.456804

> <s_i_glide_gridfile>
wee1_glide-grid

> <s_m_Source_File>
wee1_decoys_glide_SP.sdf

> <s_m_Source_Path>
/Users/zhangxujun/Desktop

> <s_m_entry_id>
276

> <s_m_entry_name>
wee1_decoys_glide_SP.1

> <s_m_subgroup_title>
wee1_decoys_glide_SP

> <s_m_subgroupid>
wee1_decoys_glide_SP


$$$$
