@<TRIPOS>MOLECULE
ZINC02862001_3145
53   55    1
SMALL
USER_CHARGES


@<TRIPOS>ATOM
      1 C1          1.5042   56.3723   30.4207 C.2       1 UNK         0.0000 
      2 C2          1.8766   56.3330   29.1303 C.2       1 UNK         0.0000 
      3 C3          2.3409   55.1255   28.3188 C.3       1 UNK         0.0000 
      4 N4          2.7173   53.9279   29.0676 N.pl3     1 UNK         0.0000 
      5 C5          3.9648   53.3469   29.1854 C.ar      1 UNK         0.0000 
      6 N6          3.9044   52.2760   29.9380 N.2       1 UNK         0.0000 
      7 N7          2.5745   52.1041   30.3072 N.2       1 UNK         0.0000 
      8 C8          1.8865   53.0805   29.7692 C.ar      1 UNK         0.0000 
      9 S9          0.1330   53.2367   29.8510 S.3       1 UNK         0.0000 
     10 C10        -0.3075   51.6975   28.9852 C.3       1 UNK         0.0000 
     11 C11        -0.0370   51.6371   27.4761 C.2       1 UNK         0.0000 
     12 O12         0.5161   52.5704   26.8944 O.2       1 UNK         0.0000 
     13 N13        -0.4462   50.4970   26.8814 N.am      1 UNK         0.0000 
     14 C14        -0.3541   50.0985   25.5388 C.ar      1 UNK         0.0000 
     15 C15         0.4160   50.7415   24.5543 C.ar      1 UNK         0.0000 
     16 C16         0.4311   50.2541   23.2493 C.ar      1 UNK         0.0000 
     17 C17        -0.3225   49.1309   22.9112 C.ar      1 UNK         0.0000 
     18 C18        -1.0945   48.4777   23.8808 C.ar      1 UNK         0.0000 
     19 C19        -1.0915   48.9631   25.1930 C.ar      1 UNK         0.0000 
     20 C20        -1.9397   47.2557   23.5358 C.3       1 UNK         0.0000 
     21 F21        -1.6975   46.7983   22.3051 F         1 UNK         0.0000 
     22 F22        -3.2313   47.5757   23.6090 F         1 UNK         0.0000 
     23 F23        -1.6970   46.2687   24.4010 F         1 UNK         0.0000 
     24 C24         5.2454   53.8594   28.5372 C.3       1 UNK         0.0000 
     25 N25         5.1675   53.7314   27.0827 N.am      1 UNK         0.0000 
     26 C26         5.8084   54.5122   26.1966 C.2       1 UNK         0.0000 
     27 O27         6.7043   55.2967   26.5070 O.2       1 UNK         0.0000 
     28 C28         5.3693   54.3830   24.7595 C.ar      1 UNK         0.0000 
     29 C29         6.3044   54.5774   23.7341 C.ar      1 UNK         0.0000 
     30 C30         5.9156   54.4656   22.4038 C.ar      1 UNK         0.0000 
     31 C31         4.5964   54.1522   22.0882 C.ar      1 UNK         0.0000 
     32 C32         3.6505   53.9801   23.0966 C.ar      1 UNK         0.0000 
     33 C33         4.0337   54.0967   24.4303 C.ar      1 UNK         0.0000 
     34 Cl34        4.1295   53.9963   20.4360 Cl        1 UNK         0.0000 
     35 H35         1.1952   57.2967   30.8824 H         1 UNK         0.0000 
     36 H36         1.5025   55.4949   31.0446 H         1 UNK         0.0000 
     37 H37         1.8450   57.2602   28.5754 H         1 UNK         0.0000 
     38 H38         3.1773   55.4134   27.6863 H         1 UNK         0.0000 
     39 H39         1.5401   54.8468   27.6335 H         1 UNK         0.0000 
     40 H40        -1.3667   51.5080   29.1593 H         1 UNK         0.0000 
     41 H41         0.2370   50.8966   29.4648 H         1 UNK         0.0000 
     42 H42        -0.8954   49.8066   27.4838 H         1 UNK         0.0000 
     43 H43         1.0193   51.6061   24.7789 H         1 UNK         0.0000 
     44 H44         1.0291   50.7465   22.4967 H         1 UNK         0.0000 
     45 H45        -0.3022   48.7748   21.8904 H         1 UNK         0.0000 
     46 H46        -1.6770   48.4566   25.9498 H         1 UNK         0.0000 
     47 H47         5.4207   54.8975   28.8301 H         1 UNK         0.0000 
     48 H48         6.1159   53.2968   28.8816 H         1 UNK         0.0000 
     49 H49         4.5755   52.9936   26.7257 H         1 UNK         0.0000 
     50 H50         7.3350   54.8137   23.9608 H         1 UNK         0.0000 
     51 H51         6.6402   54.6142   21.6164 H         1 UNK         0.0000 
     52 H52         2.6245   53.7566   22.8429 H         1 UNK         0.0000 
     53 H53         3.2837   53.9634   25.1968 H         1 UNK         0.0000 
@<TRIPOS>BOND
     1    1    2 2    
     2    1   35 1    
     3    1   36 1    
     4    2    3 1    
     5    2   37 1    
     6    3    4 1    
     7    3   38 1    
     8    3   39 1    
     9    4    8 ar   
    10    4    5 ar   
    11    5    6 ar   
    12    5   24 1    
    13    6    7 ar   
    14    7    8 ar   
    15    8    9 1    
    16    9   10 1    
    17   10   11 1    
    18   10   40 1    
    19   10   41 1    
    20   11   12 2    
    21   11   13 am   BACKBONE|DICT|INTERRES
    22   13   14 1    
    23   13   42 1    
    24   14   19 ar   
    25   14   15 ar   
    26   15   16 ar   
    27   15   43 1    
    28   16   17 ar   
    29   16   44 1    
    30   17   18 ar   
    31   17   45 1    
    32   18   19 ar   
    33   18   20 1    
    34   19   46 1    
    35   20   21 1    
    36   20   22 1    
    37   20   23 1    
    38   24   25 1    
    39   24   47 1    
    40   24   48 1    
    41   25   26 am   BACKBONE|DICT|INTERRES
    42   25   49 1    
    43   26   27 2    
    44   26   28 1    
    45   28   33 ar   
    46   28   29 ar   
    47   29   30 ar   
    48   29   50 1    
    49   30   31 ar   
    50   30   51 1    
    51   31   32 ar   
    52   31   34 1    
    53   32   33 ar   
    54   32   52 1    
    55   33   53 1    
@<TRIPOS>SUBSTRUCTURE
     1 UNK         1 GROUP             0       ****    0 ROOT    
