ZINC18210644_1528
                    3D
 Schrodinger Suite 2024-2.
 49 53  0  0  1  0            999 V2000
    1.8625   52.2172   20.9778 C   0  0  0  0  0  0
    1.8845   51.8913   22.4874 N   0  3  2  0  0  0
    2.2975   50.4364   22.7711 C   0  0  0  0  0  0
    1.2633   49.4680   22.1958 C   0  0  0  0  0  0
   -0.1834   49.9052   22.4069 C   0  0  0  0  0  0
   -1.1997   48.9817   22.1266 C   0  0  0  0  0  0
   -2.5199   49.3752   22.2576 C   0  0  0  0  0  0
   -2.8558   50.6394   22.6318 C   0  0  0  0  0  0
   -1.8797   51.5995   22.9240 C   0  0  0  0  0  0
   -0.5185   51.2270   22.8329 C   0  0  0  0  0  0
    0.5755   52.2459   23.2362 C   0  0  1  0  0  0
    0.3066   53.2209   22.8272 H   0  0  0  0  0  0
    0.9021   52.4221   24.7460 C   0  0  0  0  0  0
    0.3290   51.7646   25.7866 C   0  0  0  0  0  0
   -0.5923   50.8729   25.7176 O   0  5  0  0  0  0
    0.6791   51.9385   27.0766 N   0  0  0  0  0  0
    1.6762   52.7869   27.4633 C   0  0  0  0  0  0
    1.9476   52.9122   29.1097 S   0  0  0  0  0  0
    2.3397   53.4571   26.4259 N   0  0  0  0  0  0
    1.9540   53.3995   25.0867 C   0  0  0  0  0  0
    2.4352   54.1161   24.2041 O   0  0  0  0  0  0
    3.4580   54.3844   26.7721 C   0  0  0  0  0  0
    4.7651   53.8170   27.3190 C   0  0  0  0  0  0
    4.7506   54.4378   25.9569 C   0  0  0  0  0  0
   -2.2089   52.8950   23.2761 O   0  0  0  0  0  0
   -3.2946   53.0701   24.1826 C   0  0  0  0  0  0
   -4.2138   50.7433   22.6209 O   0  0  0  0  0  0
   -4.7090   49.4505   22.4110 C   0  0  0  0  0  0
   -3.6386   48.6504   21.9994 O   0  0  0  0  0  0
    1.0442   51.6791   20.5041 H   0  0  0  0  0  0
    1.7245   53.2941   20.8968 H   0  0  0  0  0  0
    2.8287   51.9263   20.5650 H   0  0  0  0  0  0
    3.3064   50.2871   22.3796 H   0  0  0  0  0  0
    2.3625   50.3394   23.8552 H   0  0  0  0  0  0
    1.4299   48.4977   22.6571 H   0  0  0  0  0  0
    1.4422   49.3331   21.1291 H   0  0  0  0  0  0
   -0.9585   47.9805   21.7999 H   0  0  0  0  0  0
    3.1033   55.3115   27.2178 H   0  0  0  0  0  0
    5.2484   54.3453   28.1413 H   0  0  0  0  0  0
    4.8790   52.7356   27.4040 H   0  0  0  0  0  0
    4.8795   53.7876   25.0894 H   0  0  0  0  0  0
    5.2218   55.4099   25.8086 H   0  0  0  0  0  0
   -3.2950   54.0943   24.5478 H   0  0  0  0  0  0
   -4.2580   52.9153   23.6971 H   0  0  0  0  0  0
   -3.2175   52.4066   25.0463 H   0  0  0  0  0  0
   -5.1119   49.0664   23.3517 H   0  0  0  0  0  0
   -5.4859   49.4642   21.6435 H   0  0  0  0  0  0
    2.5748   52.5023   22.9125 H   0  0  0  0  0  0
    0.2175   51.4398   27.8223 H   0  0  0  0  0  0
  1  2  1  0  0  0
  1 30  1  0  0  0
  1 31  1  0  0  0
  1 32  1  0  0  0
  2 11  1  0  0  0
  2  3  1  0  0  0
  2 48  1  0  0  0
  3  4  1  0  0  0
  3 33  1  0  0  0
  3 34  1  0  0  0
  4  5  1  0  0  0
  4 35  1  0  0  0
  4 36  1  0  0  0
  5 10  2  0  0  0
  5  6  1  0  0  0
  6  7  2  0  0  0
  6 37  1  0  0  0
  7 29  1  0  0  0
  7  8  1  0  0  0
  8  9  2  0  0  0
  8 27  1  0  0  0
  9 10  1  0  0  0
  9 25  1  0  0  0
 10 11  1  0  0  0
 11 12  1  0  0  0
 11 13  1  0  0  0
 13 14  2  0  0  0
 13 20  1  0  0  0
 14 15  1  0  0  0
 14 16  1  0  0  0
 16 17  1  0  0  0
 16 49  1  0  0  0
 17 19  1  0  0  0
 17 18  2  0  0  0
 19 20  1  0  0  0
 19 22  1  0  0  0
 20 21  2  0  0  0
 22 24  1  0  0  0
 22 23  1  0  0  0
 22 38  1  0  0  0
 23 24  1  0  0  0
 23 39  1  0  0  0
 23 40  1  0  0  0
 24 41  1  0  0  0
 24 42  1  0  0  0
 25 26  1  0  0  0
 26 43  1  0  0  0
 26 44  1  0  0  0
 26 45  1  0  0  0
 27 28  1  0  0  0
 28 29  1  0  0  0
 28 46  1  0  0  0
 28 47  1  0  0  0
M  CHG  2   2   1  15  -1
M  END
> <i_i_glide_confnum>
5

> <i_i_glide_lignum>
1529

> <i_i_glide_posenum>
309

> <i_i_glide_rotatable_bonds>
3

> <i_m_Source_File_Index>
3619

> <b_m_subgroup_collapsed>
0

> <r_i_docking_score>
-4.72637

> <r_i_glide_ecoul>
-3.23099

> <r_i_glide_eff_state_penalty>
0

> <r_i_glide_einternal>
0.960871

> <r_i_glide_emodel>
-44.8472

> <r_i_glide_energy>
-34.5702

> <r_i_glide_erotb>
0.241237

> <r_i_glide_esite>
0

> <r_i_glide_evdw>
-31.3392

> <r_i_glide_gscore>
-4.72637

> <r_i_glide_hbond>
0

> <r_i_glide_ligand_efficiency>
-0.168799

> <r_i_glide_ligand_efficiency_ln>
-1.09098

> <r_i_glide_ligand_efficiency_sa>
-0.512573

> <r_i_glide_lipo>
-1.52691

> <r_i_glide_metal>
0

> <r_i_glide_rewards>
-1.38909

> <s_i_glide_gridfile>
wee1_glide-grid

> <s_m_Source_File>
wee1_decoys_glide_SP.sdf

> <s_m_Source_Path>
/Users/zhangxujun/Desktop

> <s_m_entry_id>
3894

> <s_m_entry_name>
wee1_decoys_glide_SP.3619

> <s_m_subgroup_title>
wee1_decoys_glide_SP

> <s_m_subgroupid>
wee1_decoys_glide_SP


$$$$
