@<TRIPOS>MOLECULE
ZINC20806539_2403
58   62    1
SMALL
USER_CHARGES


@<TRIPOS>ATOM
      1 C1         -2.9282   50.3593   22.1831 C.ar      1 UNK         0.0000 
      2 C2         -2.3099   51.4129   21.5132 C.ar      1 UNK         0.0000 
      3 C3         -0.9322   51.5758   21.6039 C.ar      1 UNK         0.0000 
      4 C4         -0.1664   50.6677   22.3384 C.ar      1 UNK         0.0000 
      5 C5         -0.7943   49.6072   23.0058 C.ar      1 UNK         0.0000 
      6 C6         -2.1775   49.4583   22.9347 C.ar      1 UNK         0.0000 
      7 C7          1.3663   50.8255   22.3663 C.3       1 UNK         0.0000 
      8 H8          1.6801   49.9441   22.9336 H         1 UNK         0.0000 
      9 C9          1.9118   52.0545   23.1280 C.2       1 UNK         0.0000 
     10 C10         2.8576   52.8949   22.5839 C.2       1 UNK         0.0000 
     11 C11         3.4163   54.0714   23.3941 C.3       1 UNK         0.0000 
     12 C12         2.4605   54.4967   24.4822 C.3       1 UNK         0.0000 
     13 C13         2.0308   53.3322   25.3650 C.3       1 UNK         0.0000 
     14 C14         1.4419   52.1973   24.5320 C.2       1 UNK         0.0000 
     15 O15         0.7045   51.3808   25.0804 O.2       1 UNK         0.0000 
     16 N16         3.2983   52.7590   21.2507 N.pl3     1 UNK         0.0000 
     17 C17         2.8820   51.6486   20.5016 C.2       1 UNK         0.0000 
     18 C18         2.0141   50.7238   20.9803 C.2       1 UNK         0.0000 
     19 C19         1.6851   49.4847   20.2423 C.2       1 UNK         0.0000 
     20 O20         1.9018   48.4127   20.8027 O.2       1 UNK         0.0000 
     21 C21         1.1663   49.5364   18.8346 C.ar      1 UNK         0.0000 
     22 C22         0.5015   50.6721   18.3483 C.ar      1 UNK         0.0000 
     23 C23         0.0018   50.6917   17.0484 C.ar      1 UNK         0.0000 
     24 C24         0.1490   49.5697   16.2359 C.ar      1 UNK         0.0000 
     25 C25         0.7861   48.4286   16.7113 C.ar      1 UNK         0.0000 
     26 C26         1.2870   48.4102   18.0091 C.ar      1 UNK         0.0000 
     27 N27         3.4835   51.5288   19.2816 N.pl3     1 UNK         0.0000 
     28 C28         4.2094   53.7107   20.6744 C.ar      1 UNK         0.0000 
     29 C29         3.9045   54.3509   19.4630 C.ar      1 UNK         0.0000 
     30 C30         4.7856   55.2520   18.8747 C.ar      1 UNK         0.0000 
     31 C31         6.0125   55.5321   19.4839 C.ar      1 UNK         0.0000 
     32 C32         6.3294   54.8980   20.6891 C.ar      1 UNK         0.0000 
     33 C33         5.4531   53.9791   21.2583 C.ar      1 UNK         0.0000 
     34 N34         6.9754   56.4590   18.8460 N.pl3     1 UNK         0.0000 
     35 O35         8.1093   56.5259   19.3098 O.co2     1 UNK         0.0000 
     36 O36         6.6052   57.1167   17.8787 O.co2     1 UNK         0.0000 
     37 H37        -4.0005   50.2363   22.1211 H         1 UNK         0.0000 
     38 H38        -2.8954   52.0990   20.9244 H         1 UNK         0.0000 
     39 H39        -0.4491   52.3949   21.0896 H         1 UNK         0.0000 
     40 H40        -0.2143   48.8993   23.5803 H         1 UNK         0.0000 
     41 H41        -2.6613   48.6431   23.4523 H         1 UNK         0.0000 
     42 H42         4.4144   53.8671   23.7835 H         1 UNK         0.0000 
     43 H43         3.4856   54.9651   22.7745 H         1 UNK         0.0000 
     44 H44         2.9915   55.2433   25.0788 H         1 UNK         0.0000 
     45 H45         1.5824   54.9859   24.0548 H         1 UNK         0.0000 
     46 H46         2.9142   52.9192   25.8531 H         1 UNK         0.0000 
     47 H47         1.3306   53.6222   26.1502 H         1 UNK         0.0000 
     48 H48         0.3752   51.5506   18.9655 H         1 UNK         0.0000 
     49 H49        -0.4963   51.5730   16.6734 H         1 UNK         0.0000 
     50 H50        -0.2345   49.5891   15.2258 H         1 UNK         0.0000 
     51 H51         0.9038   47.5636   16.0752 H         1 UNK         0.0000 
     52 H52         1.7866   47.5172   18.3568 H         1 UNK         0.0000 
     53 H53         3.3555   50.7033   18.7097 H         1 UNK         0.0000 
     54 H54         4.3124   52.0556   19.0540 H         1 UNK         0.0000 
     55 H55         2.9747   54.1282   18.9570 H         1 UNK         0.0000 
     56 H56         4.5103   55.7158   17.9360 H         1 UNK         0.0000 
     57 H57         7.2795   55.0785   21.1723 H         1 UNK         0.0000 
     58 H58         5.7643   53.4552   22.1488 H         1 UNK         0.0000 
@<TRIPOS>BOND
     1    1    6 ar   
     2    1    2 ar   
     3    1   37 1    
     4    2    3 ar   
     5    2   38 1    
     6    3    4 ar   
     7    3   39 1    
     8    4    5 ar   
     9    4    7 1    
    10    5    6 ar   
    11    5   40 1    
    12    6   41 1    
    13    7    8 1    
    14    7   18 1    
    15    7    9 1    
    16    9   14 1    
    17    9   10 2    
    18   10   11 1    
    19   10   16 1    
    20   11   12 1    
    21   11   42 1    
    22   11   43 1    
    23   12   13 1    
    24   12   44 1    
    25   12   45 1    
    26   13   14 1    
    27   13   46 1    
    28   13   47 1    
    29   14   15 2    
    30   16   17 1    
    31   16   28 1    
    32   17   18 2    
    33   17   27 1    
    34   18   19 1    
    35   19   20 2    
    36   19   21 1    
    37   21   26 ar   
    38   21   22 ar   
    39   22   23 ar   
    40   22   48 1    
    41   23   24 ar   
    42   23   49 1    
    43   24   25 ar   
    44   24   50 1    
    45   25   26 ar   
    46   25   51 1    
    47   26   52 1    
    48   27   53 1    
    49   27   54 1    
    50   28   33 ar   
    51   28   29 ar   
    52   29   30 ar   
    53   29   55 1    
    54   30   31 ar   
    55   30   56 1    
    56   31   32 ar   
    57   31   34 1    
    58   32   33 ar   
    59   32   57 1    
    60   33   58 1    
    61   34   35 2    
    62   34   36 1    
@<TRIPOS>SUBSTRUCTURE
     1 UNK         1 GROUP             0       ****    0 ROOT    
