@<TRIPOS>MOLECULE
ZINC10339246_1522
52   55    1
SMALL
USER_CHARGES


@<TRIPOS>ATOM
      1 C1         -3.5913   46.8712   24.0793 C.3       1 UNK         0.0000 
      2 C2         -2.0792   46.7051   23.8665 C.3       1 UNK         0.0000 
      3 O3         -1.3768   47.9129   24.1372 O.3       1 UNK         0.0000 
      4 C4         -1.2867   48.9197   23.2253 C.2       1 UNK         0.0000 
      5 O5         -1.7705   48.8299   22.0949 O.2       1 UNK         0.0000 
      6 C6         -0.4723   50.1049   23.6553 C.2       1 UNK         0.0000 
      7 C7         -0.2640   50.3552   24.9798 C.2       1 UNK         0.0000 
      8 O8          0.4927   51.3618   25.4598 O.3       1 UNK         0.0000 
      9 C9          1.2019   52.1611   24.6383 C.2       1 UNK         0.0000 
     10 C10         1.1208   52.1031   23.2827 C.2       1 UNK         0.0000 
     11 C11         0.2036   51.0319   22.5848 C.3       1 UNK         0.0000 
     12 C12         0.9012   50.2209   21.5286 C.ar      1 UNK         0.0000 
     13 C13         1.9036   49.2604   21.6534 C.ar      1 UNK         0.0000 
     14 C14         2.3044   48.5408   20.5292 C.ar      1 UNK         0.0000 
     15 C15         1.7541   48.8129   19.2792 C.ar      1 UNK         0.0000 
     16 C16         0.7647   49.7859   19.1564 C.ar      1 UNK         0.0000 
     17 C17         0.3378   50.4944   20.2914 C.ar      1 UNK         0.0000 
     18 N18        -0.6707   51.4696   20.4305 N.am      1 UNK         0.0000 
     19 C19        -0.8885   51.7611   21.7508 C.2       1 UNK         0.0000 
     20 O20        -1.7554   52.4955   22.2411 O.2       1 UNK         0.0000 
     21 C21        -1.2902   52.0966   19.3889 C.2       1 UNK         0.0000 
     22 O22        -2.4766   52.4397   19.3959 O.2       1 UNK         0.0000 
     23 C23        -0.4609   52.4941   18.1627 C.3       1 UNK         0.0000 
     24 C24         1.9524   53.0406   22.4820 C.2       1 UNK         0.0000 
     25 O25         2.1604   52.8855   21.2825 O.2       1 UNK         0.0000 
     26 C26         2.6552   54.1795   23.2408 C.3       1 UNK         0.0000 
     27 C27         3.2185   53.6963   24.5880 C.3       1 UNK         0.0000 
     28 H28         3.9176   52.8967   24.3621 H         1 UNK         0.0000 
     29 C29         2.0987   53.0911   25.4605 C.3       1 UNK         0.0000 
     30 C30         4.0720   54.7457   25.3256 C.3       1 UNK         0.0000 
     31 N31        -0.7367   49.6968   26.0817 N.pl3     1 UNK         0.0000 
     32 H32        -4.1187   45.9339   23.9040 H         1 UNK         0.0000 
     33 H33        -3.8092   47.1930   25.0983 H         1 UNK         0.0000 
     34 H34        -4.0067   47.6154   23.3987 H         1 UNK         0.0000 
     35 H35        -1.8623   46.3480   22.8578 H         1 UNK         0.0000 
     36 H36        -1.7012   45.9466   24.5527 H         1 UNK         0.0000 
     37 H37         2.3352   49.0310   22.6171 H         1 UNK         0.0000 
     38 H38         3.0472   47.7647   20.6274 H         1 UNK         0.0000 
     39 H39         2.0897   48.2674   18.4083 H         1 UNK         0.0000 
     40 H40         0.3375   49.9510   18.1800 H         1 UNK         0.0000 
     41 H41         0.6109   52.4612   18.3637 H         1 UNK         0.0000 
     42 H42        -0.6865   51.8428   17.3191 H         1 UNK         0.0000 
     43 H43        -0.7009   53.5164   17.8706 H         1 UNK         0.0000 
     44 H44         1.9014   54.9443   23.4137 H         1 UNK         0.0000 
     45 H45         3.4185   54.6206   22.5987 H         1 UNK         0.0000 
     46 H46         1.5044   53.8378   25.9863 H         1 UNK         0.0000 
     47 H47         2.5654   52.4983   26.2489 H         1 UNK         0.0000 
     48 H48         3.5042   55.6025   25.6800 H         1 UNK         0.0000 
     49 H49         4.5541   54.3034   26.1984 H         1 UNK         0.0000 
     50 H50         4.8666   55.1242   24.6813 H         1 UNK         0.0000 
     51 H51        -1.2994   48.8627   25.9883 H         1 UNK         0.0000 
     52 H52        -0.4964   49.9686   27.0240 H         1 UNK         0.0000 
@<TRIPOS>BOND
     1    1    2 1    
     2    1   32 1    
     3    1   33 1    
     4    1   34 1    
     5    2    3 1    
     6    2   35 1    
     7    2   36 1    
     8    3    4 1    
     9    4    5 2    
    10    4    6 1    
    11    6   11 1    
    12    6    7 2    
    13    7    8 1    
    14    7   31 1    
    15    8    9 1    
    16    9   29 1    
    17    9   10 2    
    18   10   11 1    
    19   10   24 1    
    20   11   19 1    
    21   11   12 1    
    22   12   17 ar   
    23   12   13 ar   
    24   13   14 ar   
    25   13   37 1    
    26   14   15 ar   
    27   14   38 1    
    28   15   16 ar   
    29   15   39 1    
    30   16   17 ar   
    31   16   40 1    
    32   17   18 1    
    33   18   19 am   BACKBONE|DICT|INTERRES
    34   18   21 am   BACKBONE|DICT|INTERRES
    35   19   20 2    
    36   21   22 2    
    37   21   23 1    
    38   23   41 1    
    39   23   42 1    
    40   23   43 1    
    41   24   25 2    
    42   24   26 1    
    43   26   27 1    
    44   26   44 1    
    45   26   45 1    
    46   27   28 1    
    47   27   29 1    
    48   27   30 1    
    49   29   46 1    
    50   29   47 1    
    51   30   48 1    
    52   30   49 1    
    53   30   50 1    
    54   31   51 1    
    55   31   52 1    
@<TRIPOS>SUBSTRUCTURE
     1 UNK         1 GROUP             0       ****    0 ROOT    
