@<TRIPOS>MOLECULE
ZINC20764833_3469
53   56    1
SMALL
USER_CHARGES


@<TRIPOS>ATOM
      1 C1          5.9366   54.9156   26.6305 C.3       1 UNK         0.0000 
      2 C2          5.5095   54.5788   25.2130 C.ar      1 UNK         0.0000 
      3 C3          6.4659   54.5265   24.2017 C.ar      1 UNK         0.0000 
      4 C4          6.0885   54.1824   22.9075 C.ar      1 UNK         0.0000 
      5 C5          4.7521   53.8779   22.6026 C.ar      1 UNK         0.0000 
      6 C6          3.7897   53.9854   23.6197 C.ar      1 UNK         0.0000 
      7 C7          4.1681   54.3296   24.9173 C.ar      1 UNK         0.0000 
      8 C8          4.3921   53.4204   21.2354 C.2       1 UNK         0.0000 
      9 N9          5.1103   53.7694   20.2283 N.2       1 UNK         0.0000 
     10 C10         4.8754   53.3055   18.8628 C.3       1 UNK         0.0000 
     11 H11         5.5829   52.4968   18.6613 H         1 UNK         0.0000 
     12 N12         3.5045   52.6579   18.5955 N.4       1 UNK         0.0000 
     13 C13         3.0829   51.7552   19.7541 C.3       1 UNK         0.0000 
     14 H14         3.8545   50.9832   19.7890 H         1 UNK         0.0000 
     15 C15         3.0994   52.5938   21.0596 C.3       1 UNK         0.0000 
     16 C16         1.7273   51.1398   19.3834 C.ar      1 UNK         0.0000 
     17 C17         0.5635   51.9232   19.4298 C.ar      1 UNK         0.0000 
     18 C18        -0.6808   51.3750   19.1233 C.ar      1 UNK         0.0000 
     19 C19        -0.7813   50.0321   18.7672 C.ar      1 UNK         0.0000 
     20 C20         0.3650   49.2440   18.7078 C.ar      1 UNK         0.0000 
     21 C21         1.6130   49.7911   18.9995 C.ar      1 UNK         0.0000 
     22 O22         2.7038   48.9752   18.8818 O.3       1 UNK         0.0000 
     23 C23         5.0895   54.4010   17.8243 C.ar      1 UNK         0.0000 
     24 C24         6.0496   54.2227   16.8252 C.ar      1 UNK         0.0000 
     25 C25         6.2482   55.2000   15.8524 C.ar      1 UNK         0.0000 
     26 C26         5.4821   56.3767   15.8535 C.ar      1 UNK         0.0000 
     27 C27         4.5207   56.5521   16.8570 C.ar      1 UNK         0.0000 
     28 C28         4.3310   55.5775   17.8395 C.ar      1 UNK         0.0000 
     29 Br29        3.4483   58.1289   16.8815 Br        1 UNK         0.0000 
     30 O30         5.6160   57.3819   14.9156 O.3       1 UNK         0.0000 
     31 C31         6.6006   57.2625   13.8933 C.3       1 UNK         0.0000 
     32 H32         6.7023   55.6928   26.6305 H         1 UNK         0.0000 
     33 H33         5.0988   55.2890   27.2211 H         1 UNK         0.0000 
     34 H34         6.3505   54.0337   27.1213 H         1 UNK         0.0000 
     35 H35         7.5042   54.7384   24.4130 H         1 UNK         0.0000 
     36 H36         6.8564   54.1396   22.1498 H         1 UNK         0.0000 
     37 H37         2.7455   53.7827   23.4294 H         1 UNK         0.0000 
     38 H38         3.4191   54.3777   25.6953 H         1 UNK         0.0000 
     39 H39         2.8020   53.3660   18.4417 H         1 UNK         0.0000 
     40 H40         2.2695   53.2962   21.0814 H         1 UNK         0.0000 
     41 H41         2.9566   51.9368   21.9188 H         1 UNK         0.0000 
     42 H42         0.6117   52.9668   19.6977 H         1 UNK         0.0000 
     43 H43        -1.5675   51.9892   19.1618 H         1 UNK         0.0000 
     44 H44        -1.7440   49.6042   18.5291 H         1 UNK         0.0000 
     45 H45         0.2899   48.2064   18.4177 H         1 UNK         0.0000 
     46 H46         3.3347   49.2551   18.1943 H         1 UNK         0.0000 
     47 H47         6.6487   53.3228   16.7953 H         1 UNK         0.0000 
     48 H48         7.0023   55.0214   15.1013 H         1 UNK         0.0000 
     49 H49         3.5855   55.7319   18.6077 H         1 UNK         0.0000 
     50 H50         6.5703   58.1491   13.2617 H         1 UNK         0.0000 
     51 H51         7.6057   57.1907   14.3134 H         1 UNK         0.0000 
     52 H52         6.4133   56.3969   13.2560 H         1 UNK         0.0000 
     53 H53         3.5631   52.0984   17.7555 H         1 UNK         0.0000 
@<TRIPOS>BOND
     1    1    2 1    
     2    1   32 1    
     3    1   33 1    
     4    1   34 1    
     5    2    7 ar   
     6    2    3 ar   
     7    3    4 ar   
     8    3   35 1    
     9    4    5 ar   
    10    4   36 1    
    11    5    6 ar   
    12    5    8 1    
    13    6    7 ar   
    14    6   37 1    
    15    7   38 1    
    16    8   15 1    
    17    8    9 2    
    18    9   10 1    
    19   10   11 1    
    20   10   12 1    
    21   10   23 1    
    22   12   13 1    
    23   12   39 1    
    24   12   53 1    
    25   13   14 1    
    26   13   15 1    
    27   13   16 1    
    28   15   40 1    
    29   15   41 1    
    30   16   21 ar   
    31   16   17 ar   
    32   17   18 ar   
    33   17   42 1    
    34   18   19 ar   
    35   18   43 1    
    36   19   20 ar   
    37   19   44 1    
    38   20   21 ar   
    39   20   45 1    
    40   21   22 1    
    41   22   46 1    
    42   23   28 ar   
    43   23   24 ar   
    44   24   25 ar   
    45   24   47 1    
    46   25   26 ar   
    47   25   48 1    
    48   26   27 ar   
    49   26   30 1    
    50   27   28 ar   
    51   27   29 1    
    52   28   49 1    
    53   30   31 1    
    54   31   50 1    
    55   31   51 1    
    56   31   52 1    
@<TRIPOS>SUBSTRUCTURE
     1 UNK         1 GROUP             0       ****    0 ROOT    
