ZINC04651761_1635
                    3D
 Schrodinger Suite 2024-2.
 39 41  0  0  1  0            999 V2000
    6.1159   54.3208   25.5752 C   0  0  0  0  0  0
    5.8890   54.4406   26.9443 C   0  0  0  0  0  0
    4.5862   54.3885   27.4340 C   0  0  0  0  0  0
    3.5088   54.2411   26.5630 C   0  0  0  0  0  0
    3.7332   54.1300   25.1926 C   0  0  0  0  0  0
    5.0421   54.1566   24.6888 C   0  0  0  0  0  0
    5.3204   53.9487   23.2198 C   0  0  0  0  0  0
    6.3044   53.2967   22.8817 O   0  0  0  0  0  0
    4.4294   54.4967   22.3612 N   0  0  0  0  0  0
    4.5942   54.4668   20.9569 N   0  0  0  0  0  0
    5.6332   55.0701   20.3209 C   0  0  0  0  0  0
    6.6506   55.4654   20.8918 O   0  0  0  0  0  0
    5.3909   55.3292   18.8033 C   0  0  2  0  0  0
    4.3241   55.5581   18.7374 H   0  0  0  0  0  0
    5.7067   54.0755   17.9427 C   0  0  2  0  0  0
    5.0435   53.2288   18.1313 H   0  0  0  0  0  0
    7.2060   53.6967   17.9707 C   0  0  0  0  0  0
    7.8657   54.7879   17.1148 C   0  0  0  0  0  0
    6.6712   55.7054   16.7734 C   0  0  1  0  0  0
    6.8640   56.3516   15.9158 H   0  0  0  0  0  0
    5.5795   54.6615   16.5403 C   0  0  0  0  0  0
    6.1470   56.4829   18.0231 C   0  0  2  0  0  0
    5.3676   57.1450   17.6408 H   0  0  0  0  0  0
    7.1046   57.5017   18.6907 C   0  0  0  0  0  0
    6.7044   58.0931   19.7156 O   0  0  0  0  0  0
    8.2007   57.7397   18.1365 O   0  5  0  0  0  0
    4.3043   54.4967   29.1339 Cl  0  0  0  0  0  0
    7.1314   54.3362   25.2039 H   0  0  0  0  0  0
    6.7193   54.5573   27.6262 H   0  0  0  0  0  0
    2.5012   54.1990   26.9499 H   0  0  0  0  0  0
    2.8854   53.9895   24.5370 H   0  0  0  0  0  0
    3.8757   55.2937   22.6386 H   0  0  0  0  0  0
    3.7130   54.3282   20.4820 H   0  0  0  0  0  0
    7.3718   52.7066   17.5425 H   0  0  0  0  0  0
    7.6167   53.6967   18.9769 H   0  0  0  0  0  0
    8.6709   55.2975   17.6439 H   0  0  0  0  0  0
    8.2972   54.3601   16.2086 H   0  0  0  0  0  0
    4.5987   55.0939   16.3296 H   0  0  0  0  0  0
    5.8141   53.9483   15.7463 H   0  0  0  0  0  0
  1  6  2  0  0  0
  1  2  1  0  0  0
  1 28  1  0  0  0
  2  3  2  0  0  0
  2 29  1  0  0  0
  3  4  1  0  0  0
  3 27  1  0  0  0
  4  5  2  0  0  0
  4 30  1  0  0  0
  5  6  1  0  0  0
  5 31  1  0  0  0
  6  7  1  0  0  0
  7  8  2  0  0  0
  7  9  1  0  0  0
  9 10  1  0  0  0
  9 32  1  0  0  0
 10 11  1  0  0  0
 10 33  1  0  0  0
 11 12  2  0  0  0
 11 13  1  0  0  0
 13 14  1  0  0  0
 13 22  1  0  0  0
 13 15  1  0  0  0
 15 16  1  0  0  0
 15 21  1  0  0  0
 15 17  1  0  0  0
 17 18  1  0  0  0
 17 34  1  0  0  0
 17 35  1  0  0  0
 18 19  1  0  0  0
 18 36  1  0  0  0
 18 37  1  0  0  0
 19 20  1  0  0  0
 19 21  1  0  0  0
 19 22  1  0  0  0
 21 38  1  0  0  0
 21 39  1  0  0  0
 22 23  1  0  0  0
 22 24  1  0  0  0
 24 25  2  0  0  0
 24 26  1  0  0  0
M  CHG  1  26  -1
M  END
> <i_i_glide_confnum>
5

> <i_i_glide_lignum>
1636

> <i_i_glide_posenum>
398

> <i_i_glide_rotatable_bonds>
6

> <i_m_Source_File_Index>
2138

> <b_m_subgroup_collapsed>
0

> <r_i_docking_score>
-5.62471

> <r_i_glide_ecoul>
-5.5306

> <r_i_glide_eff_state_penalty>
0

> <r_i_glide_einternal>
4.13358

> <r_i_glide_emodel>
-52.5204

> <r_i_glide_energy>
-36.2335

> <r_i_glide_erotb>
0.6698

> <r_i_glide_esite>
-0.0248491

> <r_i_glide_evdw>
-30.7029

> <r_i_glide_gscore>
-5.62471

> <r_i_glide_hbond>
-0.14614

> <r_i_glide_ligand_efficiency>
-0.244552

> <r_i_glide_ligand_efficiency_ln>
-1.3601

> <r_i_glide_ligand_efficiency_sa>
-0.695475

> <r_i_glide_lipo>
-1.98417

> <r_i_glide_metal>
0

> <r_i_glide_rewards>
-1.77461

> <s_i_glide_gridfile>
wee1_glide-grid

> <s_m_Source_File>
wee1_decoys_glide_SP.sdf

> <s_m_Source_Path>
/Users/zhangxujun/Desktop

> <s_m_entry_id>
2413

> <s_m_entry_name>
wee1_decoys_glide_SP.2138

> <s_m_subgroup_title>
wee1_decoys_glide_SP

> <s_m_subgroupid>
wee1_decoys_glide_SP


$$$$
