@<TRIPOS>MOLECULE
ZINC00623033_3638
52   56    1
SMALL
USER_CHARGES


@<TRIPOS>ATOM
      1 C1          5.6395   54.8568   20.8228 C.ar      1 UNK         0.0000 
      2 C2          5.1748   54.5043   19.5565 C.ar      1 UNK         0.0000 
      3 C3          4.3118   53.4200   19.4145 C.ar      1 UNK         0.0000 
      4 C4          3.9060   52.6893   20.5358 C.ar      1 UNK         0.0000 
      5 C5          4.3852   53.0497   21.8010 C.ar      1 UNK         0.0000 
      6 C6          5.2515   54.1298   21.9459 C.ar      1 UNK         0.0000 
      7 C7          2.9413   51.5160   20.3301 C.3       1 UNK         0.0000 
      8 O8          2.7041   50.7359   21.5099 O.3       1 UNK         0.0000 
      9 C9          1.7896   51.1491   22.4624 C.ar      1 UNK         0.0000 
     10 C10         1.5229   50.2548   23.4978 C.ar      1 UNK         0.0000 
     11 C11         0.6770   50.5938   24.5483 C.ar      1 UNK         0.0000 
     12 C12         0.0748   51.8497   24.5642 C.ar      1 UNK         0.0000 
     13 C13         0.2993   52.7338   23.5068 C.ar      1 UNK         0.0000 
     14 C14         1.1554   52.3972   22.4634 C.ar      1 UNK         0.0000 
     15 C15        -0.8647   52.2598   25.6973 C.3       1 UNK         0.0000 
     16 H16        -1.1252   53.2953   25.4971 H         1 UNK         0.0000 
     17 C17        -0.3212   52.1820   27.1446 C.ar      1 UNK         0.0000 
     18 C18         0.8892   52.4632   27.8605 C.ar      1 UNK         0.0000 
     19 N19         0.7635   52.1482   29.1469 N.2       1 UNK         0.0000 
     20 N20        -0.4795   51.6966   29.3111 N.pl3     1 UNK         0.0000 
     21 H21        -0.8409   51.3583   30.1947 H         1 UNK         0.0000 
     22 C22        -1.1505   51.6922   28.1356 C.ar      1 UNK         0.0000 
     23 O23        -2.4345   51.2293   28.0341 O.3       1 UNK         0.0000 
     24 C24        -2.8799   51.1290   26.7536 C.2       1 UNK         0.0000 
     25 C25        -2.2301   51.5465   25.6383 C.2       1 UNK         0.0000 
     26 C26        -2.8407   51.3874   24.3557 C.1       1 UNK         0.0000 
     27 N27        -3.3253   51.2969   23.3090 N.1       1 UNK         0.0000 
     28 N28        -4.0975   50.5091   26.8033 N.pl3     1 UNK         0.0000 
     29 C29         2.2068   53.0320   27.3840 C.ar      1 UNK         0.0000 
     30 C30         2.3022   53.6964   26.1587 C.ar      1 UNK         0.0000 
     31 C31         3.5113   54.2360   25.7224 C.ar      1 UNK         0.0000 
     32 C32         4.6444   54.1353   26.5254 C.ar      1 UNK         0.0000 
     33 C33         4.5716   53.4915   27.7577 C.ar      1 UNK         0.0000 
     34 C34         3.3623   52.9410   28.1801 C.ar      1 UNK         0.0000 
     35 Cl35        6.1403   54.8248   26.0004 Cl        1 UNK         0.0000 
     36 H36         6.3115   55.6956   20.9326 H         1 UNK         0.0000 
     37 H37         5.4863   55.0646   18.6869 H         1 UNK         0.0000 
     38 H38         3.9647   53.1408   18.4284 H         1 UNK         0.0000 
     39 H39         4.0855   52.4991   22.6758 H         1 UNK         0.0000 
     40 H40         5.6170   54.4027   22.9259 H         1 UNK         0.0000 
     41 H41         3.3826   50.8421   19.5934 H         1 UNK         0.0000 
     42 H42         2.0043   51.8631   19.8908 H         1 UNK         0.0000 
     43 H43         2.0057   49.2964   23.4991 H         1 UNK         0.0000 
     44 H44         0.5004   49.8869   25.3471 H         1 UNK         0.0000 
     45 H45        -0.1786   53.6972   23.5161 H         1 UNK         0.0000 
     46 H46         1.3341   53.1194   21.6805 H         1 UNK         0.0000 
     47 H47        -4.6206   50.3500   25.9555 H         1 UNK         0.0000 
     48 H48        -4.2984   49.9021   27.5859 H         1 UNK         0.0000 
     49 H49         1.4304   53.8409   25.5460 H         1 UNK         0.0000 
     50 H50         3.5616   54.7483   24.7732 H         1 UNK         0.0000 
     51 H51         5.4492   53.4111   28.3822 H         1 UNK         0.0000 
     52 H52         3.3348   52.4405   29.1373 H         1 UNK         0.0000 
@<TRIPOS>BOND
     1    1    6 ar   
     2    1    2 ar   
     3    1   36 1    
     4    2    3 ar   
     5    2   37 1    
     6    3    4 ar   
     7    3   38 1    
     8    4    5 ar   
     9    4    7 1    
    10    5    6 ar   
    11    5   39 1    
    12    6   40 1    
    13    7    8 1    
    14    7   41 1    
    15    7   42 1    
    16    8    9 1    
    17    9   14 ar   
    18    9   10 ar   
    19   10   11 ar   
    20   10   43 1    
    21   11   12 ar   
    22   11   44 1    
    23   12   13 ar   
    24   12   15 1    
    25   13   14 ar   
    26   13   45 1    
    27   14   46 1    
    28   15   16 1    
    29   15   25 1    
    30   15   17 1    
    31   17   22 ar   
    32   17   18 ar   
    33   18   19 ar   
    34   18   29 1    
    35   19   20 ar   
    36   20   21 1    
    37   20   22 ar   
    38   22   23 1    
    39   23   24 1    
    40   24   25 2    
    41   24   28 1    
    42   25   26 1    
    43   26   27 3    
    44   28   47 1    
    45   28   48 1    
    46   29   34 ar   
    47   29   30 ar   
    48   30   31 ar   
    49   30   49 1    
    50   31   32 ar   
    51   31   50 1    
    52   32   33 ar   
    53   32   35 1    
    54   33   34 ar   
    55   33   51 1    
    56   34   52 1    
@<TRIPOS>SUBSTRUCTURE
     1 UNK         1 GROUP             0       ****    0 ROOT    
