@<TRIPOS>MOLECULE
ZINC13391236_1939
55   57    1
SMALL
USER_CHARGES


@<TRIPOS>ATOM
      1 C1          1.9631   53.9282   24.2842 C.3       1 UNK         0.0000 
      2 C2          2.8453   53.8810   25.5300 C.ar      1 UNK         0.0000 
      3 C3          4.1338   54.4198   25.4507 C.ar      1 UNK         0.0000 
      4 C4          5.0091   54.3670   26.5430 C.ar      1 UNK         0.0000 
      5 C5          4.5571   53.7937   27.7385 C.ar      1 UNK         0.0000 
      6 C6          3.2690   53.2779   27.8393 C.ar      1 UNK         0.0000 
      7 C7          2.4004   53.3092   26.7386 C.ar      1 UNK         0.0000 
      8 N8          1.1066   52.7587   26.7678 N.am      1 UNK         0.0000 
      9 C9          0.3045   52.4573   27.8154 C.2       1 UNK         0.0000 
     10 O10         0.6370   52.5421   29.0024 O.2       1 UNK         0.0000 
     11 C11        -1.0887   51.9988   27.4505 C.ar      1 UNK         0.0000 
     12 C12        -1.8680   51.2979   28.3845 C.ar      1 UNK         0.0000 
     13 C13        -3.1668   50.8965   28.0732 C.ar      1 UNK         0.0000 
     14 C14        -3.7035   51.1676   26.8183 C.ar      1 UNK         0.0000 
     15 C15        -2.9422   51.8613   25.8751 C.ar      1 UNK         0.0000 
     16 C16        -1.6496   52.2786   26.1927 C.ar      1 UNK         0.0000 
     17 S17        -3.5911   52.1645   24.2405 S.o2      1 UNK         0.0000 
     18 O18        -5.0537   52.1953   24.3595 O.2       1 UNK         0.0000 
     19 O19        -2.8499   53.3013   23.6823 O.2       1 UNK         0.0000 
     20 N20        -3.1254   50.7256   23.3191 N.pl3     1 UNK         0.0000 
     21 C21        -1.7101   50.4593   22.9646 C.3       1 UNK         0.0000 
     22 C22        -1.5457   50.3742   21.4254 C.3       1 UNK         0.0000 
     23 H23        -0.5639   49.9363   21.2360 H         1 UNK         0.0000 
     24 C24        -2.5997   49.3906   20.8379 C.3       1 UNK         0.0000 
     25 C25        -4.0537   49.7215   21.2776 C.3       1 UNK         0.0000 
     26 H26        -4.2948   50.7243   20.9205 H         1 UNK         0.0000 
     27 C27        -4.1164   49.7465   22.8210 C.3       1 UNK         0.0000 
     28 C28        -5.0770   48.7403   20.6853 C.3       1 UNK         0.0000 
     29 C29        -1.5822   51.7703   20.7708 C.3       1 UNK         0.0000 
     30 C30         6.4053   54.8905   26.4341 C.2       1 UNK         0.0000 
     31 O31         7.2353   54.4972   27.2806 O.co2     1 UNK         0.0000 
     32 H32         1.0485   54.4874   24.4816 H         1 UNK         0.0000 
     33 H33         2.4657   54.3957   23.4340 H         1 UNK         0.0000 
     34 H34         1.6741   52.9200   23.9850 H         1 UNK         0.0000 
     35 H35         4.4751   54.8579   24.5210 H         1 UNK         0.0000 
     36 H36         5.2081   53.7341   28.6000 H         1 UNK         0.0000 
     37 H37         2.9860   52.8260   28.7754 H         1 UNK         0.0000 
     38 H38         0.7005   52.6368   25.8532 H         1 UNK         0.0000 
     39 H39        -1.4759   51.0514   29.3624 H         1 UNK         0.0000 
     40 H40        -3.7378   50.3363   28.7998 H         1 UNK         0.0000 
     41 H41        -4.6981   50.8220   26.5751 H         1 UNK         0.0000 
     42 H42        -1.0956   52.8288   25.4467 H         1 UNK         0.0000 
     43 H43        -1.0912   51.2567   23.3804 H         1 UNK         0.0000 
     44 H44        -1.4175   49.5318   23.4569 H         1 UNK         0.0000 
     45 H45        -2.5416   49.3717   19.7479 H         1 UNK         0.0000 
     46 H46        -2.3584   48.3729   21.1480 H         1 UNK         0.0000 
     47 H47        -3.8782   48.7768   23.2583 H         1 UNK         0.0000 
     48 H48        -5.1123   50.0241   23.1670 H         1 UNK         0.0000 
     49 H49        -4.8783   47.7166   21.0028 H         1 UNK         0.0000 
     50 H50        -6.0923   48.9937   20.9954 H         1 UNK         0.0000 
     51 H51        -5.0560   48.7600   19.5949 H         1 UNK         0.0000 
     52 H52        -2.5109   52.2958   20.9876 H         1 UNK         0.0000 
     53 H53        -0.7637   52.3934   21.1348 H         1 UNK         0.0000 
     54 H54        -1.4817   51.7034   19.6862 H         1 UNK         0.0000 
     55 O55         6.6814   55.6970   25.5154 O.co2     1 UNK         0.0000 
@<TRIPOS>BOND
     1    1    2 1    
     2    1   32 1    
     3    1   33 1    
     4    1   34 1    
     5    2    7 ar   
     6    2    3 ar   
     7    3    4 ar   
     8    3   35 1    
     9    4    5 ar   
    10    4   30 1    
    11    5    6 ar   
    12    5   36 1    
    13    6    7 ar   
    14    6   37 1    
    15    7    8 1    
    16    8    9 am   BACKBONE|DICT|INTERRES
    17    8   38 1    
    18    9   10 2    
    19    9   11 1    
    20   11   16 ar   
    21   11   12 ar   
    22   12   13 ar   
    23   12   39 1    
    24   13   14 ar   
    25   13   40 1    
    26   14   15 ar   
    27   14   41 1    
    28   15   16 ar   
    29   15   17 1    
    30   16   42 1    
    31   17   18 2    
    32   17   19 2    
    33   17   20 1    
    34   20   27 1    
    35   20   21 1    
    36   21   22 1    
    37   21   43 1    
    38   21   44 1    
    39   22   23 1    
    40   22   24 1    
    41   22   29 1    
    42   24   25 1    
    43   24   45 1    
    44   24   46 1    
    45   25   26 1    
    46   25   27 1    
    47   25   28 1    
    48   27   47 1    
    49   27   48 1    
    50   28   49 1    
    51   28   50 1    
    52   28   51 1    
    53   29   52 1    
    54   29   53 1    
    55   29   54 1    
    56   30   31 2    
    57   30   55 1    
@<TRIPOS>SUBSTRUCTURE
     1 UNK         1 GROUP             0       ****    0 ROOT    
