ZINC02245934_3361
                    3D
 Schrodinger Suite 2024-2.
 62 66  0  0  1  0            999 V2000
    4.3955   53.8845   21.1898 C   0  0  0  0  0  0
    3.3620   52.7632   21.1666 C   0  0  0  0  0  0
    3.4993   51.7589   20.2789 C   0  0  0  0  0  0
    2.5077   50.7176   20.2541 C   0  0  0  0  0  0
    1.4640   50.7294   21.1209 C   0  0  0  0  0  0
    1.3280   51.8220   22.1054 C   0  0  0  0  0  0
    0.3871   51.8207   22.9065 O   0  0  0  0  0  0
    2.2893   52.8281   22.0630 N   0  0  0  0  0  0
    2.0649   53.9707   22.9900 C   0  0  0  0  0  0
    2.6696   53.8494   24.3882 C   0  0  0  0  0  0
    1.9075   53.2973   25.4374 C   0  0  0  0  0  0
    2.3856   53.2967   26.7569 C   0  0  0  0  0  0
    3.6409   53.8473   26.9885 C   0  0  0  0  0  0
    4.3837   54.3913   25.9801 C   0  0  0  0  0  0
    3.9204   54.4271   24.6694 C   0  0  0  0  0  0
    5.5391   54.8955   26.4902 O   0  0  0  0  0  0
    5.5875   54.4501   27.8202 C   0  0  0  0  0  0
    4.3050   53.9932   28.1653 O   0  0  0  0  0  0
    0.4252   49.5697   21.0875 C   0  0  2  0  0  0
    0.4962   49.0718   22.0560 H   0  0  0  0  0  0
    0.8158   48.5261   20.0210 C   0  0  0  0  0  0
    1.8801   48.7156   19.2160 C   0  0  0  0  0  0
    2.7046   49.7777   19.3014 O   0  0  0  0  0  0
    2.3044   47.9376   18.1732 N   0  0  0  0  0  0
   -0.0191   47.3815   19.8279 C   0  0  0  0  0  0
   -0.6717   46.4375   19.6814 N   0  0  0  0  0  0
   -1.0408   49.9780   20.9097 C   0  0  0  0  0  0
   -1.3987   50.9065   19.9299 C   0  0  0  0  0  0
   -2.7461   51.1842   19.6596 C   0  0  0  0  0  0
   -3.7361   50.4965   20.3769 C   0  0  0  0  0  0
   -3.3957   49.5986   21.3988 C   0  0  0  0  0  0
   -2.0395   49.3497   21.6573 C   0  0  0  0  0  0
   -4.4331   48.9908   22.0823 O   0  0  0  0  0  0
   -4.1412   48.0978   23.1525 C   0  0  0  0  0  0
   -5.0609   50.7207   20.0813 O   0  0  0  0  0  0
   -5.5847   49.8483   19.0897 C   0  0  0  0  0  0
   -3.1667   52.0994   18.7102 O   0  0  0  0  0  0
   -2.2016   52.7488   17.8898 C   0  0  0  0  0  0
    5.0988   53.7919   20.3606 H   0  0  0  0  0  0
    3.9437   54.8729   21.0963 H   0  0  0  0  0  0
    4.9856   53.8338   22.1008 H   0  0  0  0  0  0
    4.3246   51.7046   19.5841 H   0  0  0  0  0  0
    2.4148   54.8961   22.5352 H   0  0  0  0  0  0
    0.9958   54.1541   23.1097 H   0  0  0  0  0  0
    0.9295   52.8847   25.2359 H   0  0  0  0  0  0
    1.7910   52.8826   27.5587 H   0  0  0  0  0  0
    4.5010   54.9028   23.8987 H   0  0  0  0  0  0
    5.9037   55.2568   28.4826 H   0  0  0  0  0  0
    6.2932   53.6191   27.8957 H   0  0  0  0  0  0
    1.8032   47.1075   17.8976 H   0  0  0  0  0  0
    2.9741   48.3318   17.5099 H   0  0  0  0  0  0
   -0.6104   51.3802   19.3655 H   0  0  0  0  0  0
   -1.7460   48.6363   22.4116 H   0  0  0  0  0  0
   -5.0755   47.7299   23.5766 H   0  0  0  0  0  0
   -3.5715   47.2328   22.8093 H   0  0  0  0  0  0
   -3.5915   48.5975   23.9525 H   0  0  0  0  0  0
   -6.6277   50.1016   18.9023 H   0  0  0  0  0  0
   -5.0415   49.9414   18.1464 H   0  0  0  0  0  0
   -5.5437   48.8053   19.4126 H   0  0  0  0  0  0
   -2.7087   53.4326   17.2080 H   0  0  0  0  0  0
   -1.6454   52.0306   17.2858 H   0  0  0  0  0  0
   -1.4978   53.3354   18.4810 H   0  0  0  0  0  0
  1  2  1  0  0  0
  1 39  1  0  0  0
  1 40  1  0  0  0
  1 41  1  0  0  0
  2  8  1  0  0  0
  2  3  2  0  0  0
  3  4  1  0  0  0
  3 42  1  0  0  0
  4 23  1  0  0  0
  4  5  2  0  0  0
  5  6  1  0  0  0
  5 19  1  0  0  0
  6  7  2  0  0  0
  6  8  1  0  0  0
  8  9  1  0  0  0
  9 10  1  0  0  0
  9 43  1  0  0  0
  9 44  1  0  0  0
 10 15  2  0  0  0
 10 11  1  0  0  0
 11 12  2  0  0  0
 11 45  1  0  0  0
 12 13  1  0  0  0
 12 46  1  0  0  0
 13 18  1  0  0  0
 13 14  2  0  0  0
 14 15  1  0  0  0
 14 16  1  0  0  0
 15 47  1  0  0  0
 16 17  1  0  0  0
 17 18  1  0  0  0
 17 48  1  0  0  0
 17 49  1  0  0  0
 19 20  1  0  0  0
 19 21  1  0  0  0
 19 27  1  0  0  0
 21 22  2  0  0  0
 21 25  1  0  0  0
 22 23  1  0  0  0
 22 24  1  0  0  0
 24 50  1  0  0  0
 24 51  1  0  0  0
 25 26  3  0  0  0
 27 32  2  0  0  0
 27 28  1  0  0  0
 28 29  2  0  0  0
 28 52  1  0  0  0
 29 30  1  0  0  0
 29 37  1  0  0  0
 30 31  2  0  0  0
 30 35  1  0  0  0
 31 32  1  0  0  0
 31 33  1  0  0  0
 32 53  1  0  0  0
 33 34  1  0  0  0
 34 54  1  0  0  0
 34 55  1  0  0  0
 34 56  1  0  0  0
 35 36  1  0  0  0
 36 57  1  0  0  0
 36 58  1  0  0  0
 36 59  1  0  0  0
 37 38  1  0  0  0
 38 60  1  0  0  0
 38 61  1  0  0  0
 38 62  1  0  0  0
M  END
> <i_i_glide_confnum>
1

> <i_i_glide_lignum>
3362

> <i_i_glide_posenum>
379

> <i_i_glide_rotatable_bonds>
7

> <i_m_Source_File_Index>
1373

> <b_m_subgroup_collapsed>
0

> <r_i_docking_score>
-5.28226

> <r_i_glide_ecoul>
-6.88058

> <r_i_glide_eff_state_penalty>
0

> <r_i_glide_einternal>
1.403

> <r_i_glide_emodel>
-57.5578

> <r_i_glide_energy>
-43.8585

> <r_i_glide_erotb>
0.241883

> <r_i_glide_esite>
-0.103214

> <r_i_glide_evdw>
-36.9779

> <r_i_glide_gscore>
-5.28226

> <r_i_glide_hbond>
-0.241738

> <r_i_glide_ligand_efficiency>
-0.142764

> <r_i_glide_ligand_efficiency_ln>
-1.1456

> <r_i_glide_ligand_efficiency_sa>
-0.475721

> <r_i_glide_lipo>
-1.68243

> <r_i_glide_metal>
0

> <r_i_glide_rewards>
-0.615778

> <s_i_glide_gridfile>
wee1_glide-grid

> <s_m_Source_File>
wee1_decoys_glide_SP.sdf

> <s_m_Source_Path>
/Users/zhangxujun/Desktop

> <s_m_entry_id>
1648

> <s_m_entry_name>
wee1_decoys_glide_SP.1373

> <s_m_subgroup_title>
wee1_decoys_glide_SP

> <s_m_subgroupid>
wee1_decoys_glide_SP


$$$$
