@<TRIPOS>MOLECULE
ZINC36072010_4639
68   72    1
SMALL
USER_CHARGES


@<TRIPOS>ATOM
      1 C1          1.6028   52.9995   21.7431 C.3       1 UNK         0.0000 
      2 C2          1.1309   52.0476   22.8227 C.ar      1 UNK         0.0000 
      3 C3          1.4878   50.7049   22.7558 C.ar      1 UNK         0.0000 
      4 C4          1.0828   49.8308   23.7573 C.ar      1 UNK         0.0000 
      5 C5          0.3385   50.2808   24.8512 C.ar      1 UNK         0.0000 
      6 C6         -0.0388   51.6384   24.9215 C.ar      1 UNK         0.0000 
      7 C7          0.3594   52.5050   23.8926 C.ar      1 UNK         0.0000 
      8 C8         -0.9262   52.2089   26.0479 C.3       1 UNK         0.0000 
      9 H9         -1.0898   53.2577   25.8087 H         1 UNK         0.0000 
     10 C10        -2.3586   51.5999   26.1130 C.2       1 UNK         0.0000 
     11 C11        -2.8702   51.1760   27.3075 C.2       1 UNK         0.0000 
     12 N12        -2.2094   51.2967   28.4904 N.2       1 UNK         0.0000 
     13 C13        -1.0201   51.7520   28.4945 C.2       1 UNK         0.0000 
     14 N14        -0.2786   52.2035   27.4017 N.pl3     1 UNK         0.0000 
     15 C15         0.9040   52.8547   27.7478 C.2       1 UNK         0.0000 
     16 C16         1.1220   52.8488   29.0755 C.2       1 UNK         0.0000 
     17 S17        -0.1523   52.0968   30.0005 S.3       1 UNK         0.0000 
     18 C18         1.7937   53.5481   26.8298 C.2       1 UNK         0.0000 
     19 C19         3.0940   53.8444   27.0060 C.2       1 UNK         0.0000 
     20 O20         3.9063   53.5618   27.9645 O.co2     1 UNK         0.0000 
     21 N21         3.7066   54.6033   26.0412 N.pl3     1 UNK         0.0000 
     22 C22         5.0833   55.0384   25.8659 C.3       1 UNK         0.0000 
     23 C23         5.7636   54.3502   24.6824 C.3       1 UNK         0.0000 
     24 H24         5.8950   53.2968   24.9155 H         1 UNK         0.0000 
     25 C25         7.0537   55.0256   24.2463 C.3       1 UNK         0.0000 
     26 C26         7.1047   54.8152   22.7453 C.3       1 UNK         0.0000 
     27 C27         5.7187   54.2949   22.3674 C.3       1 UNK         0.0000 
     28 O28         4.9299   54.4894   23.5332 O.3       1 UNK         0.0000 
     29 C29        -4.2571   50.5898   27.5582 C.3       1 UNK         0.0000 
     30 C30        -3.0857   51.5090   24.8671 C.2       1 UNK         0.0000 
     31 O31        -3.3599   52.5061   24.1967 O.2       1 UNK         0.0000 
     32 N32        -3.3680   50.2367   24.5203 N.am      1 UNK         0.0000 
     33 C33        -4.0967   49.7886   23.4107 C.ar      1 UNK         0.0000 
     34 C34        -5.1844   50.4960   22.8817 C.ar      1 UNK         0.0000 
     35 C35        -5.8849   49.9807   21.7934 C.ar      1 UNK         0.0000 
     36 C36        -5.5046   48.7585   21.2448 C.ar      1 UNK         0.0000 
     37 C37        -4.4345   48.0421   21.7787 C.ar      1 UNK         0.0000 
     38 C38        -3.7341   48.5547   22.8687 C.ar      1 UNK         0.0000 
     39 C39        -0.0216   49.2720   25.9316 C.3       1 UNK         0.0000 
     40 H40         2.6377   52.7847   21.4688 H         1 UNK         0.0000 
     41 H41         0.9887   52.8968   20.8474 H         1 UNK         0.0000 
     42 H42         1.5789   54.0359   22.0837 H         1 UNK         0.0000 
     43 H43         2.0805   50.3367   21.9298 H         1 UNK         0.0000 
     44 H44         1.3687   48.7955   23.6812 H         1 UNK         0.0000 
     45 H45         0.0749   53.5456   23.9266 H         1 UNK         0.0000 
     46 H46         1.9555   53.3032   29.5884 H         1 UNK         0.0000 
     47 H47         1.3431   53.9046   25.9188 H         1 UNK         0.0000 
     48 H48         3.1593   54.7936   25.2161 H         1 UNK         0.0000 
     49 H49         5.6617   54.8953   26.7793 H         1 UNK         0.0000 
     50 H50         5.0597   56.1090   25.6816 H         1 UNK         0.0000 
     51 H51         7.9018   54.6354   24.8111 H         1 UNK         0.0000 
     52 H52         7.0229   56.0964   24.4591 H         1 UNK         0.0000 
     53 H53         7.8809   54.0969   22.4820 H         1 UNK         0.0000 
     54 H54         7.3357   55.7479   22.2281 H         1 UNK         0.0000 
     55 H55         5.7252   53.2335   22.1118 H         1 UNK         0.0000 
     56 H56         5.2823   54.8242   21.5195 H         1 UNK         0.0000 
     57 H57        -4.9096   50.6445   26.6899 H         1 UNK         0.0000 
     58 H58        -4.1638   49.5421   27.8477 H         1 UNK         0.0000 
     59 H59        -4.7611   51.1205   28.3684 H         1 UNK         0.0000 
     60 H60        -2.9406   49.5209   25.0887 H         1 UNK         0.0000 
     61 H61        -5.4969   51.4383   23.3091 H         1 UNK         0.0000 
     62 H62        -6.7196   50.5293   21.3793 H         1 UNK         0.0000 
     63 H63        -6.0478   48.3614   20.3990 H         1 UNK         0.0000 
     64 H64        -4.1498   47.0935   21.3490 H         1 UNK         0.0000 
     65 H65        -2.9056   47.9965   23.2816 H         1 UNK         0.0000 
     66 H66         0.3327   48.2712   25.6839 H         1 UNK         0.0000 
     67 H67         0.4243   49.5605   26.8815 H         1 UNK         0.0000 
     68 H68        -1.0970   49.2077   26.0818 H         1 UNK         0.0000 
@<TRIPOS>BOND
     1    1    2 1    
     2    1   40 1    
     3    1   41 1    
     4    1   42 1    
     5    2    7 ar   
     6    2    3 ar   
     7    3    4 ar   
     8    3   43 1    
     9    4    5 ar   
    10    4   44 1    
    11    5    6 ar   
    12    5   39 1    
    13    6    7 ar   
    14    6    8 1    
    15    7   45 1    
    16    8    9 1    
    17    8   14 1    
    18    8   10 1    
    19   10   11 2    
    20   10   30 1    
    21   11   12 1    
    22   11   29 1    
    23   12   13 2    
    24   13   17 1    
    25   13   14 1    
    26   14   15 1    
    27   15   16 2    
    28   15   18 1    
    29   16   17 1    
    30   16   46 1    
    31   18   19 2    
    32   18   47 1    
    33   19   20 1    
    34   19   21 1    
    35   21   22 1    
    36   21   48 1    
    37   22   23 1    
    38   22   49 1    
    39   22   50 1    
    40   23   24 1    
    41   23   28 1    
    42   23   25 1    
    43   25   26 1    
    44   25   51 1    
    45   25   52 1    
    46   26   27 1    
    47   26   53 1    
    48   26   54 1    
    49   27   28 1    
    50   27   55 1    
    51   27   56 1    
    52   29   57 1    
    53   29   58 1    
    54   29   59 1    
    55   30   31 2    
    56   30   32 am   BACKBONE|DICT|INTERRES
    57   32   33 1    
    58   32   60 1    
    59   33   38 ar   
    60   33   34 ar   
    61   34   35 ar   
    62   34   61 1    
    63   35   36 ar   
    64   35   62 1    
    65   36   37 ar   
    66   36   63 1    
    67   37   38 ar   
    68   37   64 1    
    69   38   65 1    
    70   39   66 1    
    71   39   67 1    
    72   39   68 1    
@<TRIPOS>SUBSTRUCTURE
     1 UNK         1 GROUP             0       ****    0 ROOT    
