@<TRIPOS>MOLECULE
ZINC22023832_3382
63   66    1
SMALL
USER_CHARGES


@<TRIPOS>ATOM
      1 C1         -4.1972   48.6378   23.1333 C.3       1 UNK         0.0000 
      2 N2         -3.0295   48.9960   23.9304 N.pl3     1 UNK         0.0000 
      3 C3         -2.4071   50.2222   23.8811 C.ar      1 UNK         0.0000 
      4 C4         -1.3363   50.2462   24.7558 C.ar      1 UNK         0.0000 
      5 C5         -1.3098   48.9832   25.3561 C.ar      1 UNK         0.0000 
      6 C6         -2.3961   48.2290   24.8979 C.ar      1 UNK         0.0000 
      7 C7         -2.7402   46.8666   25.2368 C.2       1 UNK         0.0000 
      8 O8         -3.2958   46.1009   24.4527 O.2       1 UNK         0.0000 
      9 N9         -2.4427   46.4970   26.4816 N.am      1 UNK         0.0000 
     10 S10        -0.1840   51.6200   25.0160 S.o2      1 UNK         0.0000 
     11 O11         1.1010   51.1922   24.4523 O.2       1 UNK         0.0000 
     12 O12        -0.8589   52.8330   24.5366 O.2       1 UNK         0.0000 
     13 N13        -0.0636   51.6374   26.7929 N.pl3     1 UNK         0.0000 
     14 C14        -0.8923   52.6050   27.5810 C.3       1 UNK         0.0000 
     15 C15        -0.1355   53.4324   28.6718 C.3       1 UNK         0.0000 
     16 N16         1.1408   52.8329   29.1412 N.pl3     1 UNK         0.0000 
     17 C17         1.2903   51.3938   28.8724 C.3       1 UNK         0.0000 
     18 C18         1.2141   51.1502   27.3683 C.3       1 UNK         0.0000 
     19 S19         2.5844   53.8501   29.3647 S.o2      1 UNK         0.0000 
     20 O20         2.1419   55.2156   29.6684 O.2       1 UNK         0.0000 
     21 O21         3.4987   53.1454   30.2722 O.2       1 UNK         0.0000 
     22 C22         3.4173   53.9470   27.7819 C.ar      1 UNK         0.0000 
     23 C23         4.8107   53.8976   27.7126 C.ar      1 UNK         0.0000 
     24 C24         5.4437   53.9733   26.4733 C.ar      1 UNK         0.0000 
     25 C25         4.6953   54.0967   25.2935 C.ar      1 UNK         0.0000 
     26 C26         3.2994   54.1556   25.3837 C.ar      1 UNK         0.0000 
     27 C27         2.6692   54.0967   26.6185 C.ar      1 UNK         0.0000 
     28 C28         5.4133   54.1124   23.9301 C.3       1 UNK         0.0000 
     29 C29         4.4670   54.1149   22.6914 C.3       1 UNK         0.0000 
     30 C30         5.2117   54.1644   21.3465 C.3       1 UNK         0.0000 
     31 C31         6.2435   55.3036   21.2911 C.3       1 UNK         0.0000 
     32 C32         7.2175   55.2475   22.4787 C.3       1 UNK         0.0000 
     33 C33         6.5125   55.2048   23.8487 C.3       1 UNK         0.0000 
     34 H34        -4.6179   49.5232   22.6558 H         1 UNK         0.0000 
     35 H35        -3.8953   47.9329   22.3579 H         1 UNK         0.0000 
     36 H36        -4.9559   48.1832   23.7718 H         1 UNK         0.0000 
     37 H37        -2.7690   50.9866   23.2098 H         1 UNK         0.0000 
     38 H38        -0.5828   48.6531   26.0876 H         1 UNK         0.0000 
     39 H39        -2.7003   45.5883   26.8329 H         1 UNK         0.0000 
     40 H40        -2.0737   47.1867   27.1412 H         1 UNK         0.0000 
     41 H41        -1.3553   53.2961   26.8811 H         1 UNK         0.0000 
     42 H42        -1.7194   52.0435   28.0161 H         1 UNK         0.0000 
     43 H43        -0.7577   53.5669   29.5571 H         1 UNK         0.0000 
     44 H44         0.0703   54.4336   28.2937 H         1 UNK         0.0000 
     45 H45         0.4638   50.8969   29.3795 H         1 UNK         0.0000 
     46 H46         2.2269   51.0367   29.2959 H         1 UNK         0.0000 
     47 H47         1.2831   50.0796   27.1846 H         1 UNK         0.0000 
     48 H48         2.0175   51.6967   26.8837 H         1 UNK         0.0000 
     49 H49         5.4029   53.7923   28.6104 H         1 UNK         0.0000 
     50 H50         6.5204   53.9048   26.4345 H         1 UNK         0.0000 
     51 H51         2.6734   54.2392   24.5093 H         1 UNK         0.0000 
     52 H52         1.5918   54.1392   26.6543 H         1 UNK         0.0000 
     53 H53         5.9286   53.1534   23.9171 H         1 UNK         0.0000 
     54 H54         3.8687   53.2018   22.6869 H         1 UNK         0.0000 
     55 H55         3.7811   54.9597   22.7265 H         1 UNK         0.0000 
     56 H56         5.7007   53.2068   21.1749 H         1 UNK         0.0000 
     57 H57         4.4937   54.2780   20.5333 H         1 UNK         0.0000 
     58 H58         6.8006   55.2504   20.3551 H         1 UNK         0.0000 
     59 H59         5.7302   56.2651   21.2817 H         1 UNK         0.0000 
     60 H60         7.8523   54.3665   22.3896 H         1 UNK         0.0000 
     61 H61         7.8999   56.0968   22.4382 H         1 UNK         0.0000 
     62 H62         6.1020   56.1822   24.0866 H         1 UNK         0.0000 
     63 H63         7.2947   55.0009   24.5811 H         1 UNK         0.0000 
@<TRIPOS>BOND
     1    1    2 1    
     2    1   34 1    
     3    1   35 1    
     4    1   36 1    
     5    2    6 ar   
     6    2    3 ar   
     7    3    4 ar   
     8    3   37 1    
     9    4    5 ar   
    10    4   10 1    
    11    5    6 ar   
    12    5   38 1    
    13    6    7 1    
    14    7    8 2    
    15    7    9 am   BACKBONE|DICT|INTERRES
    16    9   39 1    
    17    9   40 1    
    18   10   11 2    
    19   10   12 2    
    20   10   13 1    
    21   13   18 1    
    22   13   14 1    
    23   14   15 1    
    24   14   41 1    
    25   14   42 1    
    26   15   16 1    
    27   15   43 1    
    28   15   44 1    
    29   16   17 1    
    30   16   19 1    
    31   17   18 1    
    32   17   45 1    
    33   17   46 1    
    34   18   47 1    
    35   18   48 1    
    36   19   20 2    
    37   19   21 2    
    38   19   22 1    
    39   22   27 ar   
    40   22   23 ar   
    41   23   24 ar   
    42   23   49 1    
    43   24   25 ar   
    44   24   50 1    
    45   25   26 ar   
    46   25   28 1    
    47   26   27 ar   
    48   26   51 1    
    49   27   52 1    
    50   28   33 1    
    51   28   29 1    
    52   28   53 1    
    53   29   30 1    
    54   29   54 1    
    55   29   55 1    
    56   30   31 1    
    57   30   56 1    
    58   30   57 1    
    59   31   32 1    
    60   31   58 1    
    61   31   59 1    
    62   32   33 1    
    63   32   60 1    
    64   32   61 1    
    65   33   62 1    
    66   33   63 1    
@<TRIPOS>SUBSTRUCTURE
     1 UNK         1 GROUP             0       ****    0 ROOT    
