ZINC39684600_789
                    3D
 Schrodinger Suite 2024-2.
 74 77  0  0  1  0            999 V2000
   -0.3037   48.0628   16.6795 C   0  0  0  0  0  0
   -0.3533   48.7195   18.0454 C   0  0  0  0  0  0
   -1.3055   49.7054   18.3085 C   0  0  0  0  0  0
   -1.3193   50.3449   19.5466 C   0  0  0  0  0  0
   -0.3931   49.9900   20.5266 C   0  0  0  0  0  0
    0.5535   48.9888   20.2632 C   0  0  0  0  0  0
    0.5741   48.3544   19.0258 C   0  0  0  0  0  0
   -0.3815   50.7135   21.7021 O   0  0  0  0  0  0
   -0.2013   50.1382   22.9499 C   0  0  0  0  0  0
    0.3513   50.8925   24.0055 C   0  0  0  0  0  0
    0.3508   50.3176   25.2855 C   0  0  0  0  0  0
   -0.1030   49.0142   25.4720 C   0  0  0  0  0  0
   -0.5702   48.3116   24.3645 C   0  0  0  0  0  0
   -0.6307   48.8505   23.1202 N   0  0  0  0  0  0
    0.8733   52.3007   23.8306 C   0  0  0  0  0  0
    0.5006   53.1669   24.6221 O   0  0  0  0  0  0
    1.7536   52.5903   22.8401 N   0  0  0  0  0  0
    2.1994   53.9689   22.6225 C   0  0  0  0  0  0
    3.4428   53.8424   21.7290 C   0  0  2  0  0  0
    3.4154   54.6654   21.0247 H   0  0  0  0  0  0
    3.3044   52.4748   20.9931 C   0  0  0  0  0  0
    2.4804   51.6299   21.9989 C   0  0  0  0  0  0
    2.3951   52.5335   19.7211 C   0  0  0  0  0  0
    2.9650   53.4324   18.6032 C   0  0  0  0  0  0
    4.3566   52.8968   18.2108 N   0  3  0  0  0  0
    5.3100   52.6628   19.4003 C   0  0  0  0  0  0
    4.5987   51.7934   20.4810 C   0  0  0  0  0  0
    4.7886   54.0961   22.4609 C   0  0  0  0  0  0
    5.7240   54.5637   21.8226 O   0  0  0  0  0  0
    4.8658   53.8403   23.7786 N   0  0  0  0  0  0
    5.9308   54.1845   24.7536 C   0  0  1  0  0  0
    6.5549   53.2972   24.8495 H   0  0  0  0  0  0
    6.8852   55.3146   24.2850 C   0  0  0  0  0  0
    5.3057   54.4874   26.1678 C   0  0  0  0  0  0
    6.3504   54.9274   27.2241 C   0  0  0  0  0  0
    4.5849   53.2690   26.7501 C   0  0  0  0  0  0
    4.2302   55.5629   26.0141 C   0  0  0  0  0  0
   -0.4619   48.8061   15.8945 H   0  0  0  0  0  0
    0.6666   47.6123   16.4820 H   0  0  0  0  0  0
   -1.0732   47.2962   16.5922 H   0  0  0  0  0  0
   -2.0229   49.9901   17.5509 H   0  0  0  0  0  0
   -2.0360   51.1257   19.7433 H   0  0  0  0  0  0
    1.2903   48.7355   21.0135 H   0  0  0  0  0  0
    1.3297   47.6081   18.8254 H   0  0  0  0  0  0
    0.7103   50.8724   26.1430 H   0  0  0  0  0  0
   -0.0941   48.5577   26.4581 H   0  0  0  0  0  0
   -0.9343   47.3019   24.4772 H   0  0  0  0  0  0
    2.4010   54.5434   23.5297 H   0  0  0  0  0  0
    1.4198   54.4989   22.0817 H   0  0  0  0  0  0
    1.9143   50.8506   21.5065 H   0  0  0  0  0  0
    3.1055   51.0849   22.6913 H   0  0  0  0  0  0
    1.4040   52.8970   19.9866 H   0  0  0  0  0  0
    2.2050   51.5300   19.3306 H   0  0  0  0  0  0
    3.1022   54.4778   18.8828 H   0  0  0  0  0  0
    2.3615   53.3944   17.6959 H   0  0  0  0  0  0
    4.7935   53.5071   17.5339 H   0  0  0  0  0  0
    5.5955   53.6635   19.7028 H   0  0  0  0  0  0
    6.2017   52.1764   18.9951 H   0  0  0  0  0  0
    4.3708   50.8036   20.0815 H   0  0  0  0  0  0
    5.2845   51.6145   21.3086 H   0  0  0  0  0  0
    4.0694   53.3756   24.1869 H   0  0  0  0  0  0
    7.5916   55.6040   25.0514 H   0  0  0  0  0  0
    7.5045   54.9928   23.4469 H   0  0  0  0  0  0
    6.3489   56.2154   24.0019 H   0  0  0  0  0  0
    6.7162   55.9380   27.0444 H   0  0  0  0  0  0
    5.9218   54.9400   28.2287 H   0  0  0  0  0  0
    7.2095   54.2555   27.2522 H   0  0  0  0  0  0
    3.8094   52.8956   26.0841 H   0  0  0  0  0  0
    5.3154   52.4890   26.9231 H   0  0  0  0  0  0
    4.1076   53.4831   27.7079 H   0  0  0  0  0  0
    3.4652   55.2941   25.2908 H   0  0  0  0  0  0
    3.6869   55.6967   26.9476 H   0  0  0  0  0  0
    4.7043   56.4866   25.6818 H   0  0  0  0  0  0
    4.2610   51.9922   17.7582 H   0  0  0  0  0  0
  1  2  1  0  0  0
  1 38  1  0  0  0
  1 39  1  0  0  0
  1 40  1  0  0  0
  2  7  2  0  0  0
  2  3  1  0  0  0
  3  4  2  0  0  0
  3 41  1  0  0  0
  4  5  1  0  0  0
  4 42  1  0  0  0
  5  6  2  0  0  0
  5  8  1  0  0  0
  6  7  1  0  0  0
  6 43  1  0  0  0
  7 44  1  0  0  0
  8  9  1  0  0  0
  9 14  2  0  0  0
  9 10  1  0  0  0
 10 11  2  0  0  0
 10 15  1  0  0  0
 11 12  1  0  0  0
 11 45  1  0  0  0
 12 13  2  0  0  0
 12 46  1  0  0  0
 13 14  1  0  0  0
 13 47  1  0  0  0
 15 16  2  0  0  0
 15 17  1  0  0  0
 17 22  1  0  0  0
 17 18  1  0  0  0
 18 19  1  0  0  0
 18 48  1  0  0  0
 18 49  1  0  0  0
 19 20  1  0  0  0
 19 21  1  0  0  0
 19 28  1  0  0  0
 21 27  1  0  0  0
 21 22  1  0  0  0
 21 23  1  0  0  0
 22 50  1  0  0  0
 22 51  1  0  0  0
 23 24  1  0  0  0
 23 52  1  0  0  0
 23 53  1  0  0  0
 24 25  1  0  0  0
 24 54  1  0  0  0
 24 55  1  0  0  0
 25 26  1  0  0  0
 25 56  1  0  0  0
 25 74  1  0  0  0
 26 27  1  0  0  0
 26 57  1  0  0  0
 26 58  1  0  0  0
 27 59  1  0  0  0
 27 60  1  0  0  0
 28 29  2  0  0  0
 28 30  1  0  0  0
 30 31  1  0  0  0
 30 61  1  0  0  0
 31 32  1  0  0  0
 31 33  1  0  0  0
 31 34  1  0  0  0
 33 62  1  0  0  0
 33 63  1  0  0  0
 33 64  1  0  0  0
 34 35  1  0  0  0
 34 36  1  0  0  0
 34 37  1  0  0  0
 35 65  1  0  0  0
 35 66  1  0  0  0
 35 67  1  0  0  0
 36 68  1  0  0  0
 36 69  1  0  0  0
 36 70  1  0  0  0
 37 71  1  0  0  0
 37 72  1  0  0  0
 37 73  1  0  0  0
M  CHG  1  25   1
M  END
> <i_i_glide_confnum>
168

> <i_i_glide_lignum>
790

> <i_i_glide_posenum>
225

> <i_i_glide_rotatable_bonds>
8

> <i_m_Source_File_Index>
2750

> <b_m_subgroup_collapsed>
0

> <r_i_docking_score>
-3.91836

> <r_i_glide_ecoul>
-4.05209

> <r_i_glide_eff_state_penalty>
0

> <r_i_glide_einternal>
13.6825

> <r_i_glide_emodel>
-38.3508

> <r_i_glide_energy>
-33.4626

> <r_i_glide_erotb>
0.616879

> <r_i_glide_esite>
-0.0977988

> <r_i_glide_evdw>
-29.4105

> <r_i_glide_gscore>
-3.91836

> <r_i_glide_hbond>
-0.104476

> <r_i_glide_ligand_efficiency>
-0.111953

> <r_i_glide_ligand_efficiency_ln>
-0.860166

> <r_i_glide_ligand_efficiency_sa>
-0.366206

> <r_i_glide_lipo>
-1.45829

> <r_i_glide_metal>
0

> <r_i_glide_rewards>
-0.79633

> <s_i_glide_gridfile>
wee1_glide-grid

> <s_m_Source_File>
wee1_decoys_glide_SP.sdf

> <s_m_Source_Path>
/Users/zhangxujun/Desktop

> <s_m_entry_id>
3025

> <s_m_entry_name>
wee1_decoys_glide_SP.2750

> <s_m_subgroup_title>
wee1_decoys_glide_SP

> <s_m_subgroupid>
wee1_decoys_glide_SP


$$$$
