@<TRIPOS>MOLECULE
ZINC15276445_5678
67   71    1
SMALL
USER_CHARGES


@<TRIPOS>ATOM
      1 C1          0.5187   52.8455   30.9066 C.3       1 UNK         0.0000 
      2 O2          1.7532   53.3847   30.4407 O.3       1 UNK         0.0000 
      3 C3          2.0237   53.3996   29.0808 C.ar      1 UNK         0.0000 
      4 C4          1.1659   52.8604   28.1083 C.ar      1 UNK         0.0000 
      5 C5          1.5027   52.9010   26.7559 C.ar      1 UNK         0.0000 
      6 C6          2.6984   53.4899   26.3171 C.ar      1 UNK         0.0000 
      7 C7          3.5450   54.0096   27.3062 C.ar      1 UNK         0.0000 
      8 C8          3.2361   53.9718   28.6720 C.ar      1 UNK         0.0000 
      9 O9          4.0772   54.4894   29.6411 O.3       1 UNK         0.0000 
     10 C10         5.4212   54.8182   29.2812 C.3       1 UNK         0.0000 
     11 C11         3.0858   53.5636   24.8608 C.ar      1 UNK         0.0000 
     12 C12         2.2718   53.0888   23.8207 C.ar      1 UNK         0.0000 
     13 C13         2.7079   53.1880   22.4922 C.ar      1 UNK         0.0000 
     14 N14         3.9343   53.7844   22.2794 N.pl3     1 UNK         0.0000 
     15 C15         4.7308   54.2076   23.3497 C.ar      1 UNK         0.0000 
     16 N16         4.3183   54.0994   24.6103 N.2       1 UNK         0.0000 
     17 C17         5.9050   54.7315   22.7721 C.ar      1 UNK         0.0000 
     18 C18         5.6868   54.6704   21.3912 C.ar      1 UNK         0.0000 
     19 N19         4.5437   54.0607   21.0980 N.2       1 UNK         0.0000 
     20 C20         6.6171   55.2010   20.3926 C.2       1 UNK         0.0000 
     21 O21         7.4350   56.0973   20.6173 O.2       1 UNK         0.0000 
     22 O22         6.5175   54.5057   19.2414 O.3       1 UNK         0.0000 
     23 C23         7.4755   54.6362   18.2015 C.3       1 UNK         0.0000 
     24 C24         7.3958   53.3753   17.3089 C.3       1 UNK         0.0000 
     25 H25         7.2058   52.5158   17.9577 H         1 UNK         0.0000 
     26 C26         8.7536   53.1215   16.6240 C.3       1 UNK         0.0000 
     27 C27         8.7326   51.7988   15.8518 C.3       1 UNK         0.0000 
     28 C28         7.6249   51.8063   14.7877 C.3       1 UNK         0.0000 
     29 C29         6.2333   53.4256   16.2686 C.3       1 UNK         0.0000 
     30 H30         6.3989   54.2199   15.5371 H         1 UNK         0.0000 
     31 C31         4.8361   53.5743   16.9292 C.3       1 UNK         0.0000 
     32 C32         3.6673   53.4509   15.9396 C.3       1 UNK         0.0000 
     33 C33         3.7460   52.1318   15.1667 C.3       1 UNK         0.0000 
     34 C34         5.0889   51.9696   14.4433 C.3       1 UNK         0.0000 
     35 C35         1.8520   52.6185   21.3531 C.3       1 UNK         0.0000 
     36 F36         0.7060   53.2942   21.2839 F         1 UNK         0.0000 
     37 F37         2.4325   52.6317   20.1520 F         1 UNK         0.0000 
     38 F38         1.5544   51.3499   21.6400 F         1 UNK         0.0000 
     39 H39         0.4845   52.9008   31.9940 H         1 UNK         0.0000 
     40 H40        -0.3302   53.4102   30.5194 H         1 UNK         0.0000 
     41 H41         0.4062   51.7964   30.6283 H         1 UNK         0.0000 
     42 H42         0.2293   52.4016   28.3842 H         1 UNK         0.0000 
     43 H43         0.8038   52.4684   26.0574 H         1 UNK         0.0000 
     44 H44         4.4690   54.4595   26.9944 H         1 UNK         0.0000 
     45 H45         5.9036   55.2970   30.1230 H         1 UNK         0.0000 
     46 H46         5.9877   53.9216   29.0237 H         1 UNK         0.0000 
     47 H47         5.5051   55.5158   28.4535 H         1 UNK         0.0000 
     48 H48         1.3141   52.6365   24.0201 H         1 UNK         0.0000 
     49 H49         6.7694   55.1561   23.2654 H         1 UNK         0.0000 
     50 H50         8.4737   54.7196   18.6412 H         1 UNK         0.0000 
     51 H51         7.3018   55.5459   17.6253 H         1 UNK         0.0000 
     52 H52         9.5466   53.0822   17.3742 H         1 UNK         0.0000 
     53 H53         9.0229   53.9574   15.9754 H         1 UNK         0.0000 
     54 H54         8.5863   50.9606   16.5366 H         1 UNK         0.0000 
     55 H55         9.6972   51.6279   15.3747 H         1 UNK         0.0000 
     56 H56         7.5473   50.8206   14.3235 H         1 UNK         0.0000 
     57 H57         7.7825   52.5612   14.0127 H         1 UNK         0.0000 
     58 H58         4.7515   54.5447   17.4196 H         1 UNK         0.0000 
     59 H59         4.7172   52.8215   17.7118 H         1 UNK         0.0000 
     60 H60         2.7196   53.5153   16.4767 H         1 UNK         0.0000 
     61 H61         3.6823   54.2927   15.2437 H         1 UNK         0.0000 
     62 H62         3.5894   51.2968   15.8506 H         1 UNK         0.0000 
     63 H63         2.9311   52.0762   14.4433 H         1 UNK         0.0000 
     64 H64         5.1541   50.9627   14.0278 H         1 UNK         0.0000 
     65 H65         5.2473   52.7108   13.6595 H         1 UNK         0.0000 
     66 N66         6.2564   52.0976   15.4512 N.4       1 UNK         0.0000 
     67 H67         6.1021   51.3750   16.1446 H         1 UNK         0.0000 
@<TRIPOS>BOND
     1    1    2 1    
     2    1   39 1    
     3    1   40 1    
     4    1   41 1    
     5    2    3 1    
     6    3    8 ar   
     7    3    4 ar   
     8    4    5 ar   
     9    4   42 1    
    10    5    6 ar   
    11    5   43 1    
    12    6    7 ar   
    13    6   11 1    
    14    7    8 ar   
    15    7   44 1    
    16    8    9 1    
    17    9   10 1    
    18   10   45 1    
    19   10   46 1    
    20   10   47 1    
    21   11   16 ar   
    22   11   12 ar   
    23   12   13 ar   
    24   12   48 1    
    25   13   14 ar   
    26   13   35 1    
    27   14   19 ar   
    28   14   15 ar   
    29   15   16 ar   
    30   15   17 ar   
    31   17   18 ar   
    32   17   49 1    
    33   18   19 ar   
    34   18   20 1    
    35   20   21 2    
    36   20   22 1    
    37   22   23 1    
    38   23   24 1    
    39   23   50 1    
    40   23   51 1    
    41   24   25 1    
    42   24   29 1    
    43   24   26 1    
    44   26   27 1    
    45   26   52 1    
    46   26   53 1    
    47   27   28 1    
    48   27   54 1    
    49   27   55 1    
    50   28   56 1    
    51   28   57 1    
    52   28   66 1    
    53   29   30 1    
    54   29   31 1    
    55   29   66 1    
    56   31   32 1    
    57   31   58 1    
    58   31   59 1    
    59   32   33 1    
    60   32   60 1    
    61   32   61 1    
    62   33   34 1    
    63   33   62 1    
    64   33   63 1    
    65   34   64 1    
    66   34   65 1    
    67   34   66 1    
    68   35   36 1    
    69   35   37 1    
    70   35   38 1    
    71   66   67 1    
@<TRIPOS>SUBSTRUCTURE
     1 UNK         1 GROUP             0       ****    0 ROOT    
