@<TRIPOS>MOLECULE
ZINC20181690_5987
59   63    1
SMALL
USER_CHARGES


@<TRIPOS>ATOM
      1 C1          5.1860   54.4565   23.5579 C.3       1 UNK         0.0000 
      2 C2          5.3475   54.4741   25.0656 C.ar      1 UNK         0.0000 
      3 C3          6.6241   54.4768   25.6305 C.ar      1 UNK         0.0000 
      4 C4          6.7728   54.4753   27.0171 C.ar      1 UNK         0.0000 
      5 C5          5.6530   54.4864   27.8443 C.ar      1 UNK         0.0000 
      6 C6          4.3713   54.4981   27.2892 C.ar      1 UNK         0.0000 
      7 C7          4.2242   54.4961   25.8969 C.ar      1 UNK         0.0000 
      8 C8          3.1584   54.5996   28.2002 C.3       1 UNK         0.0000 
      9 S9          2.7032   52.9912   28.9222 S.3       1 UNK         0.0000 
     10 C10         1.6276   52.3379   27.6816 C.ar      1 UNK         0.0000 
     11 N11         0.9651   51.2130   27.8974 N.2       1 UNK         0.0000 
     12 C12         0.3040   51.0420   26.7844 C.ar      1 UNK         0.0000 
     13 N13         0.5724   52.0643   25.9132 N.pl3     1 UNK         0.0000 
     14 N14         1.4245   52.9033   26.5062 N.2       1 UNK         0.0000 
     15 C15         0.0373   52.2257   24.5582 C.3       1 UNK         0.0000 
     16 H16        -0.2410   53.2786   24.4664 H         1 UNK         0.0000 
     17 C17        -1.2205   51.3252   24.4449 C.2       1 UNK         0.0000 
     18 C18        -1.4869   50.3406   25.3599 C.2       1 UNK         0.0000 
     19 N19        -0.6950   50.1392   26.4817 N.pl3     1 UNK         0.0000 
     20 C20        -2.6540   49.3574   25.3423 C.3       1 UNK         0.0000 
     21 C21        -1.9953   51.5689   23.2410 C.2       1 UNK         0.0000 
     22 O22        -2.2725   52.7148   22.8822 O.2       1 UNK         0.0000 
     23 N23        -2.2797   50.4683   22.5139 N.am      1 UNK         0.0000 
     24 C24        -2.8871   50.4448   21.2514 C.ar      1 UNK         0.0000 
     25 C25        -2.4964   51.3174   20.2266 C.ar      1 UNK         0.0000 
     26 C26        -3.1159   51.2463   18.9819 C.ar      1 UNK         0.0000 
     27 C27        -4.1134   50.2985   18.7626 C.ar      1 UNK         0.0000 
     28 C28        -4.4898   49.4142   19.7723 C.ar      1 UNK         0.0000 
     29 C29        -3.8693   49.4812   21.0174 C.ar      1 UNK         0.0000 
     30 C30         1.1033   51.9780   23.4739 C.ar      1 UNK         0.0000 
     31 C31         1.6621   53.0656   22.7890 C.ar      1 UNK         0.0000 
     32 C32         2.5830   52.8597   21.7614 C.ar      1 UNK         0.0000 
     33 C33         2.9582   51.5663   21.4036 C.ar      1 UNK         0.0000 
     34 C34         2.4175   50.4770   22.0840 C.ar      1 UNK         0.0000 
     35 C35         1.5032   50.6779   23.1184 C.ar      1 UNK         0.0000 
     36 F36         0.9961   49.5983   23.7541 F         1 UNK         0.0000 
     37 H37         5.9734   55.0385   23.0778 H         1 UNK         0.0000 
     38 H38         5.2377   53.4341   23.1825 H         1 UNK         0.0000 
     39 H39         4.2349   54.8962   23.2556 H         1 UNK         0.0000 
     40 H40         7.4960   54.4674   24.9921 H         1 UNK         0.0000 
     41 H41         7.7569   54.4711   27.4608 H         1 UNK         0.0000 
     42 H42         5.7871   54.5033   28.9167 H         1 UNK         0.0000 
     43 H43         3.2389   54.5182   25.4558 H         1 UNK         0.0000 
     44 H44         2.3134   55.0529   27.6815 H         1 UNK         0.0000 
     45 H45         3.3725   55.2891   29.0172 H         1 UNK         0.0000 
     46 H46        -0.9992   49.4636   27.1896 H         1 UNK         0.0000 
     47 H47        -3.4521   49.6421   24.6588 H         1 UNK         0.0000 
     48 H48        -2.3015   48.3611   25.0739 H         1 UNK         0.0000 
     49 H49        -3.1123   49.2899   26.3314 H         1 UNK         0.0000 
     50 H50        -2.1220   49.5769   22.9575 H         1 UNK         0.0000 
     51 H51        -1.7102   52.0405   20.3894 H         1 UNK         0.0000 
     52 H52        -2.8182   51.9145   18.1874 H         1 UNK         0.0000 
     53 H53        -4.5933   50.2415   17.7964 H         1 UNK         0.0000 
     54 H54        -5.2583   48.6776   19.5891 H         1 UNK         0.0000 
     55 H55        -4.1647   48.7941   21.7973 H         1 UNK         0.0000 
     56 H56         1.3748   54.0777   23.0359 H         1 UNK         0.0000 
     57 H57         2.9950   53.7055   21.2299 H         1 UNK         0.0000 
     58 H58         3.6626   51.4076   20.5989 H         1 UNK         0.0000 
     59 H59         2.7059   49.4719   21.8136 H         1 UNK         0.0000 
@<TRIPOS>BOND
     1    1    2 1    
     2    1   37 1    
     3    1   38 1    
     4    1   39 1    
     5    2    7 ar   
     6    2    3 ar   
     7    3    4 ar   
     8    3   40 1    
     9    4    5 ar   
    10    4   41 1    
    11    5    6 ar   
    12    5   42 1    
    13    6    7 ar   
    14    6    8 1    
    15    7   43 1    
    16    8    9 1    
    17    8   44 1    
    18    8   45 1    
    19    9   10 1    
    20   10   14 ar   
    21   10   11 ar   
    22   11   12 ar   
    23   12   19 1    
    24   12   13 ar   
    25   13   14 ar   
    26   13   15 1    
    27   15   16 1    
    28   15   17 1    
    29   15   30 1    
    30   17   18 2    
    31   17   21 1    
    32   18   19 1    
    33   18   20 1    
    34   19   46 1    
    35   20   47 1    
    36   20   48 1    
    37   20   49 1    
    38   21   22 2    
    39   21   23 am   BACKBONE|DICT|INTERRES
    40   23   24 1    
    41   23   50 1    
    42   24   29 ar   
    43   24   25 ar   
    44   25   26 ar   
    45   25   51 1    
    46   26   27 ar   
    47   26   52 1    
    48   27   28 ar   
    49   27   53 1    
    50   28   29 ar   
    51   28   54 1    
    52   29   55 1    
    53   30   35 ar   
    54   30   31 ar   
    55   31   32 ar   
    56   31   56 1    
    57   32   33 ar   
    58   32   57 1    
    59   33   34 ar   
    60   33   58 1    
    61   34   35 ar   
    62   34   59 1    
    63   35   36 1    
@<TRIPOS>SUBSTRUCTURE
     1 UNK         1 GROUP             0       ****    0 ROOT    
