@<TRIPOS>MOLECULE
ZINC37333544_1835
40   41    1
SMALL
USER_CHARGES


@<TRIPOS>ATOM
      1 C1          3.3794   53.3542   20.5082 C.3       1 UNK         0.0000 
      2 N2          3.3184   53.3273   21.9745 N.pl3     1 UNK         0.0000 
      3 C3          2.3713   52.4072   22.5045 C.ar      1 UNK         0.0000 
      4 C4          1.4684   52.8707   23.4723 C.ar      1 UNK         0.0000 
      5 C5          0.5673   52.0058   24.0957 C.ar      1 UNK         0.0000 
      6 C6          0.5391   50.6548   23.7487 C.ar      1 UNK         0.0000 
      7 C7          1.4026   50.1825   22.7603 C.ar      1 UNK         0.0000 
      8 C8          2.2992   51.0440   22.1256 C.ar      1 UNK         0.0000 
      9 N9          3.1044   50.4959   21.1254 N.pl3     1 UNK         0.0000 
     10 S10        -0.6124   49.5358   24.5498 S.o2      1 UNK         0.0000 
     11 O11        -1.8271   50.3087   24.8299 O.2       1 UNK         0.0000 
     12 O12        -0.6653   48.2950   23.7668 O.2       1 UNK         0.0000 
     13 N13         0.1140   49.1469   26.0817 N.pl3     1 UNK         0.0000 
     14 C14         4.5875   53.4739   22.7370 C.3       1 UNK         0.0000 
     15 C15         5.6209   54.3674   21.9938 C.3       1 UNK         0.0000 
     16 C16         6.9135   54.5757   22.8104 C.3       1 UNK         0.0000 
     17 C17         6.6343   55.1180   24.2236 C.3       1 UNK         0.0000 
     18 C18         5.5959   54.2679   24.9739 C.3       1 UNK         0.0000 
     19 C19         4.3095   54.0606   24.1523 C.3       1 UNK         0.0000 
     20 H20         2.4183   53.1013   20.0549 H         1 UNK         0.0000 
     21 H21         3.6127   54.3646   20.1683 H         1 UNK         0.0000 
     22 H22         4.1434   52.6847   20.1107 H         1 UNK         0.0000 
     23 H23         1.4784   53.9108   23.7605 H         1 UNK         0.0000 
     24 H24        -0.1087   52.3862   24.8500 H         1 UNK         0.0000 
     25 H25         1.3762   49.1372   22.4852 H         1 UNK         0.0000 
     26 H26         3.0238   49.5198   20.8822 H         1 UNK         0.0000 
     27 H27         3.7269   51.1034   20.6096 H         1 UNK         0.0000 
     28 H28        -0.5820   49.0305   26.8345 H         1 UNK         0.0000 
     29 H29         0.6729   48.2882   26.0349 H         1 UNK         0.0000 
     30 H30         5.0516   52.4970   22.8789 H         1 UNK         0.0000 
     31 H31         5.1783   55.3325   21.7612 H         1 UNK         0.0000 
     32 H32         5.9038   53.9227   21.0385 H         1 UNK         0.0000 
     33 H33         7.5779   55.2573   22.2787 H         1 UNK         0.0000 
     34 H34         7.4530   53.6306   22.8827 H         1 UNK         0.0000 
     35 H35         6.3040   56.1531   24.1589 H         1 UNK         0.0000 
     36 H36         7.5524   55.1439   24.8051 H         1 UNK         0.0000 
     37 H37         5.3561   54.7360   25.9293 H         1 UNK         0.0000 
     38 H38         6.0337   53.3000   25.2168 H         1 UNK         0.0000 
     39 H39         3.6659   53.4011   24.7342 H         1 UNK         0.0000 
     40 H40         3.7968   55.0176   24.0624 H         1 UNK         0.0000 
@<TRIPOS>BOND
     1    1    2 1    
     2    1   20 1    
     3    1   21 1    
     4    1   22 1    
     5    2    3 1    
     6    2   14 1    
     7    3    8 ar   
     8    3    4 ar   
     9    4    5 ar   
    10    4   23 1    
    11    5    6 ar   
    12    5   24 1    
    13    6    7 ar   
    14    6   10 1    
    15    7    8 ar   
    16    7   25 1    
    17    8    9 1    
    18    9   26 1    
    19    9   27 1    
    20   10   11 2    
    21   10   12 2    
    22   10   13 1    
    23   13   28 1    
    24   13   29 1    
    25   14   19 1    
    26   14   15 1    
    27   14   30 1    
    28   15   16 1    
    29   15   31 1    
    30   15   32 1    
    31   16   17 1    
    32   16   33 1    
    33   16   34 1    
    34   17   18 1    
    35   17   35 1    
    36   17   36 1    
    37   18   19 1    
    38   18   37 1    
    39   18   38 1    
    40   19   39 1    
    41   19   40 1    
@<TRIPOS>SUBSTRUCTURE
     1 UNK         1 GROUP             0       ****    0 ROOT    
