ZINC04545463_3896
                    3D
 Schrodinger Suite 2024-2.
 42 45  0  0  1  0            999 V2000
    6.2508   53.3605   28.0824 C   0  0  0  0  0  0
    4.9038   52.9692   28.7111 C   0  0  0  0  0  0
    3.8980   54.1404   28.8759 C   0  0  1  0  0  0
    4.4040   54.8952   29.4812 H   0  0  0  0  0  0
    3.4822   54.8528   27.5644 C   0  0  0  0  0  0
    2.8274   53.8650   26.5698 C   0  0  0  0  0  0
    1.7497   53.0533   27.2974 C   0  0  0  0  0  0
    1.6696   53.0147   28.7038 C   0  0  0  0  0  0
    0.3072   52.0964   29.2644 S   0  0  0  0  0  0
   -0.1231   51.7060   27.6365 C   0  0  0  0  0  0
    0.7067   52.3197   26.6943 C   0  0  0  0  0  0
    0.3620   52.0845   25.2968 C   0  0  0  0  0  0
   -0.6926   51.5179   24.8759 N   0  0  0  0  0  0
   -1.6635   51.0461   25.8902 C   0  0  1  0  0  0
   -1.9414   50.0324   25.5939 H   0  0  0  0  0  0
   -1.1919   50.8971   27.2902 N   0  0  0  0  0  0
   -2.9955   51.8290   25.8043 C   0  0  0  0  0  0
   -4.0490   51.4603   26.6532 C   0  0  0  0  0  0
   -5.2560   52.1554   26.6324 C   0  0  0  0  0  0
   -5.4227   53.2248   25.7576 C   0  0  0  0  0  0
   -4.3990   53.5936   24.8918 C   0  0  0  0  0  0
   -3.1938   52.8963   24.9109 C   0  0  0  0  0  0
   -6.5848   53.9157   25.7525 F   0  0  0  0  0  0
    1.1964   52.4435   24.2793 O   0  0  0  0  0  0
    2.6218   53.7347   29.6560 C   0  0  0  0  0  0
    6.9129   52.4988   28.0129 H   0  0  0  0  0  0
    6.7648   54.1072   28.6850 H   0  0  0  0  0  0
    6.1303   53.7555   27.0747 H   0  0  0  0  0  0
    4.4508   52.1779   28.1171 H   0  0  0  0  0  0
    5.0984   52.5123   29.6811 H   0  0  0  0  0  0
    2.7900   55.6724   27.7815 H   0  0  0  0  0  0
    4.3530   55.2957   27.0793 H   0  0  0  0  0  0
    2.4127   54.4104   25.7227 H   0  0  0  0  0  0
    3.5763   53.1943   26.1479 H   0  0  0  0  0  0
   -1.2958   49.9545   27.6771 H   0  0  0  0  0  0
   -3.9280   50.6361   27.3430 H   0  0  0  0  0  0
   -6.0579   51.8711   27.2971 H   0  0  0  0  0  0
   -4.5396   54.4200   24.2111 H   0  0  0  0  0  0
   -2.4129   53.2092   24.2340 H   0  0  0  0  0  0
    1.2275   51.7142   23.6586 H   0  0  0  0  0  0
    2.8762   53.0953   30.5019 H   0  0  0  0  0  0
    2.1434   54.6241   30.0696 H   0  0  0  0  0  0
  1  2  1  0  0  0
  1 26  1  0  0  0
  1 27  1  0  0  0
  1 28  1  0  0  0
  2  3  1  0  0  0
  2 29  1  0  0  0
  2 30  1  0  0  0
  3  4  1  0  0  0
  3 25  1  0  0  0
  3  5  1  0  0  0
  5  6  1  0  0  0
  5 31  1  0  0  0
  5 32  1  0  0  0
  6  7  1  0  0  0
  6 33  1  0  0  0
  6 34  1  0  0  0
  7 11  1  0  0  0
  7  8  2  0  0  0
  8  9  1  0  0  0
  8 25  1  0  0  0
  9 10  1  0  0  0
 10 16  1  0  0  0
 10 11  2  0  0  0
 11 12  1  0  0  0
 12 13  2  0  0  0
 12 24  1  0  0  0
 13 14  1  0  0  0
 14 15  1  0  0  0
 14 16  1  0  0  0
 14 17  1  0  0  0
 16 35  1  0  0  0
 17 22  2  0  0  0
 17 18  1  0  0  0
 18 19  2  0  0  0
 18 36  1  0  0  0
 19 20  1  0  0  0
 19 37  1  0  0  0
 20 21  2  0  0  0
 20 23  1  0  0  0
 21 22  1  0  0  0
 21 38  1  0  0  0
 22 39  1  0  0  0
 24 40  1  0  0  0
 25 41  1  0  0  0
 25 42  1  0  0  0
M  END
> <i_i_glide_confnum>
7

> <i_i_glide_lignum>
3897

> <i_i_glide_posenum>
255

> <i_i_glide_rotatable_bonds>
3

> <i_m_Source_File_Index>
1748

> <b_m_subgroup_collapsed>
0

> <r_i_docking_score>
-5.53363

> <r_i_glide_ecoul>
-3.30615

> <r_i_glide_eff_state_penalty>
0

> <r_i_glide_einternal>
6.09732

> <r_i_glide_emodel>
-42.1806

> <r_i_glide_energy>
-34.0383

> <r_i_glide_erotb>
0.172268

> <r_i_glide_esite>
-0.138829

> <r_i_glide_evdw>
-30.7322

> <r_i_glide_gscore>
-5.53363

> <r_i_glide_hbond>
-0.16

> <r_i_glide_ligand_efficiency>
-0.240593

> <r_i_glide_ligand_efficiency_ln>
-1.33808

> <r_i_glide_ligand_efficiency_sa>
-0.684214

> <r_i_glide_lipo>
-2.0641

> <r_i_glide_metal>
0

> <r_i_glide_rewards>
-1.31045

> <s_i_glide_gridfile>
wee1_glide-grid

> <s_m_Source_File>
wee1_decoys_glide_SP.sdf

> <s_m_Source_Path>
/Users/zhangxujun/Desktop

> <s_m_entry_id>
2023

> <s_m_entry_name>
wee1_decoys_glide_SP.1748

> <s_m_subgroup_title>
wee1_decoys_glide_SP

> <s_m_subgroupid>
wee1_decoys_glide_SP


$$$$
