ZINC19631798_2612
                    3D
 Schrodinger Suite 2024-2.
 54 57  0  0  1  0            999 V2000
    2.2657   54.4927   23.4199 C   0  0  0  0  0  0
    1.4680   53.3406   23.6472 O   0  0  0  0  0  0
    1.7521   52.1809   22.9464 C   0  0  0  0  0  0
    2.6449   52.1237   21.8604 C   0  0  0  0  0  0
    2.9129   50.9141   21.2188 C   0  0  0  0  0  0
    2.3045   49.7410   21.6598 C   0  0  0  0  0  0
    1.4134   49.7785   22.7298 C   0  0  0  0  0  0
    1.1166   50.9936   23.3523 C   0  0  0  0  0  0
    0.2005   50.9779   24.4091 N   0  0  0  0  0  0
   -1.0392   51.5052   24.3469 C   0  0  0  0  0  0
   -1.5399   52.0224   23.3450 O   0  0  0  0  0  0
   -1.7754   51.3762   25.5796 C   0  0  0  0  0  0
   -3.1310   51.0008   25.6240 C   0  0  0  0  0  0
   -3.6371   50.9061   26.8978 C   0  0  0  0  0  0
   -2.4771   51.2966   28.1093 S   0  0  0  0  0  0
   -1.3015   51.7081   26.8703 C   0  0  0  0  0  0
   -0.0753   52.3163   27.1441 N   0  0  0  0  0  0
    0.3904   52.8455   28.2986 C   0  0  0  0  0  0
   -0.2386   52.8588   29.3554 O   0  0  0  0  0  0
    1.7361   53.6227   28.1936 C   0  0  2  0  0  0
    1.3935   54.5992   27.8486 H   0  0  0  0  0  0
    2.6737   53.0544   27.0857 C   0  0  0  0  0  0
    4.0493   53.7062   27.1173 C   0  0  0  0  0  0
    4.4874   54.4963   28.1139 C   0  0  0  0  0  0
    3.6832   54.8047   29.3724 C   0  0  0  0  0  0
    2.4787   53.8275   29.5630 C   0  0  2  0  0  0
    1.8212   54.2810   30.3075 H   0  0  0  0  0  0
    2.9570   52.4967   30.2235 C   0  0  0  0  0  0
    3.9132   51.8667   29.7232 O   0  0  0  0  0  0
    2.3287   52.0977   31.2270 O   0  5  0  0  0  0
   -5.0784   50.4800   26.9284 C   0  0  0  0  0  0
   -5.4729   50.6678   25.4536 C   0  0  0  0  0  0
   -4.1809   50.5783   24.6239 C   0  0  0  0  0  0
    1.9343   55.2904   24.0816 H   0  0  0  0  0  0
    3.3178   54.3002   23.6361 H   0  0  0  0  0  0
    2.1717   54.8474   22.3953 H   0  0  0  0  0  0
    3.1410   53.0101   21.4962 H   0  0  0  0  0  0
    3.5964   50.8859   20.3812 H   0  0  0  0  0  0
    2.5272   48.8038   21.1700 H   0  0  0  0  0  0
    0.9448   48.8655   23.0664 H   0  0  0  0  0  0
    0.4611   50.4675   25.2403 H   0  0  0  0  0  0
    0.5133   52.4569   26.3368 H   0  0  0  0  0  0
    2.8234   51.9973   27.2817 H   0  0  0  0  0  0
    2.2310   53.1281   26.0937 H   0  0  0  0  0  0
    4.7180   53.5283   26.2874 H   0  0  0  0  0  0
    5.4793   54.9152   28.0228 H   0  0  0  0  0  0
    3.3168   55.8279   29.2864 H   0  0  0  0  0  0
    4.3526   54.7935   30.2316 H   0  0  0  0  0  0
   -5.1887   49.4442   27.2521 H   0  0  0  0  0  0
   -5.6973   51.0992   27.5781 H   0  0  0  0  0  0
   -6.2249   49.9464   25.1310 H   0  0  0  0  0  0
   -5.9130   51.6581   25.3221 H   0  0  0  0  0  0
   -4.2230   51.2103   23.7361 H   0  0  0  0  0  0
   -4.0170   49.5526   24.2922 H   0  0  0  0  0  0
  1  2  1  0  0  0
  1 34  1  0  0  0
  1 35  1  0  0  0
  1 36  1  0  0  0
  2  3  1  0  0  0
  3  8  2  0  0  0
  3  4  1  0  0  0
  4  5  2  0  0  0
  4 37  1  0  0  0
  5  6  1  0  0  0
  5 38  1  0  0  0
  6  7  2  0  0  0
  6 39  1  0  0  0
  7  8  1  0  0  0
  7 40  1  0  0  0
  8  9  1  0  0  0
  9 10  1  0  0  0
  9 41  1  0  0  0
 10 11  2  0  0  0
 10 12  1  0  0  0
 12 16  2  0  0  0
 12 13  1  0  0  0
 13 33  1  0  0  0
 13 14  2  0  0  0
 14 15  1  0  0  0
 14 31  1  0  0  0
 15 16  1  0  0  0
 16 17  1  0  0  0
 17 18  1  0  0  0
 17 42  1  0  0  0
 18 19  2  0  0  0
 18 20  1  0  0  0
 20 21  1  0  0  0
 20 26  1  0  0  0
 20 22  1  0  0  0
 22 23  1  0  0  0
 22 43  1  0  0  0
 22 44  1  0  0  0
 23 24  2  0  0  0
 23 45  1  0  0  0
 24 25  1  0  0  0
 24 46  1  0  0  0
 25 26  1  0  0  0
 25 47  1  0  0  0
 25 48  1  0  0  0
 26 27  1  0  0  0
 26 28  1  0  0  0
 28 29  2  0  0  0
 28 30  1  0  0  0
 31 32  1  0  0  0
 31 49  1  0  0  0
 31 50  1  0  0  0
 32 33  1  0  0  0
 32 51  1  0  0  0
 32 52  1  0  0  0
 33 53  1  0  0  0
 33 54  1  0  0  0
M  CHG  1  30  -1
M  END
> <i_i_glide_confnum>
117

> <i_i_glide_lignum>
2613

> <i_i_glide_posenum>
351

> <i_i_glide_rotatable_bonds>
8

> <i_m_Source_File_Index>
5303

> <b_m_subgroup_collapsed>
0

> <r_i_docking_score>
-4.52522

> <r_i_glide_ecoul>
-4.312

> <r_i_glide_eff_state_penalty>
0

> <r_i_glide_einternal>
19.8875

> <r_i_glide_emodel>
-44.4691

> <r_i_glide_energy>
-41.7056

> <r_i_glide_erotb>
0.619952

> <r_i_glide_esite>
-0.00279197

> <r_i_glide_evdw>
-37.3936

> <r_i_glide_gscore>
-4.52522

> <r_i_glide_hbond>
-0.211311

> <r_i_glide_ligand_efficiency>
-0.145975

> <r_i_glide_ligand_efficiency_ln>
-1.02058

> <r_i_glide_ligand_efficiency_sa>
-0.458563

> <r_i_glide_lipo>
-1.7136

> <r_i_glide_metal>
0

> <r_i_glide_rewards>
-0.700987

> <s_i_glide_gridfile>
wee1_glide-grid

> <s_m_Source_File>
wee1_decoys_glide_SP.sdf

> <s_m_Source_Path>
/Users/zhangxujun/Desktop

> <s_m_entry_id>
5578

> <s_m_entry_name>
wee1_decoys_glide_SP.5303

> <s_m_subgroup_title>
wee1_decoys_glide_SP

> <s_m_subgroupid>
wee1_decoys_glide_SP


$$$$
