@<TRIPOS>MOLECULE
ZINC00584773_3865
41   44    1
SMALL
USER_CHARGES


@<TRIPOS>ATOM
      1 C1          3.7834   53.0678   29.6306 C.3       1 UNK         0.0000 
      2 S2          2.2161   52.1483   29.5604 S.3       1 UNK         0.0000 
      3 C3          1.5920   52.2448   27.9053 C.ar      1 UNK         0.0000 
      4 C4          0.6904   51.2798   27.4645 C.ar      1 UNK         0.0000 
      5 C5          0.2328   51.2964   26.1499 C.ar      1 UNK         0.0000 
      6 C6          0.6433   52.3056   25.2658 C.ar      1 UNK         0.0000 
      7 C7          1.5091   53.2969   25.7398 C.ar      1 UNK         0.0000 
      8 C8          1.9944   53.2630   27.0434 C.ar      1 UNK         0.0000 
      9 C9          0.1055   52.3690   23.8216 C.3       1 UNK         0.0000 
     10 H10         0.0682   53.4215   23.5389 H         1 UNK         0.0000 
     11 C11         1.0047   51.5962   22.8213 C.ar      1 UNK         0.0000 
     12 C12         2.1998   52.1509   22.2403 C.ar      1 UNK         0.0000 
     13 C13         2.6578   53.4738   22.4989 C.ar      1 UNK         0.0000 
     14 C14         3.8425   53.9504   21.9477 C.ar      1 UNK         0.0000 
     15 C15         4.5964   53.1580   21.0976 C.ar      1 UNK         0.0000 
     16 C16         4.1693   51.8751   20.7797 C.ar      1 UNK         0.0000 
     17 C17         2.9751   51.3532   21.3356 C.ar      1 UNK         0.0000 
     18 C18         2.5309   50.0580   20.9887 C.ar      1 UNK         0.0000 
     19 C19         1.3553   49.5515   21.5189 C.ar      1 UNK         0.0000 
     20 C20         0.6073   50.3096   22.4063 C.ar      1 UNK         0.0000 
     21 O21        -0.5857   49.7500   22.8167 O.3       1 UNK         0.0000 
     22 C22        -1.5599   50.5961   23.2243 C.2       1 UNK         0.0000 
     23 C23        -1.3329   51.8445   23.6764 C.2       1 UNK         0.0000 
     24 C24        -2.4269   52.6660   24.0749 C.1       1 UNK         0.0000 
     25 N25        -3.3503   53.2965   24.3668 N.1       1 UNK         0.0000 
     26 N26        -2.7616   49.9516   23.1201 N.pl3     1 UNK         0.0000 
     27 H27         4.2823   52.8767   30.5807 H         1 UNK         0.0000 
     28 H28         3.6093   54.1426   29.5449 H         1 UNK         0.0000 
     29 H29         4.4485   52.7505   28.8240 H         1 UNK         0.0000 
     30 H30         0.3495   50.4982   28.1268 H         1 UNK         0.0000 
     31 H31        -0.4465   50.5195   25.8315 H         1 UNK         0.0000 
     32 H32         1.8179   54.1171   25.1160 H         1 UNK         0.0000 
     33 H33         2.6751   54.0321   27.3735 H         1 UNK         0.0000 
     34 H34         2.0763   54.1474   23.0996 H         1 UNK         0.0000 
     35 H35         4.1658   54.9569   22.1618 H         1 UNK         0.0000 
     36 H36         5.5013   53.5494   20.6577 H         1 UNK         0.0000 
     37 H37         4.7421   51.2808   20.0833 H         1 UNK         0.0000 
     38 H38         3.1028   49.4664   20.2860 H         1 UNK         0.0000 
     39 H39         1.0109   48.5723   21.2231 H         1 UNK         0.0000 
     40 H40        -3.6167   50.4254   23.3772 H         1 UNK         0.0000 
     41 H41        -2.7876   48.9424   23.0834 H         1 UNK         0.0000 
@<TRIPOS>BOND
     1    1    2 1    
     2    1   27 1    
     3    1   28 1    
     4    1   29 1    
     5    2    3 1    
     6    3    8 ar   
     7    3    4 ar   
     8    4    5 ar   
     9    4   30 1    
    10    5    6 ar   
    11    5   31 1    
    12    6    7 ar   
    13    6    9 1    
    14    7    8 ar   
    15    7   32 1    
    16    8   33 1    
    17    9   10 1    
    18    9   23 1    
    19    9   11 1    
    20   11   20 ar   
    21   11   12 ar   
    22   12   17 ar   
    23   12   13 ar   
    24   13   14 ar   
    25   13   34 1    
    26   14   15 ar   
    27   14   35 1    
    28   15   16 ar   
    29   15   36 1    
    30   16   17 ar   
    31   16   37 1    
    32   17   18 ar   
    33   18   19 ar   
    34   18   38 1    
    35   19   20 ar   
    36   19   39 1    
    37   20   21 1    
    38   21   22 1    
    39   22   23 2    
    40   22   26 1    
    41   23   24 1    
    42   24   25 3    
    43   26   40 1    
    44   26   41 1    
@<TRIPOS>SUBSTRUCTURE
     1 UNK         1 GROUP             0       ****    0 ROOT    
