@<TRIPOS>MOLECULE
ZINC12429020_2447
61   64    1
SMALL
USER_CHARGES


@<TRIPOS>ATOM
      1 C1          4.2561   54.0886   24.5665 C.ar      1 UNK         0.0000 
      2 C2          4.3432   54.1033   23.1743 C.ar      1 UNK         0.0000 
      3 C3          5.5304   54.4964   22.5596 C.ar      1 UNK         0.0000 
      4 C4          6.6533   54.7934   23.3394 C.ar      1 UNK         0.0000 
      5 C5          6.5836   54.7238   24.7244 C.ar      1 UNK         0.0000 
      6 C6          5.3829   54.3825   25.3572 C.ar      1 UNK         0.0000 
      7 C7          5.3458   54.3078   26.8668 C.2       1 UNK         0.0000 
      8 O8          6.3871   54.2198   27.5229 O.2       1 UNK         0.0000 
      9 N9          4.1312   54.3948   27.4436 N.am      1 UNK         0.0000 
     10 C10         3.8631   54.3603   28.8860 C.3       1 UNK         0.0000 
     11 C11         2.5315   55.0881   29.2040 C.3       1 UNK         0.0000 
     12 C12         1.3054   54.3741   28.5890 C.3       1 UNK         0.0000 
     13 C13         1.2215   52.9011   29.0408 C.3       1 UNK         0.0000 
     14 C14         2.5501   52.1467   28.8319 C.3       1 UNK         0.0000 
     15 C15         3.7521   52.9129   29.4281 C.3       1 UNK         0.0000 
     16 N16         5.5796   54.5345   21.1566 N.am      1 UNK         0.0000 
     17 C17         6.2766   55.4124   20.3996 C.2       1 UNK         0.0000 
     18 O18         6.8402   56.4154   20.8564 O.2       1 UNK         0.0000 
     19 C19         6.4320   55.0537   18.9053 C.3       1 UNK         0.0000 
     20 H20         5.8093   54.1839   18.6963 H         1 UNK         0.0000 
     21 C21         7.9115   54.7890   18.5431 C.3       1 UNK         0.0000 
     22 C22         8.1428   55.5180   17.2367 C.3       1 UNK         0.0000 
     23 C23         7.2708   56.7584   17.3720 C.3       1 UNK         0.0000 
     24 N24         6.0592   56.2226   18.0479 N.pl3     1 UNK         0.0000 
     25 S25         4.5385   56.1445   17.1467 S.o2      1 UNK         0.0000 
     26 O26         4.3817   57.3952   16.3985 O.2       1 UNK         0.0000 
     27 O27         3.5049   55.6992   18.0820 O.2       1 UNK         0.0000 
     28 C28         4.7616   54.8267   15.9571 C.ar      1 UNK         0.0000 
     29 C29         5.3150   55.1076   14.7059 C.ar      1 UNK         0.0000 
     30 C30         5.5010   54.0739   13.7908 C.ar      1 UNK         0.0000 
     31 C31         5.1322   52.7719   14.1283 C.ar      1 UNK         0.0000 
     32 C32         4.5783   52.4959   15.3763 C.ar      1 UNK         0.0000 
     33 C33         4.3939   53.5229   16.2966 C.ar      1 UNK         0.0000 
     34 F34         5.3200   51.7707   13.2422 F         1 UNK         0.0000 
     35 H35         3.3153   53.8007   25.0130 H         1 UNK         0.0000 
     36 H36         3.4709   53.8604   22.5808 H         1 UNK         0.0000 
     37 H37         7.5836   55.0685   22.8721 H         1 UNK         0.0000 
     38 H38         7.4811   54.9306   25.2879 H         1 UNK         0.0000 
     39 H39         3.3246   54.2912   26.8488 H         1 UNK         0.0000 
     40 H40         4.6690   54.8887   29.4023 H         1 UNK         0.0000 
     41 H41         2.3955   55.1673   30.2826 H         1 UNK         0.0000 
     42 H42         2.5746   56.1177   28.8430 H         1 UNK         0.0000 
     43 H43         0.3903   54.8958   28.8670 H         1 UNK         0.0000 
     44 H44         1.3573   54.4206   27.5000 H         1 UNK         0.0000 
     45 H45         0.9499   52.8635   30.0971 H         1 UNK         0.0000 
     46 H46         0.4178   52.3924   28.5049 H         1 UNK         0.0000 
     47 H47         2.4835   51.1550   29.2784 H         1 UNK         0.0000 
     48 H48         2.7081   51.9915   27.7632 H         1 UNK         0.0000 
     49 H49         4.6745   52.3706   29.2155 H         1 UNK         0.0000 
     50 H50         3.6701   52.9296   30.5140 H         1 UNK         0.0000 
     51 H51         4.9705   53.8879   20.6729 H         1 UNK         0.0000 
     52 H52         8.1104   53.7232   18.4309 H         1 UNK         0.0000 
     53 H53         8.6125   55.1557   19.2984 H         1 UNK         0.0000 
     54 H54         7.8187   54.9137   16.3890 H         1 UNK         0.0000 
     55 H55         9.1921   55.7647   17.0727 H         1 UNK         0.0000 
     56 H56         7.0566   57.3485   16.4796 H         1 UNK         0.0000 
     57 H57         7.7561   57.4719   18.0423 H         1 UNK         0.0000 
     58 H58         5.5970   56.1173   14.4438 H         1 UNK         0.0000 
     59 H59         5.9263   54.2765   12.8204 H         1 UNK         0.0000 
     60 H60         4.2955   51.4860   15.6343 H         1 UNK         0.0000 
     61 H61         3.9655   53.2988   17.2628 H         1 UNK         0.0000 
@<TRIPOS>BOND
     1    1    6 ar   
     2    1    2 ar   
     3    1   35 1    
     4    2    3 ar   
     5    2   36 1    
     6    3    4 ar   
     7    3   16 1    
     8    4    5 ar   
     9    4   37 1    
    10    5    6 ar   
    11    5   38 1    
    12    6    7 1    
    13    7    8 2    
    14    7    9 am   BACKBONE|DICT|INTERRES
    15    9   10 1    
    16    9   39 1    
    17   10   15 1    
    18   10   11 1    
    19   10   40 1    
    20   11   12 1    
    21   11   41 1    
    22   11   42 1    
    23   12   13 1    
    24   12   43 1    
    25   12   44 1    
    26   13   14 1    
    27   13   45 1    
    28   13   46 1    
    29   14   15 1    
    30   14   47 1    
    31   14   48 1    
    32   15   49 1    
    33   15   50 1    
    34   16   17 am   BACKBONE|DICT|INTERRES
    35   16   51 1    
    36   17   18 2    
    37   17   19 1    
    38   19   20 1    
    39   19   24 1    
    40   19   21 1    
    41   21   22 1    
    42   21   52 1    
    43   21   53 1    
    44   22   23 1    
    45   22   54 1    
    46   22   55 1    
    47   23   24 1    
    48   23   56 1    
    49   23   57 1    
    50   24   25 1    
    51   25   26 2    
    52   25   27 2    
    53   25   28 1    
    54   28   33 ar   
    55   28   29 ar   
    56   29   30 ar   
    57   29   58 1    
    58   30   31 ar   
    59   30   59 1    
    60   31   32 ar   
    61   31   34 1    
    62   32   33 ar   
    63   32   60 1    
    64   33   61 1    
@<TRIPOS>SUBSTRUCTURE
     1 UNK         1 GROUP             0       ****    0 ROOT    
