@<TRIPOS>MOLECULE
ZINC30975788_879
73   77    1
SMALL
USER_CHARGES


@<TRIPOS>ATOM
      1 C1         -4.2121   51.0436   23.8441 C.3       1 UNK         0.0000 
      2 C2         -3.2041   51.2444   24.9606 C.ar      1 UNK         0.0000 
      3 C3         -2.0104   51.9217   24.7135 C.ar      1 UNK         0.0000 
      4 C4         -1.0855   52.0944   25.7379 C.ar      1 UNK         0.0000 
      5 C5         -1.3464   51.6003   27.0242 C.ar      1 UNK         0.0000 
      6 C6         -2.5409   50.9066   27.2554 C.ar      1 UNK         0.0000 
      7 C7         -3.4661   50.7288   26.2300 C.ar      1 UNK         0.0000 
      8 C8         -0.3577   51.8166   28.1345 C.2       1 UNK         0.0000 
      9 N9          0.9076   52.1035   27.8937 N.2       1 UNK         0.0000 
     10 C10         1.3922   52.2796   29.0945 C.2       1 UNK         0.0000 
     11 O11         0.4806   52.0967   30.0766 O.3       1 UNK         0.0000 
     12 N12        -0.6967   51.7610   29.4089 N.2       1 UNK         0.0000 
     13 C13         2.8057   52.6648   29.4984 C.3       1 UNK         0.0000 
     14 N14         3.6072   53.1089   28.2494 N.4       1 UNK         0.0000 
     15 C15         3.1578   54.5121   27.7712 C.3       1 UNK         0.0000 
     16 C16         3.8247   54.7502   26.4131 C.3       1 UNK         0.0000 
     17 C17         5.3680   54.6672   26.5507 C.3       1 UNK         0.0000 
     18 C18         5.8226   53.3158   27.1373 C.3       1 UNK         0.0000 
     19 C19         5.1342   53.0816   28.4945 C.3       1 UNK         0.0000 
     20 C20         6.0736   54.9104   25.1969 C.2       1 UNK         0.0000 
     21 O21         7.1042   55.5777   25.1955 O.2       1 UNK         0.0000 
     22 N22         5.4718   54.3952   24.0992 N.am      1 UNK         0.0000 
     23 C23         5.7351   54.5334   22.7166 C.ar      1 UNK         0.0000 
     24 C24         6.8546   55.2349   22.2332 C.ar      1 UNK         0.0000 
     25 C25         7.0608   55.4140   20.8680 C.ar      1 UNK         0.0000 
     26 C26         6.1474   54.8975   19.9574 C.ar      1 UNK         0.0000 
     27 C27         5.0273   54.2060   20.4115 C.ar      1 UNK         0.0000 
     28 C28         4.7908   54.0165   21.7859 C.ar      1 UNK         0.0000 
     29 C29         3.5221   53.2962   22.2195 C.2       1 UNK         0.0000 
     30 O30         2.9856   53.5426   23.3014 O.2       1 UNK         0.0000 
     31 N31         3.0552   52.3493   21.3857 N.am      1 UNK         0.0000 
     32 C32         1.8971   51.4832   21.6222 C.3       1 UNK         0.0000 
     33 H33         2.0771   50.9587   22.5638 H         1 UNK         0.0000 
     34 C34         0.5691   52.2579   21.7698 C.3       1 UNK         0.0000 
     35 C35         1.7948   50.4304   20.5219 C.ar      1 UNK         0.0000 
     36 C36         1.9005   49.0727   20.8434 C.ar      1 UNK         0.0000 
     37 C37         1.8083   48.1123   19.8401 C.ar      1 UNK         0.0000 
     38 C38         1.6158   48.5072   18.5190 C.ar      1 UNK         0.0000 
     39 C39         1.5033   49.8558   18.1904 C.ar      1 UNK         0.0000 
     40 C40         1.5910   50.8172   19.1910 C.ar      1 UNK         0.0000 
     41 H41        -3.7503   51.1560   22.8612 H         1 UNK         0.0000 
     42 H42        -4.6247   50.0336   23.8840 H         1 UNK         0.0000 
     43 H43        -5.0392   51.7482   23.9396 H         1 UNK         0.0000 
     44 H44        -1.7966   52.3147   23.7299 H         1 UNK         0.0000 
     45 H45        -0.1671   52.6192   25.5254 H         1 UNK         0.0000 
     46 H46        -2.7550   50.4941   28.2306 H         1 UNK         0.0000 
     47 H47        -4.3779   50.1837   26.4256 H         1 UNK         0.0000 
     48 H48         3.3368   51.8087   29.9158 H         1 UNK         0.0000 
     49 H49         2.8557   53.4954   30.2008 H         1 UNK         0.0000 
     50 H50         3.4348   55.2502   28.5282 H         1 UNK         0.0000 
     51 H51         2.0737   54.5042   27.6539 H         1 UNK         0.0000 
     52 H52         3.5056   55.7309   26.0814 H         1 UNK         0.0000 
     53 H53         3.4251   53.9676   25.7697 H         1 UNK         0.0000 
     54 H54         5.7240   55.4803   27.1861 H         1 UNK         0.0000 
     55 H55         5.4997   52.4969   26.4930 H         1 UNK         0.0000 
     56 H56         6.9007   53.2908   27.3134 H         1 UNK         0.0000 
     57 H57         5.3781   53.8391   29.2427 H         1 UNK         0.0000 
     58 H58         5.3851   52.0936   28.8761 H         1 UNK         0.0000 
     59 H59         4.6025   53.9046   24.2635 H         1 UNK         0.0000 
     60 H60         7.5824   55.6686   22.8984 H         1 UNK         0.0000 
     61 H61         7.9335   55.9480   20.5177 H         1 UNK         0.0000 
     62 H62         6.2990   55.0344   18.8971 H         1 UNK         0.0000 
     63 H63         4.3252   53.8486   19.6701 H         1 UNK         0.0000 
     64 H64         3.6340   52.0831   20.6022 H         1 UNK         0.0000 
     65 H65        -0.2745   51.5758   21.8753 H         1 UNK         0.0000 
     66 H66         0.5722   52.8955   22.6536 H         1 UNK         0.0000 
     67 H67         0.3815   52.8965   20.9052 H         1 UNK         0.0000 
     68 H68         2.0706   48.7623   21.8641 H         1 UNK         0.0000 
     69 H69         1.9006   47.0637   20.0805 H         1 UNK         0.0000 
     70 H70         1.5669   47.7635   17.7382 H         1 UNK         0.0000 
     71 H71         1.3768   50.1526   17.1596 H         1 UNK         0.0000 
     72 H72         1.5158   51.8640   18.9334 H         1 UNK         0.0000 
     73 H73         3.3920   52.4286   27.5305 H         1 UNK         0.0000 
@<TRIPOS>BOND
     1    1    2 1    
     2    1   41 1    
     3    1   42 1    
     4    1   43 1    
     5    2    7 ar   
     6    2    3 ar   
     7    3    4 ar   
     8    3   44 1    
     9    4    5 ar   
    10    4   45 1    
    11    5    6 ar   
    12    5    8 1    
    13    6    7 ar   
    14    6   46 1    
    15    7   47 1    
    16    8   12 2    
    17    8    9 1    
    18    9   10 2    
    19   10   11 1    
    20   10   13 1    
    21   11   12 1    
    22   13   14 1    
    23   13   48 1    
    24   13   49 1    
    25   14   19 1    
    26   14   15 1    
    27   14   73 1    
    28   15   16 1    
    29   15   50 1    
    30   15   51 1    
    31   16   17 1    
    32   16   52 1    
    33   16   53 1    
    34   17   18 1    
    35   17   20 1    
    36   17   54 1    
    37   18   19 1    
    38   18   55 1    
    39   18   56 1    
    40   19   57 1    
    41   19   58 1    
    42   20   21 2    
    43   20   22 am   BACKBONE|DICT|INTERRES
    44   22   23 1    
    45   22   59 1    
    46   23   28 ar   
    47   23   24 ar   
    48   24   25 ar   
    49   24   60 1    
    50   25   26 ar   
    51   25   61 1    
    52   26   27 ar   
    53   26   62 1    
    54   27   28 ar   
    55   27   63 1    
    56   28   29 1    
    57   29   30 2    
    58   29   31 am   BACKBONE|DICT|INTERRES
    59   31   32 1    
    60   31   64 1    
    61   32   33 1    
    62   32   34 1    
    63   32   35 1    
    64   34   65 1    
    65   34   66 1    
    66   34   67 1    
    67   35   40 ar   
    68   35   36 ar   
    69   36   37 ar   
    70   36   68 1    
    71   37   38 ar   
    72   37   69 1    
    73   38   39 ar   
    74   38   70 1    
    75   39   40 ar   
    76   39   71 1    
    77   40   72 1    
@<TRIPOS>SUBSTRUCTURE
     1 UNK         1 GROUP             0       ****    0 ROOT    
