ZINC20745541_4890
                    3D
 Schrodinger Suite 2024-2.
 55 58  0  0  1  0            999 V2000
    6.4839   54.3547   22.9249 C   0  0  0  0  0  0
    5.3327   54.1463   23.7338 O   0  0  0  0  0  0
    5.3414   54.4977   25.0477 C   0  0  0  0  0  0
    6.3208   54.9962   25.6149 O   0  0  0  0  0  0
    4.0071   54.2882   25.7806 C   0  0  2  0  0  0
    3.5231   55.2654   25.8658 H   0  0  0  0  0  0
    4.2242   53.7491   27.2224 C   0  0  0  0  0  0
    2.9838   53.7030   28.1099 C   0  0  0  0  0  0
    2.1046   52.5964   28.0769 C   0  0  0  0  0  0
    0.9485   52.6010   28.8452 C   0  0  0  0  0  0
    0.6326   53.7068   29.6285 C   0  0  0  0  0  0
    1.4601   54.8245   29.6300 C   0  0  0  0  0  0
    2.6208   54.8361   28.8691 C   0  0  0  0  0  0
    3.1157   53.3650   25.0479 N   0  0  0  0  0  0
    2.0653   53.7069   24.2814 C   0  0  0  0  0  0
    1.9028   54.8503   23.8732 O   0  0  0  0  0  0
    1.1487   52.7271   24.1060 N   0  0  0  0  0  0
   -0.2950   53.0702   24.0795 C   0  0  0  0  0  0
   -0.9905   52.3530   25.2785 C   0  0  0  0  0  0
   -0.5040   50.9111   25.3213 C   0  0  0  0  0  0
    0.5830   50.4406   24.5888 C   0  0  0  0  0  0
    0.6957   49.0842   24.8329 N   0  3  0  0  0  0
   -0.3301   48.7059   25.6693 C   0  0  0  0  0  0
   -1.0641   49.8283   25.9731 N   0  0  0  0  0  0
   -1.8354   49.8462   26.6323 H   0  0  0  0  0  0
    1.5142   51.3246   23.7625 C   0  0  1  0  0  0
    2.5394   51.1594   24.0811 H   0  0  0  0  0  0
    1.5480   51.0212   22.2543 C   0  0  0  0  0  0
    2.7649   51.1416   21.5689 C   0  0  0  0  0  0
    2.8503   50.8752   20.2036 C   0  0  0  0  0  0
    1.7160   50.4862   19.4960 C   0  0  0  0  0  0
    0.4923   50.3747   20.1570 C   0  0  0  0  0  0
    0.4042   50.6398   21.5269 C   0  0  0  0  0  0
   -0.8016   50.5151   22.1302 F   0  0  0  0  0  0
   -0.6097   49.9991   19.4694 F   0  0  0  0  0  0
    6.2578   54.0950   21.8909 H   0  0  0  0  0  0
    6.7981   55.3998   22.9483 H   0  0  0  0  0  0
    7.3209   53.7416   23.2640 H   0  0  0  0  0  0
    4.6520   52.7447   27.1859 H   0  0  0  0  0  0
    4.9647   54.3568   27.7494 H   0  0  0  0  0  0
    2.3231   51.7371   27.4589 H   0  0  0  0  0  0
    0.2853   51.7463   28.8339 H   0  0  0  0  0  0
   -0.2627   53.6994   30.2307 H   0  0  0  0  0  0
    1.1961   55.6886   30.2217 H   0  0  0  0  0  0
    3.2524   55.7134   28.8735 H   0  0  0  0  0  0
    3.2694   52.3875   25.2427 H   0  0  0  0  0  0
   -0.4692   54.1453   24.0807 H   0  0  0  0  0  0
   -0.7068   52.7250   23.1328 H   0  0  0  0  0  0
   -0.7317   52.8649   26.2054 H   0  0  0  0  0  0
   -2.0740   52.4189   25.1853 H   0  0  0  0  0  0
   -0.4983   47.7184   26.0829 H   0  0  0  0  0  0
    3.6640   51.4539   22.0816 H   0  0  0  0  0  0
    3.7939   50.9700   19.6824 H   0  0  0  0  0  0
    1.7906   50.2784   18.4385 H   0  0  0  0  0  0
    1.4403   48.4791   24.4940 H   0  0  0  0  0  0
  1  2  1  0  0  0
  1 36  1  0  0  0
  1 37  1  0  0  0
  1 38  1  0  0  0
  2  3  1  0  0  0
  3  4  2  0  0  0
  3  5  1  0  0  0
  5  6  1  0  0  0
  5  7  1  0  0  0
  5 14  1  0  0  0
  7  8  1  0  0  0
  7 39  1  0  0  0
  7 40  1  0  0  0
  8 13  2  0  0  0
  8  9  1  0  0  0
  9 10  2  0  0  0
  9 41  1  0  0  0
 10 11  1  0  0  0
 10 42  1  0  0  0
 11 12  2  0  0  0
 11 43  1  0  0  0
 12 13  1  0  0  0
 12 44  1  0  0  0
 13 45  1  0  0  0
 14 15  1  0  0  0
 14 46  1  0  0  0
 15 16  2  0  0  0
 15 17  1  0  0  0
 17 26  1  0  0  0
 17 18  1  0  0  0
 18 19  1  0  0  0
 18 47  1  0  0  0
 18 48  1  0  0  0
 19 20  1  0  0  0
 19 49  1  0  0  0
 19 50  1  0  0  0
 20 24  1  0  0  0
 20 21  2  0  0  0
 21 22  1  0  0  0
 21 26  1  0  0  0
 22 23  2  0  0  0
 22 55  1  0  0  0
 23 24  1  0  0  0
 23 51  1  0  0  0
 24 25  1  0  0  0
 26 27  1  0  0  0
 26 28  1  0  0  0
 28 33  2  0  0  0
 28 29  1  0  0  0
 29 30  2  0  0  0
 29 52  1  0  0  0
 30 31  1  0  0  0
 30 53  1  0  0  0
 31 32  2  0  0  0
 31 54  1  0  0  0
 32 33  1  0  0  0
 32 35  1  0  0  0
 33 34  1  0  0  0
M  CHG  1  22   1
M  END
> <i_i_glide_confnum>
116

> <i_i_glide_lignum>
4891

> <i_i_glide_posenum>
64

> <i_i_glide_rotatable_bonds>
8

> <i_m_Source_File_Index>
5923

> <b_m_subgroup_collapsed>
0

> <r_i_docking_score>
-6.84321

> <r_i_glide_ecoul>
-9.60407

> <r_i_glide_eff_state_penalty>
0

> <r_i_glide_einternal>
9.38216

> <r_i_glide_emodel>
-65.209

> <r_i_glide_energy>
-47.2366

> <r_i_glide_erotb>
0.615002

> <r_i_glide_esite>
-0.23632

> <r_i_glide_evdw>
-37.6325

> <r_i_glide_gscore>
-6.84321

> <r_i_glide_hbond>
-0.0114059

> <r_i_glide_ligand_efficiency>
-0.21385

> <r_i_glide_ligand_efficiency_ln>
-1.53238

> <r_i_glide_ligand_efficiency_sa>
-0.678932

> <r_i_glide_lipo>
-2.53433

> <r_i_glide_metal>
0

> <r_i_glide_rewards>
-1.35391

> <s_i_glide_gridfile>
wee1_glide-grid

> <s_m_Source_File>
wee1_decoys_glide_SP.sdf

> <s_m_Source_Path>
/Users/zhangxujun/Desktop

> <s_m_entry_id>
6198

> <s_m_entry_name>
wee1_decoys_glide_SP.5923

> <s_m_subgroup_title>
wee1_decoys_glide_SP

> <s_m_subgroupid>
wee1_decoys_glide_SP


$$$$
