ZINC39597281_2151
                    3D
 Schrodinger Suite 2024-2.
 69 72  0  0  1  0            999 V2000
   -0.6999   50.4436   21.0035 C   0  0  0  0  0  0
    0.6677   50.9760   21.5475 C   0  0  0  0  0  0
    1.3823   51.7748   20.3994 C   0  0  0  0  0  0
    1.8630   50.8894   19.2262 C   0  0  0  0  0  0
    2.7103   49.7035   19.7189 C   0  0  0  0  0  0
    2.0262   48.9012   20.8453 C   0  0  0  0  0  0
    1.5958   49.8136   22.0147 C   0  0  0  0  0  0
    0.4386   51.9654   22.7491 C   0  0  0  0  0  0
    1.3295   52.7801   23.0207 O   0  0  0  0  0  0
   -0.6968   51.9300   23.4946 N   0  0  0  0  0  0
   -1.0871   53.0928   24.3075 C   0  0  0  0  0  0
   -1.5750   52.4967   25.6447 C   0  0  1  0  0  0
   -2.3709   53.1350   26.0229 H   0  0  0  0  0  0
   -2.1070   51.0865   25.2607 C   0  0  0  0  0  0
   -1.1212   50.6788   24.1485 C   0  0  0  0  0  0
   -2.2165   49.9970   26.3598 C   0  0  0  0  0  0
   -3.2446   50.3732   27.4509 C   0  0  0  0  0  0
   -4.6274   50.5340   26.7873 N   0  3  0  0  0  0
   -4.6306   51.5325   25.6081 C   0  0  0  0  0  0
   -3.5256   51.1200   24.6108 C   0  0  0  0  0  0
   -0.5094   52.4876   26.7761 C   0  0  0  0  0  0
   -0.8940   52.4960   27.9426 O   0  0  0  0  0  0
    0.7988   52.4971   26.4598 N   0  0  0  0  0  0
    1.8803   52.5213   27.4557 C   0  0  0  0  0  0
    3.1105   53.3697   27.1238 C   0  0  0  0  0  0
    3.3799   53.7737   25.8079 C   0  0  0  0  0  0
    4.5334   54.4967   25.5056 C   0  0  0  0  0  0
    5.4298   54.8331   26.5163 C   0  0  0  0  0  0
    5.1642   54.4587   27.8321 C   0  0  0  0  0  0
    4.0164   53.7247   28.1418 C   0  0  0  0  0  0
    3.7870   53.4103   29.4602 O   0  0  0  0  0  0
    4.1738   52.0961   29.8389 C   0  0  0  0  0  0
   -0.6298   50.0923   19.9760 H   0  0  0  0  0  0
   -1.0653   49.5817   21.5575 H   0  0  0  0  0  0
   -1.4798   51.2087   21.0005 H   0  0  0  0  0  0
    0.7431   52.5743   20.0197 H   0  0  0  0  0  0
    2.2890   52.2539   20.7772 H   0  0  0  0  0  0
    1.0217   50.5248   18.6370 H   0  0  0  0  0  0
    2.4579   51.4896   18.5345 H   0  0  0  0  0  0
    2.9599   49.0487   18.8819 H   0  0  0  0  0  0
    3.6614   50.0970   20.0813 H   0  0  0  0  0  0
    1.1606   48.3747   20.4432 H   0  0  0  0  0  0
    2.7044   48.1259   21.2072 H   0  0  0  0  0  0
    2.5120   50.2186   22.4506 H   0  0  0  0  0  0
    1.1191   49.2100   22.7890 H   0  0  0  0  0  0
   -1.9919   53.5383   23.8889 H   0  0  0  0  0  0
   -0.3184   53.8486   24.4817 H   0  0  0  0  0  0
   -0.2461   50.2649   24.6557 H   0  0  0  0  0  0
   -1.4766   49.8688   23.5183 H   0  0  0  0  0  0
   -2.4647   49.0228   25.9345 H   0  0  0  0  0  0
   -1.2438   49.8435   26.8310 H   0  0  0  0  0  0
   -3.3417   49.5962   28.2107 H   0  0  0  0  0  0
   -3.0346   51.3155   27.9549 H   0  0  0  0  0  0
   -4.9200   49.6259   26.4503 H   0  0  0  0  0  0
   -5.6259   51.4805   25.1636 H   0  0  0  0  0  0
   -4.4908   52.5250   26.0362 H   0  0  0  0  0  0
   -3.5433   51.8138   23.7681 H   0  0  0  0  0  0
   -3.7692   50.1513   24.1679 H   0  0  0  0  0  0
    1.0633   52.3697   25.4940 H   0  0  0  0  0  0
    2.1995   51.5048   27.6824 H   0  0  0  0  0  0
    1.4976   52.8953   28.4087 H   0  0  0  0  0  0
    2.7120   53.5139   25.0018 H   0  0  0  0  0  0
    4.7318   54.7909   24.4847 H   0  0  0  0  0  0
    6.3222   55.3928   26.2841 H   0  0  0  0  0  0
    5.8507   54.7364   28.6180 H   0  0  0  0  0  0
    4.3171   52.0601   30.9189 H   0  0  0  0  0  0
    3.4025   51.3688   29.5908 H   0  0  0  0  0  0
    5.1031   51.7816   29.3649 H   0  0  0  0  0  0
   -5.3059   50.8127   27.4833 H   0  0  0  0  0  0
  1  2  1  0  0  0
  1 33  1  0  0  0
  1 34  1  0  0  0
  1 35  1  0  0  0
  2  7  1  0  0  0
  2  3  1  0  0  0
  2  8  1  0  0  0
  3  4  1  0  0  0
  3 36  1  0  0  0
  3 37  1  0  0  0
  4  5  1  0  0  0
  4 38  1  0  0  0
  4 39  1  0  0  0
  5  6  1  0  0  0
  5 40  1  0  0  0
  5 41  1  0  0  0
  6  7  1  0  0  0
  6 42  1  0  0  0
  6 43  1  0  0  0
  7 44  1  0  0  0
  7 45  1  0  0  0
  8  9  2  0  0  0
  8 10  1  0  0  0
 10 15  1  0  0  0
 10 11  1  0  0  0
 11 12  1  0  0  0
 11 46  1  0  0  0
 11 47  1  0  0  0
 12 13  1  0  0  0
 12 14  1  0  0  0
 12 21  1  0  0  0
 14 20  1  0  0  0
 14 15  1  0  0  0
 14 16  1  0  0  0
 15 48  1  0  0  0
 15 49  1  0  0  0
 16 17  1  0  0  0
 16 50  1  0  0  0
 16 51  1  0  0  0
 17 18  1  0  0  0
 17 52  1  0  0  0
 17 53  1  0  0  0
 18 19  1  0  0  0
 18 54  1  0  0  0
 18 69  1  0  0  0
 19 20  1  0  0  0
 19 55  1  0  0  0
 19 56  1  0  0  0
 20 57  1  0  0  0
 20 58  1  0  0  0
 21 22  2  0  0  0
 21 23  1  0  0  0
 23 24  1  0  0  0
 23 59  1  0  0  0
 24 25  1  0  0  0
 24 60  1  0  0  0
 24 61  1  0  0  0
 25 30  2  0  0  0
 25 26  1  0  0  0
 26 27  2  0  0  0
 26 62  1  0  0  0
 27 28  1  0  0  0
 27 63  1  0  0  0
 28 29  2  0  0  0
 28 64  1  0  0  0
 29 30  1  0  0  0
 29 65  1  0  0  0
 30 31  1  0  0  0
 31 32  1  0  0  0
 32 66  1  0  0  0
 32 67  1  0  0  0
 32 68  1  0  0  0
M  CHG  1  18   1
M  END
> <i_i_glide_confnum>
372

> <i_i_glide_lignum>
2152

> <i_i_glide_posenum>
182

> <i_i_glide_rotatable_bonds>
7

> <i_m_Source_File_Index>
4835

> <b_m_subgroup_collapsed>
0

> <r_i_docking_score>
-2.44806

> <r_i_glide_ecoul>
-1.46964

> <r_i_glide_eff_state_penalty>
0

> <r_i_glide_einternal>
19.555

> <r_i_glide_emodel>
-26.3738

> <r_i_glide_energy>
-34.4516

> <r_i_glide_erotb>
0.648875

> <r_i_glide_esite>
-0.0317781

> <r_i_glide_evdw>
-32.9819

> <r_i_glide_gscore>
-2.44806

> <r_i_glide_hbond>
0

> <r_i_glide_ligand_efficiency>
-0.0789696

> <r_i_glide_ligand_efficiency_ln>
-0.552112

> <r_i_glide_ligand_efficiency_sa>
-0.248074

> <r_i_glide_lipo>
-2.09002

> <r_i_glide_metal>
0

> <r_i_glide_rewards>
0.894404

> <s_i_glide_gridfile>
wee1_glide-grid

> <s_m_Source_File>
wee1_decoys_glide_SP.sdf

> <s_m_Source_Path>
/Users/zhangxujun/Desktop

> <s_m_entry_id>
5110

> <s_m_entry_name>
wee1_decoys_glide_SP.4835

> <s_m_subgroup_title>
wee1_decoys_glide_SP

> <s_m_subgroupid>
wee1_decoys_glide_SP


$$$$
