@<TRIPOS>MOLECULE
ZINC39325362_1101
66   70    1
SMALL
USER_CHARGES


@<TRIPOS>ATOM
      1 C1          1.8828   53.5178   27.6413 C.3       1 UNK         0.0000 
      2 C2          3.2386   53.9107   27.0737 C.ar      1 UNK         0.0000 
      3 C3          4.3196   54.0153   27.9581 C.ar      1 UNK         0.0000 
      4 C4          5.5815   54.3888   27.5011 C.ar      1 UNK         0.0000 
      5 C5          5.7730   54.6653   26.1511 C.ar      1 UNK         0.0000 
      6 C6          4.7043   54.5667   25.2631 C.ar      1 UNK         0.0000 
      7 C7          3.4276   54.1864   25.7031 C.ar      1 UNK         0.0000 
      8 C8          2.2928   54.0884   24.6715 C.3       1 UNK         0.0000 
      9 C9          1.8506   52.6431   24.3574 C.3       1 UNK         0.0000 
     10 N10         0.9720   52.5117   23.1663 N.pl3     1 UNK         0.0000 
     11 C11         1.4665   53.0134   21.8577 C.3       1 UNK         0.0000 
     12 C12         2.7579   52.2979   21.3643 C.3       1 UNK         0.0000 
     13 H13         2.9020   51.3491   21.8847 H         1 UNK         0.0000 
     14 C14         3.9696   53.2082   21.6109 C.2       1 UNK         0.0000 
     15 C15         4.7514   53.7417   20.6436 C.2       1 UNK         0.0000 
     16 C16         5.8583   54.6749   20.9028 C.2       1 UNK         0.0000 
     17 C17         6.6501   55.1458   19.9176 C.2       1 UNK         0.0000 
     18 C18         6.3468   54.6847   18.5581 C.2       1 UNK         0.0000 
     19 C19         5.3238   53.8340   18.2862 C.2       1 UNK         0.0000 
     20 C20         4.4991   53.3493   19.3088 C.2       1 UNK         0.0000 
     21 N21         3.5088   52.5127   18.9940 N.pl3     1 UNK         0.0000 
     22 C22         2.5869   51.9001   19.8720 C.2       1 UNK         0.0000 
     23 O23         1.7205   51.1188   19.4887 O.2       1 UNK         0.0000 
     24 O24         7.6947   55.9482   20.2593 O.3       1 UNK         0.0000 
     25 C25         8.6908   56.2121   19.2773 C.3       1 UNK         0.0000 
     26 S26        -0.0869   51.0921   23.1252 S.o2      1 UNK         0.0000 
     27 O27         0.7044   49.9329   23.5549 O.2       1 UNK         0.0000 
     28 O28        -0.7956   51.0814   21.8390 O.2       1 UNK         0.0000 
     29 C29        -1.3278   51.4144   24.3685 C.ar      1 UNK         0.0000 
     30 C30        -1.3654   50.6815   25.5623 C.ar      1 UNK         0.0000 
     31 C31        -2.3813   50.9125   26.4923 C.ar      1 UNK         0.0000 
     32 C32        -3.3535   51.8777   26.2289 C.ar      1 UNK         0.0000 
     33 C33        -3.2941   52.6380   25.0492 C.ar      1 UNK         0.0000 
     34 C34        -2.2896   52.3974   24.1159 C.ar      1 UNK         0.0000 
     35 O35        -4.2537   53.5777   24.7257 O.3       1 UNK         0.0000 
     36 C36        -5.0976   53.9612   25.8176 C.3       1 UNK         0.0000 
     37 C37        -5.5011   52.7315   26.6665 C.3       1 UNK         0.0000 
     38 O38        -4.3317   52.0861   27.1792 O.3       1 UNK         0.0000 
     39 H39         1.8468   53.6264   28.7246 H         1 UNK         0.0000 
     40 H40         1.1040   54.1630   27.2422 H         1 UNK         0.0000 
     41 H41         1.6415   52.4857   27.3911 H         1 UNK         0.0000 
     42 H42         4.1841   53.8065   29.0090 H         1 UNK         0.0000 
     43 H43         6.4059   54.4697   28.1965 H         1 UNK         0.0000 
     44 H44         6.7466   54.9602   25.7901 H         1 UNK         0.0000 
     45 H45         4.8792   54.8050   24.2261 H         1 UNK         0.0000 
     46 H46         2.6460   54.5729   23.7639 H         1 UNK         0.0000 
     47 H47         1.4191   54.6998   24.8816 H         1 UNK         0.0000 
     48 H48         1.3464   52.2149   25.2230 H         1 UNK         0.0000 
     49 H49         2.7041   51.9896   24.2189 H         1 UNK         0.0000 
     50 H50         0.6534   52.9044   21.1385 H         1 UNK         0.0000 
     51 H51         1.6039   54.0916   21.9407 H         1 UNK         0.0000 
     52 H52         4.1968   53.4699   22.6290 H         1 UNK         0.0000 
     53 H53         6.0735   54.9788   21.9171 H         1 UNK         0.0000 
     54 H54         6.9472   55.0259   17.7283 H         1 UNK         0.0000 
     55 H55         5.1440   53.5168   17.2679 H         1 UNK         0.0000 
     56 H56         9.4910   56.8006   19.7221 H         1 UNK         0.0000 
     57 H57         9.1397   55.2915   18.9026 H         1 UNK         0.0000 
     58 H58         8.2962   56.7879   18.4403 H         1 UNK         0.0000 
     59 H59        -0.6286   49.9163   25.7677 H         1 UNK         0.0000 
     60 H60        -2.4181   50.3308   27.4037 H         1 UNK         0.0000 
     61 H61        -2.2714   52.9609   23.1944 H         1 UNK         0.0000 
     62 H62        -4.5684   54.6768   26.4495 H         1 UNK         0.0000 
     63 H63        -5.9865   54.4540   25.4229 H         1 UNK         0.0000 
     64 H64        -6.1483   53.0254   27.4929 H         1 UNK         0.0000 
     65 H65        -6.0564   52.0295   26.0406 H         1 UNK         0.0000 
     66 H66         3.4101   52.2319   18.0241 H         1 UNK         0.0000 
@<TRIPOS>BOND
     1    1    2 1    
     2    1   39 1    
     3    1   40 1    
     4    1   41 1    
     5    2    7 ar   
     6    2    3 ar   
     7    3    4 ar   
     8    3   42 1    
     9    4    5 ar   
    10    4   43 1    
    11    5    6 ar   
    12    5   44 1    
    13    6    7 ar   
    14    6   45 1    
    15    7    8 1    
    16    8    9 1    
    17    8   46 1    
    18    8   47 1    
    19    9   10 1    
    20    9   48 1    
    21    9   49 1    
    22   10   11 1    
    23   10   26 1    
    24   11   12 1    
    25   11   50 1    
    26   11   51 1    
    27   12   13 1    
    28   12   22 1    
    29   12   14 1    
    30   14   15 2    
    31   14   52 1    
    32   15   20 1    
    33   15   16 1    
    34   16   17 2    
    35   16   53 1    
    36   17   18 1    
    37   17   24 1    
    38   18   19 2    
    39   18   54 1    
    40   19   20 1    
    41   19   55 1    
    42   20   21 2    
    43   21   22 1    
    44   21   66 1    
    45   22   23 2    
    46   24   25 1    
    47   25   56 1    
    48   25   57 1    
    49   25   58 1    
    50   26   27 2    
    51   26   28 2    
    52   26   29 1    
    53   29   34 ar   
    54   29   30 ar   
    55   30   31 ar   
    56   30   59 1    
    57   31   32 ar   
    58   31   60 1    
    59   32   38 1    
    60   32   33 ar   
    61   33   34 ar   
    62   33   35 1    
    63   34   61 1    
    64   35   36 1    
    65   36   37 1    
    66   36   62 1    
    67   36   63 1    
    68   37   38 1    
    69   37   64 1    
    70   37   65 1    
@<TRIPOS>SUBSTRUCTURE
     1 UNK         1 GROUP             0       ****    0 ROOT    
