@<TRIPOS>MOLECULE
ZINC39684955_1295
64   68    1
SMALL
USER_CHARGES


@<TRIPOS>ATOM
      1 C1          3.5902   54.2472   24.2556 C.ar      1 UNK         0.0000 
      2 C2          3.6958   54.3762   25.6356 C.ar      1 UNK         0.0000 
      3 C3          4.9495   54.3455   26.2450 C.ar      1 UNK         0.0000 
      4 C4          6.1042   54.2165   25.4700 C.ar      1 UNK         0.0000 
      5 C5          5.9985   54.0979   24.0845 C.ar      1 UNK         0.0000 
      6 C6          4.7401   54.0965   23.4698 C.ar      1 UNK         0.0000 
      7 C7          4.6560   53.9164   21.9500 C.3       1 UNK         0.0000 
      8 N8          3.3388   53.5702   21.4005 N.am      1 UNK         0.0000 
      9 C9          2.7276   52.3805   21.5243 C.2       1 UNK         0.0000 
     10 O10         3.2523   51.4207   22.0816 O.2       1 UNK         0.0000 
     11 C11         1.2680   52.2874   21.0282 C.3       1 UNK         0.0000 
     12 H12         0.9131   53.2939   20.7978 H         1 UNK         0.0000 
     13 C13         0.4097   51.7580   22.1918 C.3       1 UNK         0.0000 
     14 N14        -0.7379   51.1559   21.5110 N.am      1 UNK         0.0000 
     15 C15        -0.5248   51.0864   20.0588 C.3       1 UNK         0.0000 
     16 C16         0.9940   51.3160   19.8478 C.3       1 UNK         0.0000 
     17 C17         1.3719   51.9151   18.4721 C.3       1 UNK         0.0000 
     18 C18         0.8656   51.0262   17.3148 C.3       1 UNK         0.0000 
     19 N19         1.5045   49.6230   17.4444 N.4       1 UNK         0.0000 
     20 C20         1.3515   48.9615   18.8356 C.3       1 UNK         0.0000 
     21 C21         1.7946   49.9743   19.9119 C.3       1 UNK         0.0000 
     22 C22        -1.8930   50.6987   22.0716 C.2       1 UNK         0.0000 
     23 O23        -2.8243   50.2819   21.3768 O.2       1 UNK         0.0000 
     24 C24        -2.0459   50.6622   23.5182 C.2       1 UNK         0.0000 
     25 C25        -3.1202   50.1992   24.2695 C.2       1 UNK         0.0000 
     26 C26        -2.7809   50.3471   25.6133 C.2       1 UNK         0.0000 
     27 C27        -1.5147   50.9172   25.6544 C.2       1 UNK         0.0000 
     28 O28        -1.0752   51.0989   24.3756 O.3       1 UNK         0.0000 
     29 C29        -0.6236   51.3373   26.7788 C.ar      1 UNK         0.0000 
     30 C30        -1.1219   51.2989   28.0857 C.ar      1 UNK         0.0000 
     31 C31        -0.3248   51.6969   29.1562 C.ar      1 UNK         0.0000 
     32 C32         0.9875   52.0985   28.9283 C.ar      1 UNK         0.0000 
     33 C33         1.5005   52.1253   27.6341 C.ar      1 UNK         0.0000 
     34 C34         0.6943   51.7547   26.5584 C.ar      1 UNK         0.0000 
     35 F35         1.7758   52.4473   29.9706 F         1 UNK         0.0000 
     36 C36         5.0404   54.4254   27.6962 C.1       1 UNK         0.0000 
     37 N37         5.1039   54.4895   28.8499 N.1       1 UNK         0.0000 
     38 H38         2.6066   54.2651   23.8076 H         1 UNK         0.0000 
     39 H39         2.7952   54.4902   26.2208 H         1 UNK         0.0000 
     40 H40         7.0808   54.1860   25.9317 H         1 UNK         0.0000 
     41 H41         6.8978   53.9906   23.4928 H         1 UNK         0.0000 
     42 H42         4.9706   54.8542   21.4922 H         1 UNK         0.0000 
     43 H43         5.3836   53.1675   21.6339 H         1 UNK         0.0000 
     44 H44         2.8262   54.3162   20.9462 H         1 UNK         0.0000 
     45 H45         0.9125   50.9364   22.7123 H         1 UNK         0.0000 
     46 H46         0.1416   52.5692   22.8724 H         1 UNK         0.0000 
     47 H47        -1.0539   51.9356   19.6264 H         1 UNK         0.0000 
     48 H48        -0.9182   50.1983   19.5649 H         1 UNK         0.0000 
     49 H49         0.8984   52.8912   18.3626 H         1 UNK         0.0000 
     50 H50         2.4450   52.1071   18.4006 H         1 UNK         0.0000 
     51 H51        -0.2159   50.8834   17.3161 H         1 UNK         0.0000 
     52 H52         1.1675   51.4070   16.3385 H         1 UNK         0.0000 
     53 H53         1.1528   49.0096   16.7231 H         1 UNK         0.0000 
     54 H54         0.3164   48.6355   18.9230 H         1 UNK         0.0000 
     55 H55         1.9945   48.0786   18.8241 H         1 UNK         0.0000 
     56 H56         2.8720   50.1365   19.8415 H         1 UNK         0.0000 
     57 H57         1.6388   49.5026   20.8835 H         1 UNK         0.0000 
     58 H58        -4.0419   49.7848   23.8829 H         1 UNK         0.0000 
     59 H59        -3.3854   50.0661   26.4645 H         1 UNK         0.0000 
     60 H60        -2.1258   50.9517   28.2881 H         1 UNK         0.0000 
     61 H61        -0.7146   51.6570   30.1649 H         1 UNK         0.0000 
     62 H62         2.5257   52.4166   27.4722 H         1 UNK         0.0000 
     63 H63         1.1038   51.7807   25.5585 H         1 UNK         0.0000 
     64 H64         2.5059   49.6921   17.2520 H         1 UNK         0.0000 
@<TRIPOS>BOND
     1    1    6 ar   
     2    1    2 ar   
     3    1   38 1    
     4    2    3 ar   
     5    2   39 1    
     6    3    4 ar   
     7    3   36 1    
     8    4    5 ar   
     9    4   40 1    
    10    5    6 ar   
    11    5   41 1    
    12    6    7 1    
    13    7    8 1    
    14    7   42 1    
    15    7   43 1    
    16    8    9 am   BACKBONE|DICT|INTERRES
    17    8   44 1    
    18    9   10 2    
    19    9   11 1    
    20   11   12 1    
    21   11   16 1    
    22   11   13 1    
    23   13   14 1    
    24   13   45 1    
    25   13   46 1    
    26   14   15 1    
    27   14   22 am   BACKBONE|DICT|INTERRES
    28   15   16 1    
    29   15   47 1    
    30   15   48 1    
    31   16   21 1    
    32   16   17 1    
    33   17   18 1    
    34   17   49 1    
    35   17   50 1    
    36   18   19 1    
    37   18   51 1    
    38   18   52 1    
    39   19   20 1    
    40   19   53 1    
    41   19   64 1    
    42   20   21 1    
    43   20   54 1    
    44   20   55 1    
    45   21   56 1    
    46   21   57 1    
    47   22   23 2    
    48   22   24 1    
    49   24   28 1    
    50   24   25 2    
    51   25   26 1    
    52   25   58 1    
    53   26   27 2    
    54   26   59 1    
    55   27   28 1    
    56   27   29 1    
    57   29   34 ar   
    58   29   30 ar   
    59   30   31 ar   
    60   30   60 1    
    61   31   32 ar   
    62   31   61 1    
    63   32   33 ar   
    64   32   35 1    
    65   33   34 ar   
    66   33   62 1    
    67   34   63 1    
    68   36   37 3    
@<TRIPOS>SUBSTRUCTURE
     1 UNK         1 GROUP             0       ****    0 ROOT    
