@<TRIPOS>MOLECULE
ZINC63513888_3500
60   63    1
SMALL
USER_CHARGES


@<TRIPOS>ATOM
      1 C1          2.2807   50.7705   19.7719 C.3       1 UNK         0.0000 
      2 C2          2.4418   52.2676   19.4418 C.3       1 UNK         0.0000 
      3 H3          1.5457   52.6611   18.9593 H         1 UNK         0.0000 
      4 C4          2.8602   53.1169   20.6301 C.2       1 UNK         0.0000 
      5 C5          4.0415   53.6875   20.3320 C.2       1 UNK         0.0000 
      6 C6          4.9017   54.5841   21.1184 C.2       1 UNK         0.0000 
      7 C7          6.0785   55.0187   20.6243 C.2       1 UNK         0.0000 
      8 C8          6.4643   54.5751   19.2901 C.2       1 UNK         0.0000 
      9 C9          5.6778   53.7482   18.5511 C.2       1 UNK         0.0000 
     10 C10         4.4526   53.2976   19.0583 C.2       1 UNK         0.0000 
     11 N11         3.5636   52.4966   18.5188 N.pl3     1 UNK         0.0000 
     12 C12         1.9909   53.2607   21.8629 C.3       1 UNK         0.0000 
     13 C13         2.5753   52.5201   23.0661 C.3       1 UNK         0.0000 
     14 N14         1.8037   52.6769   24.2917 N.am      1 UNK         0.0000 
     15 C15         0.7179   51.9450   24.6216 C.2       1 UNK         0.0000 
     16 O16         0.2256   51.1408   23.8245 O.2       1 UNK         0.0000 
     17 C17         0.1886   52.1339   25.9807 C.2       1 UNK         0.0000 
     18 C18         0.9743   52.6647   26.9614 C.2       1 UNK         0.0000 
     19 C19         0.6420   52.8703   28.3850 C.ar      1 UNK         0.0000 
     20 C20         1.0009   54.0791   28.9921 C.ar      1 UNK         0.0000 
     21 C21         0.7265   54.2964   30.3404 C.ar      1 UNK         0.0000 
     22 C22         0.1015   53.2967   31.0805 C.ar      1 UNK         0.0000 
     23 C23        -0.2722   52.0967   30.4816 C.ar      1 UNK         0.0000 
     24 C24         0.0046   51.8785   29.1383 C.ar      1 UNK         0.0000 
     25 N25        -1.0921   51.7190   26.2681 N.am      1 UNK         0.0000 
     26 C26        -2.2389   52.0479   25.6257 C.2       1 UNK         0.0000 
     27 O27        -2.2827   52.7493   24.6108 O.2       1 UNK         0.0000 
     28 C28        -3.5104   51.4690   26.2086 C.ar      1 UNK         0.0000 
     29 C29        -4.6594   51.3839   25.4096 C.ar      1 UNK         0.0000 
     30 C30        -5.8397   50.8407   25.9107 C.ar      1 UNK         0.0000 
     31 C31        -5.8959   50.3817   27.2241 C.ar      1 UNK         0.0000 
     32 C32        -4.7737   50.4716   28.0581 C.ar      1 UNK         0.0000 
     33 C33        -3.5857   51.0096   27.5379 C.ar      1 UNK         0.0000 
     34 N34        -4.8430   50.0131   29.4647 N.pl3     1 UNK         0.0000 
     35 O35        -5.7121   49.2018   29.7708 O.co2     1 UNK         0.0000 
     36 O36        -4.0549   50.4963   30.2699 O.co2     1 UNK         0.0000 
     37 H37         1.4571   50.6000   20.4657 H         1 UNK         0.0000 
     38 H38         2.0751   50.1880   18.8723 H         1 UNK         0.0000 
     39 H39         3.1843   50.3571   20.2217 H         1 UNK         0.0000 
     40 H40         4.6181   54.8971   22.1119 H         1 UNK         0.0000 
     41 H41         6.7241   55.6658   21.2021 H         1 UNK         0.0000 
     42 H42         7.4090   54.9064   18.8812 H         1 UNK         0.0000 
     43 H43         6.0168   53.4388   17.5738 H         1 UNK         0.0000 
     44 H44         0.9850   52.9024   21.6391 H         1 UNK         0.0000 
     45 H45         1.9067   54.3235   22.0871 H         1 UNK         0.0000 
     46 H46         3.5802   52.8973   23.2606 H         1 UNK         0.0000 
     47 H47         2.6929   51.4598   22.8247 H         1 UNK         0.0000 
     48 H48         2.1430   53.3604   24.9536 H         1 UNK         0.0000 
     49 H49         1.9888   52.9615   26.7386 H         1 UNK         0.0000 
     50 H50         1.4920   54.8564   28.4237 H         1 UNK         0.0000 
     51 H51         0.9974   55.2305   30.8120 H         1 UNK         0.0000 
     52 H52        -0.1094   53.4480   32.1311 H         1 UNK         0.0000 
     53 H53        -0.7730   51.3312   31.0614 H         1 UNK         0.0000 
     54 H54        -0.2569   50.9242   28.7041 H         1 UNK         0.0000 
     55 H55        -1.2230   51.3597   27.1991 H         1 UNK         0.0000 
     56 H56        -4.6442   51.7277   24.3829 H         1 UNK         0.0000 
     57 H57        -6.7129   50.7755   25.2775 H         1 UNK         0.0000 
     58 H58        -6.8219   49.9672   27.5968 H         1 UNK         0.0000 
     59 H59        -2.7260   51.0517   28.1919 H         1 UNK         0.0000 
     60 H60         3.6731   52.0203   17.6263 H         1 UNK         0.0000 
@<TRIPOS>BOND
     1    1    2 1    
     2    1   37 1    
     3    1   38 1    
     4    1   39 1    
     5    2    3 1    
     6    2   11 1    
     7    2    4 1    
     8    4    5 2    
     9    4   12 1    
    10    5   10 1    
    11    5    6 1    
    12    6    7 2    
    13    6   40 1    
    14    7    8 1    
    15    7   41 1    
    16    8    9 2    
    17    8   42 1    
    18    9   10 1    
    19    9   43 1    
    20   10   11 2    
    21   11   60 1    
    22   12   13 1    
    23   12   44 1    
    24   12   45 1    
    25   13   14 1    
    26   13   46 1    
    27   13   47 1    
    28   14   15 am   BACKBONE|DICT|INTERRES
    29   14   48 1    
    30   15   16 2    
    31   15   17 1    
    32   17   18 2    
    33   17   25 1    
    34   18   19 1    
    35   18   49 1    
    36   19   24 ar   
    37   19   20 ar   
    38   20   21 ar   
    39   20   50 1    
    40   21   22 ar   
    41   21   51 1    
    42   22   23 ar   
    43   22   52 1    
    44   23   24 ar   
    45   23   53 1    
    46   24   54 1    
    47   25   26 am   BACKBONE|DICT|INTERRES
    48   25   55 1    
    49   26   27 2    
    50   26   28 1    
    51   28   33 ar   
    52   28   29 ar   
    53   29   30 ar   
    54   29   56 1    
    55   30   31 ar   
    56   30   57 1    
    57   31   32 ar   
    58   31   58 1    
    59   32   33 ar   
    60   32   34 1    
    61   33   59 1    
    62   34   35 2    
    63   34   36 1    
@<TRIPOS>SUBSTRUCTURE
     1 UNK         1 GROUP             0       ****    0 ROOT    
