@<TRIPOS>MOLECULE
ZINC32527458_4279
57   59    1
SMALL
USER_CHARGES


@<TRIPOS>ATOM
      1 C1          0.4373   49.0702   25.6244 C.3       1 UNK         0.0000 
      2 C2          0.4474   49.8124   24.2795 C.3       1 UNK         0.0000 
      3 C3          0.8787   51.3131   24.3292 C.3       1 UNK         0.0000 
      4 H4          1.8136   51.3318   24.8816 H         1 UNK         0.0000 
      5 C5          1.2783   51.8238   22.9132 C.2       1 UNK         0.0000 
      6 O6          0.5525   51.5614   21.9530 O.2       1 UNK         0.0000 
      7 N7          2.4497   52.4967   22.8304 N.am      1 UNK         0.0000 
      8 C8          3.1637   52.8921   21.6915 C.2       1 UNK         0.0000 
      9 C9          4.3628   53.6376   21.6666 C.2       1 UNK         0.0000 
     10 C10         4.7652   53.9458   20.3250 C.2       1 UNK         0.0000 
     11 C11         3.9821   53.2915   19.3636 C.2       1 UNK         0.0000 
     12 S12         2.7044   52.3895   20.0928 S.3       1 UNK         0.0000 
     13 C13         4.0937   53.3006   17.8541 C.3       1 UNK         0.0000 
     14 C14         5.8468   54.9392   19.9138 C.3       1 UNK         0.0000 
     15 C15         5.0300   54.0966   22.8859 C.2       1 UNK         0.0000 
     16 O16         4.4781   54.0974   23.9818 O.2       1 UNK         0.0000 
     17 N17         6.3047   54.4740   22.7831 N.am      1 UNK         0.0000 
     18 N18        -0.0549   52.2561   25.0402 N.pl3     1 UNK         0.0000 
     19 C19        -1.3290   52.3474   24.5293 C.ar      1 UNK         0.0000 
     20 O20        -1.6319   52.8969   23.4727 O.2       1 UNK         0.0000 
     21 C21        -2.3330   51.7605   25.3994 C.ar      1 UNK         0.0000 
     22 C22        -2.1615   51.5561   26.7252 C.ar      1 UNK         0.0000 
     23 C23        -0.8492   51.9001   27.3352 C.ar      1 UNK         0.0000 
     24 C24         0.1659   52.3441   26.4572 C.ar      1 UNK         0.0000 
     25 C25         1.3354   52.9130   27.0051 C.ar      1 UNK         0.0000 
     26 C26         1.5154   52.9365   28.3915 C.ar      1 UNK         0.0000 
     27 C27         0.5411   52.4303   29.2491 C.ar      1 UNK         0.0000 
     28 C28        -0.6384   51.9124   28.7187 C.ar      1 UNK         0.0000 
     29 C29         0.7443   52.4927   30.7514 C.3       1 UNK         0.0000 
     30 C30         2.3918   53.5902   26.1478 C.3       1 UNK         0.0000 
     31 C31        -3.2597   50.9654   27.5973 C.3       1 UNK         0.0000 
     32 H32         0.0913   48.0500   25.4744 H         1 UNK         0.0000 
     33 H33         1.4313   49.0090   26.0706 H         1 UNK         0.0000 
     34 H34        -0.2395   49.5143   26.3495 H         1 UNK         0.0000 
     35 H35        -0.5361   49.7179   23.8152 H         1 UNK         0.0000 
     36 H36         1.1306   49.2591   23.6305 H         1 UNK         0.0000 
     37 H37         2.8815   52.7842   23.6980 H         1 UNK         0.0000 
     38 H38         5.0709   53.6338   17.5034 H         1 UNK         0.0000 
     39 H39         3.9444   52.3026   17.4380 H         1 UNK         0.0000 
     40 H40         3.3453   53.9522   17.4031 H         1 UNK         0.0000 
     41 H41         5.8760   55.8089   20.5705 H         1 UNK         0.0000 
     42 H42         6.8419   54.4959   19.9050 H         1 UNK         0.0000 
     43 H43         5.6672   55.3620   18.9250 H         1 UNK         0.0000 
     44 H44         6.8117   54.7461   23.6118 H         1 UNK         0.0000 
     45 H45         6.7574   54.5011   21.8828 H         1 UNK         0.0000 
     46 H46        -3.2759   51.5095   24.9385 H         1 UNK         0.0000 
     47 H47         2.4128   53.3710   28.8087 H         1 UNK         0.0000 
     48 H48        -1.4031   51.5517   29.3912 H         1 UNK         0.0000 
     49 H49         1.6512   51.9593   31.0356 H         1 UNK         0.0000 
     50 H50        -0.0944   52.0535   31.2933 H         1 UNK         0.0000 
     51 H51         0.8563   53.5275   31.0747 H         1 UNK         0.0000 
     52 H52         3.1842   52.8948   25.8817 H         1 UNK         0.0000 
     53 H53         1.9609   54.0206   25.2438 H         1 UNK         0.0000 
     54 H54         2.8516   54.4210   26.6823 H         1 UNK         0.0000 
     55 H55        -4.1179   50.6495   27.0035 H         1 UNK         0.0000 
     56 H56        -2.8964   50.0964   28.1415 H         1 UNK         0.0000 
     57 H57        -3.6152   51.6973   28.3206 H         1 UNK         0.0000 
@<TRIPOS>BOND
     1    1    2 1    
     2    1   32 1    
     3    1   33 1    
     4    1   34 1    
     5    2    3 1    
     6    2   35 1    
     7    2   36 1    
     8    3    4 1    
     9    3    5 1    
    10    3   18 1    
    11    5    6 2    
    12    5    7 am   BACKBONE|DICT|INTERRES
    13    7    8 am   BACKBONE|DICT|INTERRES
    14    7   37 1    
    15    8   12 1    
    16    8    9 2    
    17    9   10 1    
    18    9   15 1    
    19   10   11 2    
    20   10   14 1    
    21   11   12 1    
    22   11   13 1    
    23   13   38 1    
    24   13   39 1    
    25   13   40 1    
    26   14   41 1    
    27   14   42 1    
    28   14   43 1    
    29   15   16 2    
    30   15   17 am   BACKBONE|DICT|INTERRES
    31   17   44 1    
    32   17   45 1    
    33   18   24 ar   
    34   18   19 ar   
    35   19   20 2    
    36   19   21 ar   
    37   21   22 ar   
    38   21   46 1    
    39   22   23 ar   
    40   22   31 1    
    41   23   28 ar   
    42   23   24 ar   
    43   24   25 ar   
    44   25   26 ar   
    45   25   30 1    
    46   26   27 ar   
    47   26   47 1    
    48   27   28 ar   
    49   27   29 1    
    50   28   48 1    
    51   29   49 1    
    52   29   50 1    
    53   29   51 1    
    54   30   52 1    
    55   30   53 1    
    56   30   54 1    
    57   31   55 1    
    58   31   56 1    
    59   31   57 1    
@<TRIPOS>SUBSTRUCTURE
     1 UNK         1 GROUP             0       ****    0 ROOT    
