ZINC65638441_6222
                    3D
 Schrodinger Suite 2024-2.
 56 57  0  0  1  0            999 V2000
    1.2672   50.2266   18.1027 C   0  0  0  0  0  0
    1.7540   51.0205   19.3309 C   0  0  0  0  0  0
    1.9326   50.0984   20.5532 C   0  0  0  0  0  0
    3.1043   51.6964   18.9904 N   0  3  1  0  0  0
    3.0948   52.6483   17.7763 C   0  0  0  0  0  0
    4.1831   53.6918   18.0659 C   0  0  0  0  0  0
    4.8653   53.2979   19.3846 C   0  0  2  0  0  0
    3.7522   52.5327   20.1110 C   0  0  0  0  0  0
    5.5058   54.4925   20.1413 C   0  0  0  0  0  0
    5.5033   54.3967   21.6079 N   0  0  0  0  0  0
    6.4668   54.9364   22.4000 C   0  0  0  0  0  0
    7.4663   55.4776   21.9202 O   0  0  0  0  0  0
    6.2585   54.8946   23.8955 C   0  0  0  0  0  0
    7.1044   55.3487   24.6687 O   0  0  0  0  0  0
    5.0771   54.3782   24.3138 N   0  0  0  0  0  0
    4.6493   54.0969   25.6220 C   0  0  0  0  0  0
    5.5000   54.0072   26.7337 C   0  0  0  0  0  0
    4.9929   53.6138   27.9674 C   0  0  0  0  0  0
    3.6356   53.2990   28.1129 C   0  0  0  0  0  0
    2.7858   53.4267   27.0021 C   0  0  0  0  0  0
    3.2915   53.8172   25.7677 C   0  0  0  0  0  0
    3.1104   52.8675   29.4633 C   0  0  0  0  0  0
    3.7845   53.0204   30.4820 O   0  0  0  0  0  0
    1.8556   52.3809   29.4942 N   0  0  0  0  0  0
    1.0037   52.3561   30.6839 C   0  0  0  0  0  0
    0.4429   53.7125   31.0968 C   0  0  0  0  0  0
    0.6996   54.8978   30.5089 C   0  0  0  0  0  0
    0.3398   49.6951   18.3190 H   0  0  0  0  0  0
    1.0682   50.8738   17.2484 H   0  0  0  0  0  0
    2.0059   49.4860   17.7864 H   0  0  0  0  0  0
    1.0714   51.8425   19.5596 H   0  0  0  0  0  0
    1.0062   49.5687   20.7800 H   0  0  0  0  0  0
    2.7034   49.3451   20.3783 H   0  0  0  0  0  0
    2.2027   50.6518   21.4519 H   0  0  0  0  0  0
    2.1055   53.1073   17.7148 H   0  0  0  0  0  0
    3.2988   52.0286   16.8999 H   0  0  0  0  0  0
    3.6646   54.6471   18.1725 H   0  0  0  0  0  0
    4.8980   53.8001   17.2485 H   0  0  0  0  0  0
    5.6431   52.5574   19.1755 H   0  0  0  0  0  0
    4.1123   51.8604   20.8912 H   0  0  0  0  0  0
    2.9827   53.1747   20.5481 H   0  0  0  0  0  0
    5.0269   55.4305   19.8585 H   0  0  0  0  0  0
    6.5242   54.6042   19.7597 H   0  0  0  0  0  0
    4.6909   53.9650   22.0114 H   0  0  0  0  0  0
    4.3945   54.1517   23.6133 H   0  0  0  0  0  0
    6.5602   54.1908   26.6644 H   0  0  0  0  0  0
    5.6732   53.5375   28.8051 H   0  0  0  0  0  0
    1.7275   53.2209   27.0704 H   0  0  0  0  0  0
    2.6172   53.8826   24.9259 H   0  0  0  0  0  0
    1.4030   52.1633   28.6201 H   0  0  0  0  0  0
    1.5087   51.8841   31.5294 H   0  0  0  0  0  0
    0.1467   51.7139   30.4736 H   0  0  0  0  0  0
   -0.2156   53.6877   31.9547 H   0  0  0  0  0  0
    1.3439   54.9906   29.6482 H   0  0  0  0  0  0
    0.2649   55.8112   30.8818 H   0  0  0  0  0  0
    3.7717   50.9578   18.7567 H   0  0  0  0  0  0
  1  2  1  0  0  0
  1 28  1  0  0  0
  1 29  1  0  0  0
  1 30  1  0  0  0
  2  3  1  0  0  0
  2  4  1  0  0  0
  2 31  1  0  0  0
  3 32  1  0  0  0
  3 33  1  0  0  0
  3 34  1  0  0  0
  4  8  1  0  0  0
  4  5  1  0  0  0
  4 56  1  0  0  0
  5  6  1  0  0  0
  5 35  1  0  0  0
  5 36  1  0  0  0
  6  7  1  0  0  0
  6 37  1  0  0  0
  6 38  1  0  0  0
  7  8  1  0  0  0
  7  9  1  0  0  0
  7 39  1  0  0  0
  8 40  1  0  0  0
  8 41  1  0  0  0
  9 10  1  0  0  0
  9 42  1  0  0  0
  9 43  1  0  0  0
 10 11  1  0  0  0
 10 44  1  0  0  0
 11 12  2  0  0  0
 11 13  1  0  0  0
 13 14  2  0  0  0
 13 15  1  0  0  0
 15 16  1  0  0  0
 15 45  1  0  0  0
 16 21  2  0  0  0
 16 17  1  0  0  0
 17 18  2  0  0  0
 17 46  1  0  0  0
 18 19  1  0  0  0
 18 47  1  0  0  0
 19 20  2  0  0  0
 19 22  1  0  0  0
 20 21  1  0  0  0
 20 48  1  0  0  0
 21 49  1  0  0  0
 22 23  2  0  0  0
 22 24  1  0  0  0
 24 25  1  0  0  0
 24 50  1  0  0  0
 25 26  1  0  0  0
 25 51  1  0  0  0
 25 52  1  0  0  0
 26 27  2  0  0  0
 26 53  1  0  0  0
 27 54  1  0  0  0
 27 55  1  0  0  0
M  CHG  1   4   1
M  END
> <i_i_glide_confnum>
251

> <i_i_glide_lignum>
6223

> <i_i_glide_posenum>
215

> <i_i_glide_rotatable_bonds>
11

> <i_m_Source_File_Index>
1799

> <b_m_subgroup_collapsed>
0

> <r_i_docking_score>
-6.28308

> <r_i_glide_ecoul>
-6.26792

> <r_i_glide_eff_state_penalty>
0

> <r_i_glide_einternal>
8.20931

> <r_i_glide_emodel>
-64.6137

> <r_i_glide_energy>
-48.404

> <r_i_glide_erotb>
1.38554

> <r_i_glide_esite>
-0.0930765

> <r_i_glide_evdw>
-42.1361

> <r_i_glide_gscore>
-6.28308

> <r_i_glide_hbond>
-0.659862

> <r_i_glide_ligand_efficiency>
-0.232707

> <r_i_glide_ligand_efficiency_ln>
-1.4626

> <r_i_glide_ligand_efficiency_sa>
-0.69812

> <r_i_glide_lipo>
-1.91315

> <r_i_glide_metal>
0

> <r_i_glide_rewards>
-1.95554

> <s_i_glide_gridfile>
wee1_glide-grid

> <s_m_Source_File>
wee1_decoys_glide_SP.sdf

> <s_m_Source_Path>
/Users/zhangxujun/Desktop

> <s_m_entry_id>
2074

> <s_m_entry_name>
wee1_decoys_glide_SP.1799

> <s_m_subgroup_title>
wee1_decoys_glide_SP

> <s_m_subgroupid>
wee1_decoys_glide_SP


$$$$
