@<TRIPOS>MOLECULE
ZINC03770429_462
56   59    1
SMALL
USER_CHARGES


@<TRIPOS>ATOM
      1 C1         -3.6564   52.3597   23.6982 C.3       1 UNK         0.0000 
      2 C2         -2.5508   52.0361   24.6822 C.ar      1 UNK         0.0000 
      3 C3         -2.8348   51.3364   25.8572 C.ar      1 UNK         0.0000 
      4 C4         -1.8158   51.0485   26.7627 C.ar      1 UNK         0.0000 
      5 C5         -0.5108   51.4658   26.5045 C.ar      1 UNK         0.0000 
      6 C6         -0.2154   52.1869   25.3438 C.ar      1 UNK         0.0000 
      7 C7         -1.2430   52.4576   24.4258 C.ar      1 UNK         0.0000 
      8 N8          1.1170   52.6057   25.1908 N.am      1 UNK         0.0000 
      9 C9          1.6145   53.6141   24.4397 C.2       1 UNK         0.0000 
     10 O10         0.9509   54.3004   23.6756 O.2       1 UNK         0.0000 
     11 C11         3.0481   53.8188   24.5633 C.2       1 UNK         0.0000 
     12 C12         3.6461   53.9575   25.7867 C.2       1 UNK         0.0000 
     13 N13         4.9953   54.1532   25.9783 N.am      1 UNK         0.0000 
     14 C14         5.4575   54.0288   27.2659 C.2       1 UNK         0.0000 
     15 O15         6.6363   54.0334   27.6363 O.2       1 UNK         0.0000 
     16 C16         4.3249   53.8931   28.2845 C.3       1 UNK         0.0000 
     17 H17         4.3894   54.7642   28.9389 H         1 UNK         0.0000 
     18 S18         2.8043   54.0146   27.3619 S.3       1 UNK         0.0000 
     19 C19         4.4553   52.5821   29.1095 C.3       1 UNK         0.0000 
     20 C20         3.5292   52.4042   30.3238 C.2       1 UNK         0.0000 
     21 O21         3.9041   51.7373   31.2874 O.2       1 UNK         0.0000 
     22 O22         2.3135   52.9746   30.2040 O.3       1 UNK         0.0000 
     23 C23         1.2945   52.7276   31.1667 C.3       1 UNK         0.0000 
     24 C24         5.7788   54.4113   24.8425 C.2       1 UNK         0.0000 
     25 C25         5.3069   54.4006   23.5692 C.2       1 UNK         0.0000 
     26 C26         3.8357   54.0668   23.2471 C.3       1 UNK         0.0000 
     27 H27         3.4689   55.0290   22.8871 H         1 UNK         0.0000 
     28 C28         3.5832   53.1845   21.9973 C.ar      1 UNK         0.0000 
     29 C29         3.9048   53.6702   20.7202 C.ar      1 UNK         0.0000 
     30 C30         3.6790   52.9001   19.5784 C.ar      1 UNK         0.0000 
     31 C31         3.1042   51.6365   19.6904 C.ar      1 UNK         0.0000 
     32 C32         2.7599   51.1424   20.9448 C.ar      1 UNK         0.0000 
     33 C33         2.9969   51.9128   22.0817 C.ar      1 UNK         0.0000 
     34 F34         2.2024   49.9168   21.0626 F         1 UNK         0.0000 
     35 C35         6.1539   54.8443   22.4998 C.1       1 UNK         0.0000 
     36 N36         6.8315   55.2966   21.6762 N.1       1 UNK         0.0000 
     37 N37         7.1043   54.7224   25.0616 N.pl3     1 UNK         0.0000 
     38 H38        -4.6349   52.3621   24.1795 H         1 UNK         0.0000 
     39 H39        -3.5079   53.3573   23.2833 H         1 UNK         0.0000 
     40 H40        -3.6603   51.6365   22.8829 H         1 UNK         0.0000 
     41 H41        -3.8405   51.0055   26.0690 H         1 UNK         0.0000 
     42 H42        -2.0367   50.4969   27.6665 H         1 UNK         0.0000 
     43 H43         0.2610   51.2367   27.2258 H         1 UNK         0.0000 
     44 H44        -1.0462   52.9893   23.5083 H         1 UNK         0.0000 
     45 H45         1.7692   52.1770   25.8277 H         1 UNK         0.0000 
     46 H46         5.4803   52.4960   29.4720 H         1 UNK         0.0000 
     47 H47         4.2882   51.7097   28.4817 H         1 UNK         0.0000 
     48 H48         0.4440   53.3847   30.9851 H         1 UNK         0.0000 
     49 H49         1.6398   52.8964   32.1877 H         1 UNK         0.0000 
     50 H50         0.9444   51.6968   31.0988 H         1 UNK         0.0000 
     51 H51         4.3281   54.6565   20.6005 H         1 UNK         0.0000 
     52 H52         3.9447   53.2811   18.6026 H         1 UNK         0.0000 
     53 H53         2.9453   51.0344   18.8062 H         1 UNK         0.0000 
     54 H54         2.7041   51.4980   23.0339 H         1 UNK         0.0000 
     55 H55         7.7452   54.8968   24.2942 H         1 UNK         0.0000 
     56 H56         7.4999   54.5036   25.9676 H         1 UNK         0.0000 
@<TRIPOS>BOND
     1    1    2 1    
     2    1   38 1    
     3    1   39 1    
     4    1   40 1    
     5    2    7 ar   
     6    2    3 ar   
     7    3    4 ar   
     8    3   41 1    
     9    4    5 ar   
    10    4   42 1    
    11    5    6 ar   
    12    5   43 1    
    13    6    7 ar   
    14    6    8 1    
    15    7   44 1    
    16    8    9 am   BACKBONE|DICT|INTERRES
    17    8   45 1    
    18    9   10 2    
    19    9   11 1    
    20   11   26 1    
    21   11   12 2    
    22   12   18 1    
    23   12   13 am   BACKBONE|DICT|INTERRES
    24   13   14 am   BACKBONE|DICT|INTERRES
    25   13   24 1    
    26   14   15 2    
    27   14   16 1    
    28   16   17 1    
    29   16   18 1    
    30   16   19 1    
    31   19   20 1    
    32   19   46 1    
    33   19   47 1    
    34   20   21 2    
    35   20   22 1    
    36   22   23 1    
    37   23   48 1    
    38   23   49 1    
    39   23   50 1    
    40   24   25 2    
    41   24   37 1    
    42   25   26 1    
    43   25   35 1    
    44   26   27 1    
    45   26   28 1    
    46   28   33 ar   
    47   28   29 ar   
    48   29   30 ar   
    49   29   51 1    
    50   30   31 ar   
    51   30   52 1    
    52   31   32 ar   
    53   31   53 1    
    54   32   33 ar   
    55   32   34 1    
    56   33   54 1    
    57   35   36 3    
    58   37   55 1    
    59   37   56 1    
@<TRIPOS>SUBSTRUCTURE
     1 UNK         1 GROUP             0       ****    0 ROOT    
