@<TRIPOS>MOLECULE
ZINC14035296_3522
47   48    1
SMALL
USER_CHARGES


@<TRIPOS>ATOM
      1 C1          1.8967   55.4663   29.3536 C.3       1 UNK         0.0000 
      2 C2          1.3754   54.0970   29.8364 C.3       1 UNK         0.0000 
      3 C3          0.3196   54.2761   30.9449 C.3       1 UNK         0.0000 
      4 C4          0.7863   53.2477   28.6903 C.3       1 UNK         0.0000 
      5 O5          1.6691   53.1723   27.5669 O.3       1 UNK         0.0000 
      6 C6          1.1268   52.8468   26.3335 C.ar      1 UNK         0.0000 
      7 C7         -0.0605   52.0975   26.2380 C.ar      1 UNK         0.0000 
      8 C8         -0.6472   51.8234   25.0064 C.ar      1 UNK         0.0000 
      9 C9         -0.0592   52.2945   23.8426 C.ar      1 UNK         0.0000 
     10 C10         1.1332   53.0073   23.9095 C.ar      1 UNK         0.0000 
     11 C11         1.7704   53.2676   25.1431 C.ar      1 UNK         0.0000 
     12 C12         3.1051   54.0025   25.1685 C.2       1 UNK         0.0000 
     13 O13         3.5134   54.5717   26.1824 O.2       1 UNK         0.0000 
     14 N14         3.7602   53.9850   23.9844 N.am      1 UNK         0.0000 
     15 C15         5.0195   54.3507   23.5735 C.2       1 UNK         0.0000 
     16 S16         6.2914   54.8954   24.5138 S.2       1 UNK         0.0000 
     17 N17         5.2534   54.2411   22.2302 N.pl3     1 UNK         0.0000 
     18 N18         4.2652   53.8204   21.3179 N.am      1 UNK         0.0000 
     19 C19         4.2893   52.5359   20.9028 C.2       1 UNK         0.0000 
     20 O20         5.1041   51.6978   21.2840 O.2       1 UNK         0.0000 
     21 C21         3.1996   52.1456   19.9462 C.ar      1 UNK         0.0000 
     22 C22         3.0958   52.8156   18.7175 C.ar      1 UNK         0.0000 
     23 C23         2.0985   52.4730   17.8050 C.ar      1 UNK         0.0000 
     24 C24         1.1937   51.4585   18.1110 C.ar      1 UNK         0.0000 
     25 C25         1.2837   50.7891   19.3299 C.ar      1 UNK         0.0000 
     26 C26         2.2790   51.1204   20.2521 C.ar      1 UNK         0.0000 
     27 I27         2.3178   50.0200   22.0453 I         1 UNK         0.0000 
     28 H28         1.1055   56.0512   28.8817 H         1 UNK         0.0000 
     29 H29         2.7005   55.3499   28.6260 H         1 UNK         0.0000 
     30 H30         2.2982   56.0566   30.1797 H         1 UNK         0.0000 
     31 H31         2.2204   53.5465   30.2524 H         1 UNK         0.0000 
     32 H32        -0.4959   54.8955   30.5839 H         1 UNK         0.0000 
     33 H33        -0.0972   53.3212   31.2730 H         1 UNK         0.0000 
     34 H34         0.7098   54.7832   31.8273 H         1 UNK         0.0000 
     35 H35         0.5827   52.2380   29.0493 H         1 UNK         0.0000 
     36 H36        -0.1677   53.6913   28.3917 H         1 UNK         0.0000 
     37 H37        -0.5518   51.7160   27.1191 H         1 UNK         0.0000 
     38 H38        -1.5604   51.2479   24.9616 H         1 UNK         0.0000 
     39 H39        -0.5156   52.0917   22.8854 H         1 UNK         0.0000 
     40 H40         1.5450   53.3439   22.9662 H         1 UNK         0.0000 
     41 H41         3.2407   53.5004   23.2684 H         1 UNK         0.0000 
     42 H42         5.9479   54.8293   21.7925 H         1 UNK         0.0000 
     43 H43         3.8762   54.5722   20.7648 H         1 UNK         0.0000 
     44 H44         3.7956   53.5953   18.4481 H         1 UNK         0.0000 
     45 H45         2.0372   52.9836   16.8556 H         1 UNK         0.0000 
     46 H46         0.4278   51.1860   17.3998 H         1 UNK         0.0000 
     47 H47         0.5830   49.9984   19.5553 H         1 UNK         0.0000 
@<TRIPOS>BOND
     1    1    2 1    
     2    1   28 1    
     3    1   29 1    
     4    1   30 1    
     5    2    3 1    
     6    2    4 1    
     7    2   31 1    
     8    3   32 1    
     9    3   33 1    
    10    3   34 1    
    11    4    5 1    
    12    4   35 1    
    13    4   36 1    
    14    5    6 1    
    15    6   11 ar   
    16    6    7 ar   
    17    7    8 ar   
    18    7   37 1    
    19    8    9 ar   
    20    8   38 1    
    21    9   10 ar   
    22    9   39 1    
    23   10   11 ar   
    24   10   40 1    
    25   11   12 1    
    26   12   13 2    
    27   12   14 am   BACKBONE|DICT|INTERRES
    28   14   15 am   BACKBONE|DICT|INTERRES
    29   14   41 1    
    30   15   16 2    
    31   15   17 1    
    32   17   18 1    
    33   17   42 1    
    34   18   19 am   BACKBONE|DICT|INTERRES
    35   18   43 1    
    36   19   20 2    
    37   19   21 1    
    38   21   26 ar   
    39   21   22 ar   
    40   22   23 ar   
    41   22   44 1    
    42   23   24 ar   
    43   23   45 1    
    44   24   25 ar   
    45   24   46 1    
    46   25   26 ar   
    47   25   47 1    
    48   26   27 1    
@<TRIPOS>SUBSTRUCTURE
     1 UNK         1 GROUP             0       ****    0 ROOT    
