@<TRIPOS>MOLECULE
ZINC10121229_2850
64   66    1
SMALL
USER_CHARGES


@<TRIPOS>ATOM
      1 C1          2.6828   52.5058   30.7886 C.3       1 UNK         0.0000 
      2 C2          3.9048   53.1691   30.1282 C.3       1 UNK         0.0000 
      3 C3          3.6497   53.7481   28.7235 C.3       1 UNK         0.0000 
      4 H4          3.2881   52.9201   28.1117 H         1 UNK         0.0000 
      5 C5          2.6346   54.9085   28.7209 C.3       1 UNK         0.0000 
      6 O6          4.9107   54.2195   28.2407 O.3       1 UNK         0.0000 
      7 C7          5.1370   54.3952   26.8865 C.ar      1 UNK         0.0000 
      8 C8          6.3848   54.8973   26.5222 C.ar      1 UNK         0.0000 
      9 C9          6.7044   55.0978   25.1807 C.ar      1 UNK         0.0000 
     10 C10         5.7970   54.7675   24.1856 C.ar      1 UNK         0.0000 
     11 C11         4.5323   54.2653   24.5110 C.ar      1 UNK         0.0000 
     12 C12         4.2131   54.0964   25.8722 C.ar      1 UNK         0.0000 
     13 C13         3.5736   53.8775   23.4064 C.2       1 UNK         0.0000 
     14 O14         3.9512   53.8375   22.2322 O.2       1 UNK         0.0000 
     15 N15         2.3049   53.6198   23.8073 N.am      1 UNK         0.0000 
     16 C16         1.3792   52.7101   23.3720 C.2       1 UNK         0.0000 
     17 S17         1.6492   51.4858   22.2428 S.2       1 UNK         0.0000 
     18 N18         0.2044   52.8972   24.0443 N.pl3     1 UNK         0.0000 
     19 C19        -1.0238   52.2237   23.9853 C.ar      1 UNK         0.0000 
     20 C20        -1.6594   51.9451   22.7710 C.ar      1 UNK         0.0000 
     21 C21        -2.8955   51.3149   22.7703 C.ar      1 UNK         0.0000 
     22 C22        -3.5166   51.0050   23.9809 C.ar      1 UNK         0.0000 
     23 C23        -2.8848   51.2793   25.1956 C.ar      1 UNK         0.0000 
     24 C24        -1.6373   51.8950   25.1960 C.ar      1 UNK         0.0000 
     25 S25        -5.1604   50.3114   23.9746 S.o2      1 UNK         0.0000 
     26 O26        -5.3811   49.7219   22.6493 O.2       1 UNK         0.0000 
     27 O27        -5.3221   49.5139   25.1947 O.2       1 UNK         0.0000 
     28 N28        -6.2583   51.6971   24.0814 N.pl3     1 UNK         0.0000 
     29 C29        -6.5122   52.3551   25.2918 C.ar      1 UNK         0.0000 
     30 C30        -7.4627   51.8253   26.1882 C.ar      1 UNK         0.0000 
     31 C31        -7.6949   52.4647   27.4072 C.ar      1 UNK         0.0000 
     32 C32        -7.0066   53.6265   27.7352 C.ar      1 UNK         0.0000 
     33 C33        -6.0997   54.1781   26.8366 C.ar      1 UNK         0.0000 
     34 C34        -5.8500   53.5601   25.6087 C.ar      1 UNK         0.0000 
     35 C35        -4.8837   54.2457   24.6464 C.3       1 UNK         0.0000 
     36 C36        -8.2780   50.5762   25.8702 C.3       1 UNK         0.0000 
     37 H37         2.9451   52.0855   31.7618 H         1 UNK         0.0000 
     38 H38         2.2917   51.6970   30.1706 H         1 UNK         0.0000 
     39 H39         1.8717   53.2162   30.9504 H         1 UNK         0.0000 
     40 H40         4.3037   53.9511   30.7746 H         1 UNK         0.0000 
     41 H41         4.7027   52.4268   30.0543 H         1 UNK         0.0000 
     42 H42         1.6517   54.5891   29.0684 H         1 UNK         0.0000 
     43 H43         2.9682   55.7233   29.3646 H         1 UNK         0.0000 
     44 H44         2.4986   55.3208   27.7235 H         1 UNK         0.0000 
     45 H45         7.1022   55.1360   27.2940 H         1 UNK         0.0000 
     46 H46         7.6655   55.4884   24.8827 H         1 UNK         0.0000 
     47 H47         6.0907   54.9052   23.1537 H         1 UNK         0.0000 
     48 H48         3.2524   53.6930   26.1452 H         1 UNK         0.0000 
     49 H49         2.1325   53.9370   24.7467 H         1 UNK         0.0000 
     50 H50         0.2344   53.5857   24.7785 H         1 UNK         0.0000 
     51 H51        -1.2013   52.2141   21.8314 H         1 UNK         0.0000 
     52 H52        -3.3802   51.0959   21.8305 H         1 UNK         0.0000 
     53 H53        -3.3645   51.0332   26.1324 H         1 UNK         0.0000 
     54 H54        -1.1568   52.1133   26.1388 H         1 UNK         0.0000 
     55 H55        -6.5341   52.1459   23.2173 H         1 UNK         0.0000 
     56 H56        -8.4090   52.0577   28.1073 H         1 UNK         0.0000 
     57 H57        -7.1897   54.0967   28.6881 H         1 UNK         0.0000 
     58 H58        -5.5930   55.0959   27.1016 H         1 UNK         0.0000 
     59 H59        -4.1708   54.8804   25.1757 H         1 UNK         0.0000 
     60 H60        -4.2889   53.5301   24.0836 H         1 UNK         0.0000 
     61 H61        -5.4320   54.8591   23.9302 H         1 UNK         0.0000 
     62 H62        -9.2575   50.6146   26.3491 H         1 UNK         0.0000 
     63 H63        -8.4704   50.4808   24.8024 H         1 UNK         0.0000 
     64 H64        -7.7626   49.6801   26.2145 H         1 UNK         0.0000 
@<TRIPOS>BOND
     1    1    2 1    
     2    1   37 1    
     3    1   38 1    
     4    1   39 1    
     5    2    3 1    
     6    2   40 1    
     7    2   41 1    
     8    3    4 1    
     9    3    5 1    
    10    3    6 1    
    11    5   42 1    
    12    5   43 1    
    13    5   44 1    
    14    6    7 1    
    15    7   12 ar   
    16    7    8 ar   
    17    8    9 ar   
    18    8   45 1    
    19    9   10 ar   
    20    9   46 1    
    21   10   11 ar   
    22   10   47 1    
    23   11   12 ar   
    24   11   13 1    
    25   12   48 1    
    26   13   14 2    
    27   13   15 am   BACKBONE|DICT|INTERRES
    28   15   16 am   BACKBONE|DICT|INTERRES
    29   15   49 1    
    30   16   17 2    
    31   16   18 1    
    32   18   19 1    
    33   18   50 1    
    34   19   24 ar   
    35   19   20 ar   
    36   20   21 ar   
    37   20   51 1    
    38   21   22 ar   
    39   21   52 1    
    40   22   23 ar   
    41   22   25 1    
    42   23   24 ar   
    43   23   53 1    
    44   24   54 1    
    45   25   26 2    
    46   25   27 2    
    47   25   28 1    
    48   28   29 1    
    49   28   55 1    
    50   29   34 ar   
    51   29   30 ar   
    52   30   31 ar   
    53   30   36 1    
    54   31   32 ar   
    55   31   56 1    
    56   32   33 ar   
    57   32   57 1    
    58   33   34 ar   
    59   33   58 1    
    60   34   35 1    
    61   35   59 1    
    62   35   60 1    
    63   35   61 1    
    64   36   62 1    
    65   36   63 1    
    66   36   64 1    
@<TRIPOS>SUBSTRUCTURE
     1 UNK         1 GROUP             0       ****    0 ROOT    
