@<TRIPOS>MOLECULE
ZINC09507842_4561
56   59    1
SMALL
USER_CHARGES


@<TRIPOS>ATOM
      1 C1          0.1996   46.8309   17.6231 C.3       1 UNK         0.0000 
      2 C2          0.6291   47.8813   18.6307 C.ar      1 UNK         0.0000 
      3 C3          0.1947   47.8100   19.9555 C.ar      1 UNK         0.0000 
      4 C4          0.6078   48.7676   20.8816 C.ar      1 UNK         0.0000 
      5 C5          1.4413   49.8137   20.4887 C.ar      1 UNK         0.0000 
      6 C6          1.8396   49.9223   19.1475 C.ar      1 UNK         0.0000 
      7 C7          1.4455   48.9424   18.2313 C.ar      1 UNK         0.0000 
      8 C8          2.7024   51.0813   18.6697 C.3       1 UNK         0.0000 
      9 N9          1.8614   50.7463   21.4394 N.pl3     1 UNK         0.0000 
     10 S10         0.9152   52.1970   21.7340 S.o2      1 UNK         0.0000 
     11 O11         1.8224   53.1667   22.3577 O.2       1 UNK         0.0000 
     12 O12         0.1789   52.4967   20.5014 O.2       1 UNK         0.0000 
     13 C13        -0.2740   51.7078   22.9721 C.ar      1 UNK         0.0000 
     14 C14        -1.4941   51.1309   22.6197 C.ar      1 UNK         0.0000 
     15 C15        -2.3844   50.7318   23.6180 C.ar      1 UNK         0.0000 
     16 C16        -2.0649   50.9057   24.9712 C.ar      1 UNK         0.0000 
     17 C17        -0.8360   51.4932   25.3287 C.ar      1 UNK         0.0000 
     18 C18         0.0480   51.8801   24.3153 C.ar      1 UNK         0.0000 
     19 N19        -0.4924   51.6967   26.6734 N.pl3     1 UNK         0.0000 
     20 N20         0.7095   52.2775   27.0994 N.2       1 UNK         0.0000 
     21 C21         0.9063   52.4657   28.3380 C.2       1 UNK         0.0000 
     22 C22         2.1495   53.0460   28.9897 C.2       1 UNK         0.0000 
     23 N23         2.1197   53.0707   30.2604 N.2       1 UNK         0.0000 
     24 C24         0.9765   52.6023   30.8625 C.2       1 UNK         0.0000 
     25 N25         0.7044   52.4958   32.0820 N.2       1 UNK         0.0000 
     26 S26        -0.2290   52.0969   29.6783 S.3       1 UNK         0.0000 
     27 C27         3.3233   53.5509   28.2149 C.ar      1 UNK         0.0000 
     28 C28         3.2197   54.0390   26.8996 C.ar      1 UNK         0.0000 
     29 C29         4.3469   54.4947   26.2182 C.ar      1 UNK         0.0000 
     30 C30         5.5908   54.4780   26.8426 C.ar      1 UNK         0.0000 
     31 C31         5.7155   54.0027   28.1426 C.ar      1 UNK         0.0000 
     32 C32         4.5897   53.5404   28.8212 C.ar      1 UNK         0.0000 
     33 F33         6.6823   54.9340   26.1862 F         1 UNK         0.0000 
     34 C34        -3.0589   50.4486   26.0328 C.3       1 UNK         0.0000 
     35 H35        -0.7475   46.3705   17.9079 H         1 UNK         0.0000 
     36 H36         0.9613   46.0550   17.5335 H         1 UNK         0.0000 
     37 H37         0.0460   47.2802   16.6403 H         1 UNK         0.0000 
     38 H38        -0.4495   47.0042   20.2753 H         1 UNK         0.0000 
     39 H39         0.2822   48.6919   21.9089 H         1 UNK         0.0000 
     40 H40         1.7834   49.0069   17.2059 H         1 UNK         0.0000 
     41 H41         2.1246   52.0060   18.6498 H         1 UNK         0.0000 
     42 H42         3.5457   51.2358   19.3413 H         1 UNK         0.0000 
     43 H43         3.1042   50.8972   17.6753 H         1 UNK         0.0000 
     44 H44         2.5188   50.4686   22.1489 H         1 UNK         0.0000 
     45 H45        -1.7461   50.9806   21.5795 H         1 UNK         0.0000 
     46 H46        -3.3254   50.2796   23.3348 H         1 UNK         0.0000 
     47 H47         1.0016   52.3194   24.5717 H         1 UNK         0.0000 
     48 H48        -1.1051   51.3946   27.4201 H         1 UNK         0.0000 
     49 H49        -0.2245   52.1053   32.2977 H         1 UNK         0.0000 
     50 H50         2.2713   54.0955   26.3882 H         1 UNK         0.0000 
     51 H51         4.2549   54.8676   25.2086 H         1 UNK         0.0000 
     52 H52         6.6827   53.9979   28.6256 H         1 UNK         0.0000 
     53 H53         4.7043   53.1664   29.8274 H         1 UNK         0.0000 
     54 H54        -2.6012   49.6959   26.6784 H         1 UNK         0.0000 
     55 H55        -3.3512   51.2873   26.6670 H         1 UNK         0.0000 
     56 H56        -3.9631   50.0178   25.5999 H         1 UNK         0.0000 
@<TRIPOS>BOND
     1    1    2 1    
     2    1   35 1    
     3    1   36 1    
     4    1   37 1    
     5    2    7 ar   
     6    2    3 ar   
     7    3    4 ar   
     8    3   38 1    
     9    4    5 ar   
    10    4   39 1    
    11    5    6 ar   
    12    5    9 1    
    13    6    7 ar   
    14    6    8 1    
    15    7   40 1    
    16    8   41 1    
    17    8   42 1    
    18    8   43 1    
    19    9   10 1    
    20    9   44 1    
    21   10   11 2    
    22   10   12 2    
    23   10   13 1    
    24   13   18 ar   
    25   13   14 ar   
    26   14   15 ar   
    27   14   45 1    
    28   15   16 ar   
    29   15   46 1    
    30   16   17 ar   
    31   16   34 1    
    32   17   18 ar   
    33   17   19 1    
    34   18   47 1    
    35   19   20 1    
    36   19   48 1    
    37   20   21 2    
    38   21   26 1    
    39   21   22 1    
    40   22   23 2    
    41   22   27 1    
    42   23   24 1    
    43   24   25 2    
    44   24   26 1    
    45   25   49 1    
    46   27   32 ar   
    47   27   28 ar   
    48   28   29 ar   
    49   28   50 1    
    50   29   30 ar   
    51   29   51 1    
    52   30   31 ar   
    53   30   33 1    
    54   31   32 ar   
    55   31   52 1    
    56   32   53 1    
    57   34   54 1    
    58   34   55 1    
    59   34   56 1    
@<TRIPOS>SUBSTRUCTURE
     1 UNK         1 GROUP             0       ****    0 ROOT    
