@<TRIPOS>MOLECULE
ZINC33705185_4234
72   76    1
SMALL
USER_CHARGES


@<TRIPOS>ATOM
      1 C1          0.2121   53.8355   29.8333 C.3       1 UNK         0.0000 
      2 C2          1.5050   54.6460   30.0321 C.3       1 UNK         0.0000 
      3 C3          2.8436   53.8808   29.8122 C.3       1 UNK         0.0000 
      4 H4          3.5906   54.4680   30.3505 H         1 UNK         0.0000 
      5 C5          2.8586   52.4691   30.4389 C.3       1 UNK         0.0000 
      6 C6          3.3737   53.8723   28.3718 C.ar      1 UNK         0.0000 
      7 C7          4.7297   53.6154   28.1639 C.ar      1 UNK         0.0000 
      8 C8          5.2742   53.6962   26.8889 C.ar      1 UNK         0.0000 
      9 C9          4.4842   54.0657   25.7936 C.ar      1 UNK         0.0000 
     10 C10         3.1125   54.2447   25.9903 C.ar      1 UNK         0.0000 
     11 C11         2.5627   54.1503   27.2664 C.ar      1 UNK         0.0000 
     12 N12         5.0839   54.2469   24.5108 N.pl3     1 UNK         0.0000 
     13 C13         6.2948   54.8863   24.2823 C.ar      1 UNK         0.0000 
     14 C14         6.5908   54.7685   22.9476 C.ar      1 UNK         0.0000 
     15 C15         5.5013   54.2335   22.2699 C.ar      1 UNK         0.0000 
     16 C16         4.5874   53.8648   23.2617 C.ar      1 UNK         0.0000 
     17 C17         3.2483   53.1677   23.0773 C.3       1 UNK         0.0000 
     18 C18         5.3694   54.0305   20.8318 C.2       1 UNK         0.0000 
     19 C19         5.7904   54.7524   19.7497 C.2       1 UNK         0.0000 
     20 C20         5.5466   54.2096   18.4051 C.2       1 UNK         0.0000 
     21 N21         4.6851   53.3289   18.1182 N.2       1 UNK         0.0000 
     22 N22         6.4012   54.7684   17.3963 N.pl3     1 UNK         0.0000 
     23 C23         7.2645   55.8434   17.6988 C.2       1 UNK         0.0000 
     24 N24         7.3725   56.4011   18.8412 N.am      1 UNK         0.0000 
     25 C25         6.5181   56.0435   19.8964 C.2       1 UNK         0.0000 
     26 O26         6.3043   56.7593   20.8766 O.2       1 UNK         0.0000 
     27 S27         8.1784   56.3302   16.2670 S.3       1 UNK         0.0000 
     28 C28         7.4925   54.9560   15.3635 C.2       1 UNK         0.0000 
     29 N29         6.3117   54.5017   15.9721 N.pl3     1 UNK         0.0000 
     30 C30         8.0832   54.4525   14.2571 C.2       1 UNK         0.0000 
     31 C31         7.5872   53.3272   13.4964 C.2       1 UNK         0.0000 
     32 O32         7.2723   53.4955   12.3186 O.2       1 UNK         0.0000 
     33 N33         7.4715   52.1239   14.1296 N.am      1 UNK         0.0000 
     34 C34         6.9645   50.9556   13.3829 C.3       1 UNK         0.0000 
     35 C35         8.1921   50.1776   12.8539 C.3       1 UNK         0.0000 
     36 C36         9.1776   49.8019   13.9811 C.3       1 UNK         0.0000 
     37 C37         9.5068   51.0147   14.8786 C.3       1 UNK         0.0000 
     38 C38         8.2353   51.7644   15.3457 C.3       1 UNK         0.0000 
     39 C39         7.0875   55.6176   25.3350 C.3       1 UNK         0.0000 
     40 H40        -0.6553   54.4790   29.9661 H         1 UNK         0.0000 
     41 H41         0.1447   53.3863   28.8435 H         1 UNK         0.0000 
     42 H42         0.1253   53.0328   30.5661 H         1 UNK         0.0000 
     43 H43         1.4845   55.0388   31.0464 H         1 UNK         0.0000 
     44 H44         1.4801   55.5413   29.4080 H         1 UNK         0.0000 
     45 H45         3.8610   52.0392   30.4321 H         1 UNK         0.0000 
     46 H46         2.5224   52.4893   31.4765 H         1 UNK         0.0000 
     47 H47         2.2050   51.7861   29.8928 H         1 UNK         0.0000 
     48 H48         5.3732   53.3625   28.9930 H         1 UNK         0.0000 
     49 H49         6.3126   53.4348   26.7698 H         1 UNK         0.0000 
     50 H50         2.4584   54.4981   25.1712 H         1 UNK         0.0000 
     51 H51         1.5080   54.3367   27.3792 H         1 UNK         0.0000 
     52 H52         7.4983   55.1377   22.4904 H         1 UNK         0.0000 
     53 H53         3.2299   52.5511   22.1794 H         1 UNK         0.0000 
     54 H54         3.0054   52.4975   23.9003 H         1 UNK         0.0000 
     55 H55         2.4320   53.8833   22.9745 H         1 UNK         0.0000 
     56 H56         4.8215   53.1167   20.6435 H         1 UNK         0.0000 
     57 H57         4.6795   53.0797   17.1422 H         1 UNK         0.0000 
     58 H58         8.9862   54.8931   13.8633 H         1 UNK         0.0000 
     59 H59         6.2502   53.4993   15.8454 H         1 UNK         0.0000 
     60 H60         6.2356   51.2310   12.6198 H         1 UNK         0.0000 
     61 H61         6.3947   50.3433   14.0795 H         1 UNK         0.0000 
     62 H62         8.7019   50.7723   12.0934 H         1 UNK         0.0000 
     63 H63         7.8561   49.2757   12.3424 H         1 UNK         0.0000 
     64 H64         8.7378   49.0117   14.5910 H         1 UNK         0.0000 
     65 H65        10.0923   49.3830   13.5573 H         1 UNK         0.0000 
     66 H66        10.0746   50.6838   15.7494 H         1 UNK         0.0000 
     67 H67        10.1615   51.7080   14.3455 H         1 UNK         0.0000 
     68 H68         8.4310   52.6001   16.0172 H         1 UNK         0.0000 
     69 H69         7.6040   51.1081   15.9427 H         1 UNK         0.0000 
     70 H70         7.9045   56.1614   24.8718 H         1 UNK         0.0000 
     71 H71         6.4738   56.3569   25.8410 H         1 UNK         0.0000 
     72 H72         7.5041   54.9586   26.0887 H         1 UNK         0.0000 
@<TRIPOS>BOND
     1    1    2 1    
     2    1   40 1    
     3    1   41 1    
     4    1   42 1    
     5    2    3 1    
     6    2   43 1    
     7    2   44 1    
     8    3    4 1    
     9    3    5 1    
    10    3    6 1    
    11    5   45 1    
    12    5   46 1    
    13    5   47 1    
    14    6   11 ar   
    15    6    7 ar   
    16    7    8 ar   
    17    7   48 1    
    18    8    9 ar   
    19    8   49 1    
    20    9   10 ar   
    21    9   12 1    
    22   10   11 ar   
    23   10   50 1    
    24   11   51 1    
    25   12   16 ar   
    26   12   13 ar   
    27   13   14 ar   
    28   13   39 1    
    29   14   15 ar   
    30   14   52 1    
    31   15   16 ar   
    32   15   18 1    
    33   16   17 1    
    34   17   53 1    
    35   17   54 1    
    36   17   55 1    
    37   18   19 2    
    38   18   56 1    
    39   19   25 1    
    40   19   20 1    
    41   20   21 2    
    42   20   22 1    
    43   21   57 1    
    44   22   23 1    
    45   22   29 1    
    46   23   24 2    BACKBONE|DICT|INTERRES
    47   23   27 1    
    48   24   25 am   BACKBONE|DICT|INTERRES
    49   25   26 2    
    50   27   28 1    
    51   28   30 2    
    52   28   29 1    
    53   29   59 1    
    54   30   31 1    
    55   30   58 1    
    56   31   32 2    
    57   31   33 am   BACKBONE|DICT|INTERRES
    58   33   38 1    
    59   33   34 1    
    60   34   35 1    
    61   34   60 1    
    62   34   61 1    
    63   35   36 1    
    64   35   62 1    
    65   35   63 1    
    66   36   37 1    
    67   36   64 1    
    68   36   65 1    
    69   37   38 1    
    70   37   66 1    
    71   37   67 1    
    72   38   68 1    
    73   38   69 1    
    74   39   70 1    
    75   39   71 1    
    76   39   72 1    
@<TRIPOS>SUBSTRUCTURE
     1 UNK         1 GROUP             0       ****    0 ROOT    
