@<TRIPOS>MOLECULE
ZINC00663242_3912
47   50    1
SMALL
USER_CHARGES


@<TRIPOS>ATOM
      1 C1          6.6202   54.5501   17.8036 C.ar      1 UNK         0.0000 
      2 C2          5.6473   53.9612   17.0035 C.ar      1 UNK         0.0000 
      3 C3          4.5129   53.3999   17.5839 C.ar      1 UNK         0.0000 
      4 C4          4.3361   53.4149   18.9796 C.ar      1 UNK         0.0000 
      5 C5          5.3293   54.0023   19.7851 C.ar      1 UNK         0.0000 
      6 C6          6.4643   54.5742   19.1876 C.ar      1 UNK         0.0000 
      7 N7          5.1013   53.9739   21.1753 N.am      1 UNK         0.0000 
      8 C8          5.8008   54.4966   22.2026 C.2       1 UNK         0.0000 
      9 O9          6.9009   55.0459   22.1058 O.2       1 UNK         0.0000 
     10 C10         5.1467   54.3461   23.4908 C.2       1 UNK         0.0000 
     11 C11         3.7999   54.0968   23.8073 C.2       1 UNK         0.0000 
     12 C12         3.5747   53.9756   25.2152 C.ar      1 UNK         0.0000 
     13 C13         2.4077   53.6967   25.9514 C.ar      1 UNK         0.0000 
     14 C14         2.4494   53.6961   27.3514 C.ar      1 UNK         0.0000 
     15 C15         3.6828   53.9642   27.9745 C.ar      1 UNK         0.0000 
     16 N16         4.8373   54.1909   27.2900 N.ar      1 UNK         0.0000 
     17 C17         4.7601   54.1966   25.9608 C.ar      1 UNK         0.0000 
     18 S18         6.1453   54.4994   24.9357 S.3       1 UNK         0.0000 
     19 C19         3.8094   54.0862   29.4900 C.3       1 UNK         0.0000 
     20 C20         3.5053   52.8053   30.2860 C.3       1 UNK         0.0000 
     21 C21         2.0056   52.5247   30.4610 C.3       1 UNK         0.0000 
     22 C22         1.2558   52.2264   29.1555 C.3       1 UNK         0.0000 
     23 C23         1.1826   53.3995   28.1577 C.3       1 UNK         0.0000 
     24 N24         2.7669   53.9993   22.9019 N.pl3     1 UNK         0.0000 
     25 O25         3.2256   52.8826   19.6198 O.3       1 UNK         0.0000 
     26 C26         2.1197   52.3739   18.8747 C.3       1 UNK         0.0000 
     27 F27         1.1810   52.0335   19.7556 F         1 UNK         0.0000 
     28 F28         1.5897   53.2967   18.0700 F         1 UNK         0.0000 
     29 F29         2.4404   51.2819   18.1854 F         1 UNK         0.0000 
     30 H30         7.5012   54.9851   17.3549 H         1 UNK         0.0000 
     31 H31         5.7757   53.9326   15.9304 H         1 UNK         0.0000 
     32 H32         3.7861   52.9436   16.9292 H         1 UNK         0.0000 
     33 H33         7.2467   55.0335   19.7670 H         1 UNK         0.0000 
     34 H34         4.2523   53.4936   21.4357 H         1 UNK         0.0000 
     35 H35         1.4803   53.5029   25.4362 H         1 UNK         0.0000 
     36 H36         4.8214   54.4140   29.7383 H         1 UNK         0.0000 
     37 H37         3.1660   54.9002   29.8240 H         1 UNK         0.0000 
     38 H38         3.9481   52.8953   31.2789 H         1 UNK         0.0000 
     39 H39         4.0055   51.9507   29.8274 H         1 UNK         0.0000 
     40 H40         1.5288   53.3694   30.9588 H         1 UNK         0.0000 
     41 H41         1.8790   51.6926   31.1504 H         1 UNK         0.0000 
     42 H42         0.2373   51.9334   29.4181 H         1 UNK         0.0000 
     43 H43         1.6874   51.3513   28.6672 H         1 UNK         0.0000 
     44 H44         0.8575   54.3156   28.6537 H         1 UNK         0.0000 
     45 H45         0.3792   53.1760   27.4555 H         1 UNK         0.0000 
     46 H46         1.8285   53.7801   23.2047 H         1 UNK         0.0000 
     47 H47         2.8495   54.2742   21.9296 H         1 UNK         0.0000 
@<TRIPOS>BOND
     1    1    6 ar   
     2    1    2 ar   
     3    1   30 1    
     4    2    3 ar   
     5    2   31 1    
     6    3    4 ar   
     7    3   32 1    
     8    4    5 ar   
     9    4   25 1    
    10    5    6 ar   
    11    5    7 1    
    12    6   33 1    
    13    7    8 am   BACKBONE|DICT|INTERRES
    14    7   34 1    
    15    8    9 2    
    16    8   10 1    
    17   10   18 1    
    18   10   11 2    
    19   11   12 1    
    20   11   24 1    
    21   12   17 ar   
    22   12   13 ar   
    23   13   14 ar   
    24   13   35 1    
    25   14   23 1    
    26   14   15 ar   
    27   15   16 ar   
    28   15   19 1    
    29   16   17 ar   
    30   17   18 1    
    31   19   20 1    
    32   19   36 1    
    33   19   37 1    
    34   20   21 1    
    35   20   38 1    
    36   20   39 1    
    37   21   22 1    
    38   21   40 1    
    39   21   41 1    
    40   22   23 1    
    41   22   42 1    
    42   22   43 1    
    43   23   44 1    
    44   23   45 1    
    45   24   46 1    
    46   24   47 1    
    47   25   26 1    
    48   26   27 1    
    49   26   28 1    
    50   26   29 1    
@<TRIPOS>SUBSTRUCTURE
     1 UNK         1 GROUP             0       ****    0 ROOT    
