ZINC19317396_5146
                    3D
 Schrodinger Suite 2024-2.
 65 68  0  0  1  0            999 V2000
    1.9562   52.4260   29.6832 C   0  0  0  0  0  0
    2.9017   53.4790   29.0475 C   0  0  0  0  0  0
    2.3722   54.8959   29.4068 C   0  0  0  0  0  0
    4.2924   53.3025   29.7072 C   0  0  0  0  0  0
    2.9974   53.2633   27.4882 C   0  0  1  0  0  0
    3.2832   52.2203   27.3499 H   0  0  0  0  0  0
    1.6416   53.4701   26.7559 C   0  0  0  0  0  0
    1.6574   53.0712   25.2670 C   0  0  0  0  0  0
    2.9055   53.6405   24.6190 C   0  0  0  0  0  0
    4.0282   54.0967   25.3111 C   0  0  0  0  0  0
    5.0794   54.4115   24.4429 C   0  0  0  0  0  0
    4.7788   54.2538   23.0914 C   0  0  0  0  0  0
    3.1396   53.6978   22.9027 S   0  0  0  0  0  0
    5.6479   54.6057   21.9562 C   0  0  0  0  0  0
    6.7046   55.3667   22.1075 N   0  0  0  0  0  0
    7.2576   55.5941   20.8564 N   0  0  0  0  0  0
    6.5344   54.9297   19.9908 C   0  0  0  0  0  0
    5.5044   54.2608   20.6238 N   0  0  0  0  0  0
    4.5336   53.3562   20.0196 C   0  0  0  0  0  0
    6.8593   54.9316   18.2619 S   0  0  0  0  0  0
    6.1326   56.5654   17.8812 C   0  0  0  0  0  0
    4.6325   56.5371   17.5543 C   0  0  0  0  0  0
    3.9070   55.6959   18.0813 O   0  0  0  0  0  0
    4.1900   57.5036   16.7221 N   0  0  0  0  0  0
    2.8882   57.7056   16.2248 C   0  0  0  0  0  0
    1.8717   56.7361   16.2307 C   0  0  0  0  0  0
    0.6109   57.0405   15.7259 C   0  0  0  0  0  0
    0.3482   58.3065   15.2101 C   0  0  0  0  0  0
    1.3467   59.2938   15.1847 C   0  0  0  0  0  0
    2.6207   58.9663   15.6827 C   0  0  0  0  0  0
    1.0178   60.6712   14.6440 C   0  0  0  0  0  0
   -0.0328   60.8714   14.0302 O   0  0  0  0  0  0
    1.9055   61.6535   14.8841 N   0  0  0  0  0  0
    1.7407   63.0308   14.4434 C   0  0  0  0  0  0
    4.1098   54.1414   26.8316 C   0  0  0  0  0  0
    1.9934   52.4546   30.7735 H   0  0  0  0  0  0
    2.2195   51.4135   29.3775 H   0  0  0  0  0  0
    0.9124   52.5862   29.4117 H   0  0  0  0  0  0
    3.0066   55.6917   29.0199 H   0  0  0  0  0  0
    1.3649   55.0681   29.0314 H   0  0  0  0  0  0
    2.3173   55.0421   30.4820 H   0  0  0  0  0  0
    4.9919   54.0856   29.4081 H   0  0  0  0  0  0
    4.2265   53.3416   30.7933 H   0  0  0  0  0  0
    4.7403   52.3420   29.4475 H   0  0  0  0  0  0
    0.8601   52.8815   27.2304 H   0  0  0  0  0  0
    1.3200   54.4967   26.8829 H   0  0  0  0  0  0
    1.6538   51.9840   25.1765 H   0  0  0  0  0  0
    0.7559   53.4308   24.7701 H   0  0  0  0  0  0
    6.0380   54.7671   24.7939 H   0  0  0  0  0  0
    4.8660   53.0342   19.0304 H   0  0  0  0  0  0
    4.4077   52.4704   20.6476 H   0  0  0  0  0  0
    3.5762   53.8745   19.9159 H   0  0  0  0  0  0
    6.3062   57.2604   18.7022 H   0  0  0  0  0  0
    6.6771   56.9499   17.0182 H   0  0  0  0  0  0
    4.8483   58.2264   16.4739 H   0  0  0  0  0  0
    2.0325   55.7425   16.6172 H   0  0  0  0  0  0
   -0.1681   56.2920   15.7377 H   0  0  0  0  0  0
   -0.6445   58.5158   14.8371 H   0  0  0  0  0  0
    3.4179   59.6971   15.6760 H   0  0  0  0  0  0
    2.7334   61.4646   15.4492 H   0  0  0  0  0  0
    2.6172   63.6146   14.7228 H   0  0  0  0  0  0
    1.6271   63.0829   13.3584 H   0  0  0  0  0  0
    0.8654   63.4862   14.9086 H   0  0  0  0  0  0
    4.0315   55.1830   27.1367 H   0  0  0  0  0  0
    5.0975   53.7994   27.1444 H   0  0  0  0  0  0
  1  2  1  0  0  0
  1 36  1  0  0  0
  1 37  1  0  0  0
  1 38  1  0  0  0
  2  3  1  0  0  0
  2  4  1  0  0  0
  2  5  1  0  0  0
  3 39  1  0  0  0
  3 40  1  0  0  0
  3 41  1  0  0  0
  4 42  1  0  0  0
  4 43  1  0  0  0
  4 44  1  0  0  0
  5  6  1  0  0  0
  5 35  1  0  0  0
  5  7  1  0  0  0
  7  8  1  0  0  0
  7 45  1  0  0  0
  7 46  1  0  0  0
  8  9  1  0  0  0
  8 47  1  0  0  0
  8 48  1  0  0  0
  9 13  1  0  0  0
  9 10  2  0  0  0
 10 11  1  0  0  0
 10 35  1  0  0  0
 11 12  2  0  0  0
 11 49  1  0  0  0
 12 13  1  0  0  0
 12 14  1  0  0  0
 14 18  1  0  0  0
 14 15  2  0  0  0
 15 16  1  0  0  0
 16 17  2  0  0  0
 17 18  1  0  0  0
 17 20  1  0  0  0
 18 19  1  0  0  0
 19 50  1  0  0  0
 19 51  1  0  0  0
 19 52  1  0  0  0
 20 21  1  0  0  0
 21 22  1  0  0  0
 21 53  1  0  0  0
 21 54  1  0  0  0
 22 23  2  0  0  0
 22 24  1  0  0  0
 24 25  1  0  0  0
 24 55  1  0  0  0
 25 30  2  0  0  0
 25 26  1  0  0  0
 26 27  2  0  0  0
 26 56  1  0  0  0
 27 28  1  0  0  0
 27 57  1  0  0  0
 28 29  2  0  0  0
 28 58  1  0  0  0
 29 30  1  0  0  0
 29 31  1  0  0  0
 30 59  1  0  0  0
 31 32  2  0  0  0
 31 33  1  0  0  0
 33 34  1  0  0  0
 33 60  1  0  0  0
 34 61  1  0  0  0
 34 62  1  0  0  0
 34 63  1  0  0  0
 35 64  1  0  0  0
 35 65  1  0  0  0
M  END
> <i_i_glide_confnum>
56

> <i_i_glide_lignum>
5147

> <i_i_glide_posenum>
145

> <i_i_glide_rotatable_bonds>
9

> <i_m_Source_File_Index>
3774

> <b_m_subgroup_collapsed>
0

> <r_i_docking_score>
-5.53039

> <r_i_glide_ecoul>
-4.30898

> <r_i_glide_eff_state_penalty>
0

> <r_i_glide_einternal>
8.83863

> <r_i_glide_emodel>
-61.0554

> <r_i_glide_energy>
-46.2216

> <r_i_glide_erotb>
0.576565

> <r_i_glide_esite>
-0.145755

> <r_i_glide_evdw>
-41.9127

> <r_i_glide_gscore>
-5.53039

> <r_i_glide_hbond>
-0.16

> <r_i_glide_ligand_efficiency>
-0.162658

> <r_i_glide_ligand_efficiency_ln>
-1.22182

> <r_i_glide_ligand_efficiency_sa>
-0.52695

> <r_i_glide_lipo>
-2.35778

> <r_i_glide_metal>
0

> <r_i_glide_rewards>
-0.701436

> <s_i_glide_gridfile>
wee1_glide-grid

> <s_m_Source_File>
wee1_decoys_glide_SP.sdf

> <s_m_Source_Path>
/Users/zhangxujun/Desktop

> <s_m_entry_id>
4049

> <s_m_entry_name>
wee1_decoys_glide_SP.3774

> <s_m_subgroup_title>
wee1_decoys_glide_SP

> <s_m_subgroupid>
wee1_decoys_glide_SP


$$$$
