@<TRIPOS>MOLECULE
ZINC22917874_6054
64   67    1
SMALL
USER_CHARGES


@<TRIPOS>ATOM
      1 C1         -1.6409   51.4691   29.4611 C.3       1 UNK         0.0000 
      2 C2         -0.4957   52.2041   28.8055 C.2       1 UNK         0.0000 
      3 C3          0.3835   53.0042   29.5423 C.2       1 UNK         0.0000 
      4 S4          1.5992   53.6603   28.5268 S.3       1 UNK         0.0000 
      5 C5          0.9660   52.8599   27.1133 C.2       1 UNK         0.0000 
      6 C6         -0.1836   52.0891   27.4195 C.2       1 UNK         0.0000 
      7 C7         -1.0381   51.1999   26.4567 C.3       1 UNK         0.0000 
      8 H8         -1.0492   50.2034   26.9050 H         1 UNK         0.0000 
      9 C9         -2.5229   51.6011   26.4267 C.ar      1 UNK         0.0000 
     10 C10        -3.5122   50.6619   26.7397 C.ar      1 UNK         0.0000 
     11 C11        -4.8561   51.0296   26.7304 C.ar      1 UNK         0.0000 
     12 C12        -5.2157   52.3380   26.3973 C.ar      1 UNK         0.0000 
     13 C13        -4.2347   53.2695   26.0646 C.ar      1 UNK         0.0000 
     14 C14        -2.8953   52.8967   26.0808 C.ar      1 UNK         0.0000 
     15 S15        -6.9069   52.8662   26.3986 S.3       1 UNK         0.0000 
     16 C16        -7.9641   51.4554   26.8316 C.3       1 UNK         0.0000 
     17 N17        -0.4367   51.0386   25.1066 N.3       1 UNK         0.0000 
     18 C18         0.5518   49.9559   25.1892 C.3       1 UNK         0.0000 
     19 C19         1.4563   50.0072   23.9480 C.3       1 UNK         0.0000 
     20 N20         0.5836   49.6407   22.7320 N.4       1 UNK         0.0000 
     21 C21        -0.5978   50.6353   22.6245 C.3       1 UNK         0.0000 
     22 C22        -1.3488   50.7294   23.9820 C.3       1 UNK         0.0000 
     23 C23         1.4260   49.6138   21.4376 C.3       1 UNK         0.0000 
     24 N24         1.5690   53.0159   25.8576 N.am      1 UNK         0.0000 
     25 C25         2.7044   53.6977   25.5419 C.2       1 UNK         0.0000 
     26 O26         3.4146   54.2884   26.3584 O.2       1 UNK         0.0000 
     27 C27         3.1360   53.6963   24.0898 C.ar      1 UNK         0.0000 
     28 C28         4.4759   53.9758   23.7713 C.ar      1 UNK         0.0000 
     29 C29         4.9272   53.8990   22.4573 C.ar      1 UNK         0.0000 
     30 C30         4.0400   53.5457   21.4467 C.ar      1 UNK         0.0000 
     31 C31         2.7033   53.2968   21.7394 C.ar      1 UNK         0.0000 
     32 C32         2.2425   53.4037   23.0494 C.ar      1 UNK         0.0000 
     33 C33         0.4007   53.3418   31.0196 C.3       1 UNK         0.0000 
     34 H34        -2.5907   51.9582   29.2779 H         1 UNK         0.0000 
     35 H35        -1.7723   50.4967   29.0206 H         1 UNK         0.0000 
     36 H36        -1.5115   51.2914   30.5295 H         1 UNK         0.0000 
     37 H37        -3.2378   49.6525   27.0162 H         1 UNK         0.0000 
     38 H38        -5.5978   50.2919   26.9934 H         1 UNK         0.0000 
     39 H39        -4.5062   54.2823   25.8084 H         1 UNK         0.0000 
     40 H40        -2.1296   53.6128   25.8482 H         1 UNK         0.0000 
     41 H41        -9.0114   51.7594   26.8249 H         1 UNK         0.0000 
     42 H42        -7.8422   50.6468   26.1103 H         1 UNK         0.0000 
     43 H43        -7.7246   51.0859   27.8280 H         1 UNK         0.0000 
     44 H44         1.1049   50.0627   26.1166 H         1 UNK         0.0000 
     45 H45         0.0556   48.9858   25.2832 H         1 UNK         0.0000 
     46 H46         2.2670   49.2967   24.0099 H         1 UNK         0.0000 
     47 H47         1.9038   50.9814   23.7779 H         1 UNK         0.0000 
     48 H48        -1.2560   50.2357   21.8521 H         1 UNK         0.0000 
     49 H49        -0.1921   51.5975   22.3093 H         1 UNK         0.0000 
     50 H50        -1.8240   49.7711   24.2051 H         1 UNK         0.0000 
     51 H51        -2.1280   51.4855   23.8845 H         1 UNK         0.0000 
     52 H52         1.8421   50.6084   21.2710 H         1 UNK         0.0000 
     53 H53         2.2186   48.8753   21.5744 H         1 UNK         0.0000 
     54 H54         0.7657   49.3201   20.6198 H         1 UNK         0.0000 
     55 H55         1.0899   52.5209   25.1180 H         1 UNK         0.0000 
     56 H56         5.1887   54.2229   24.5461 H         1 UNK         0.0000 
     57 H57         5.9625   54.1032   22.2262 H         1 UNK         0.0000 
     58 H58         4.3849   53.4803   20.4245 H         1 UNK         0.0000 
     59 H59         2.0178   53.0582   20.9393 H         1 UNK         0.0000 
     60 H60         1.1941   53.2321   23.2447 H         1 UNK         0.0000 
     61 H61         1.0992   52.7078   31.5664 H         1 UNK         0.0000 
     62 H62         0.6988   54.3765   31.1969 H         1 UNK         0.0000 
     63 H63        -0.5703   53.2222   31.4959 H         1 UNK         0.0000 
     64 H64         0.2098   48.7170   22.9066 H         1 UNK         0.0000 
@<TRIPOS>BOND
     1    1    2 1    
     2    1   34 1    
     3    1   35 1    
     4    1   36 1    
     5    2    6 1    
     6    2    3 2    
     7    3    4 1    
     8    3   33 1    
     9    4    5 1    
    10    5    6 2    
    11    5   24 am   BACKBONE|DICT|INTERRES
    12    6    7 1    
    13    7    8 1    
    14    7    9 1    
    15    7   17 1    
    16    9   14 ar   
    17    9   10 ar   
    18   10   11 ar   
    19   10   37 1    
    20   11   12 ar   
    21   11   38 1    
    22   12   13 ar   
    23   12   15 1    
    24   13   14 ar   
    25   13   39 1    
    26   14   40 1    
    27   15   16 1    
    28   16   41 1    
    29   16   42 1    
    30   16   43 1    
    31   17   22 1    
    32   17   18 1    
    33   18   19 1    
    34   18   44 1    
    35   18   45 1    
    36   19   20 1    
    37   19   46 1    
    38   19   47 1    
    39   20   21 1    
    40   20   23 1    
    41   20   64 1    
    42   21   22 1    
    43   21   48 1    
    44   21   49 1    
    45   22   50 1    
    46   22   51 1    
    47   23   52 1    
    48   23   53 1    
    49   23   54 1    
    50   24   25 am   BACKBONE|DICT|INTERRES
    51   24   55 1    
    52   25   26 2    
    53   25   27 1    
    54   27   32 ar   
    55   27   28 ar   
    56   28   29 ar   
    57   28   56 1    
    58   29   30 ar   
    59   29   57 1    
    60   30   31 ar   
    61   30   58 1    
    62   31   32 ar   
    63   31   59 1    
    64   32   60 1    
    65   33   61 1    
    66   33   62 1    
    67   33   63 1    
@<TRIPOS>SUBSTRUCTURE
     1 UNK         1 GROUP             0       ****    0 ROOT    
