ZINC39992136_137
                    3D
 Schrodinger Suite 2024-2.
 55 58  0  0  1  0            999 V2000
    1.9388   48.1393   19.6336 C   0  0  0  0  0  0
    2.1839   49.6439   19.4601 C   0  0  0  0  0  0
    2.2925   50.3433   20.7402 N   0  0  0  0  0  0
    1.2522   50.7039   21.5124 C   0  0  0  0  0  0
    0.0812   50.4844   21.2016 O   0  0  0  0  0  0
    1.5816   51.4523   22.8229 C   0  0  1  0  0  0
    2.6030   51.1756   23.0842 H   0  0  0  0  0  0
    1.4596   52.9800   22.5989 C   0  0  1  0  0  0
    0.6952   53.1837   21.8480 H   0  0  0  0  0  0
    0.7050   53.6966   24.0778 S   0  0  0  0  0  0
    0.3007   52.1237   24.7617 C   0  0  0  0  0  0
    0.7205   51.0709   24.0253 C   0  0  0  0  0  0
    0.5485   49.6289   24.5038 C   0  0  0  0  0  0
   -0.5314   49.5032   25.6030 C   0  0  0  0  0  0
   -0.3937   50.6066   26.6669 C   0  0  0  0  0  0
   -0.4970   52.0164   26.0548 C   0  0  0  0  0  0
    2.7124   53.5850   22.1195 N   0  0  0  0  0  0
    3.7954   53.8662   22.8775 C   0  0  0  0  0  0
    3.7925   53.6963   24.0972 O   0  0  0  0  0  0
    4.9946   54.3449   22.2074 C   0  0  0  0  0  0
    5.1968   54.2304   20.8675 C   0  0  0  0  0  0
    6.3794   54.6771   20.1355 C   0  0  0  0  0  0
    6.7380   54.3075   18.8870 C   0  0  0  0  0  0
    6.0871   53.3853   17.9389 C   0  0  0  0  0  0
    6.6419   53.1113   16.7424 C   0  0  0  0  0  0
    7.9030   53.7571   16.4100 C   0  0  0  0  0  0
    8.5199   54.6129   17.2662 C   0  0  0  0  0  0
    7.9539   54.8966   18.5158 C   0  0  0  0  0  0
    8.4057   55.6625   19.4738 N   0  3  0  0  0  0
    7.4698   55.6290   20.6063 C   0  0  0  0  0  0
    5.9676   54.8841   23.1054 C   0  0  0  0  0  0
    6.7044   55.3000   23.8929 N   0  0  0  0  0  0
    1.9672   47.6298   18.6699 H   0  0  0  0  0  0
    2.7045   47.6969   20.2693 H   0  0  0  0  0  0
    0.9627   47.9427   20.0791 H   0  0  0  0  0  0
    1.3891   50.0841   18.8532 H   0  0  0  0  0  0
    3.1043   49.8000   18.8959 H   0  0  0  0  0  0
    3.2266   50.5574   21.0527 H   0  0  0  0  0  0
    1.5042   49.2893   24.8970 H   0  0  0  0  0  0
    0.3502   48.9389   23.6833 H   0  0  0  0  0  0
   -1.5222   49.5562   25.1529 H   0  0  0  0  0  0
   -0.4678   48.5228   26.0793 H   0  0  0  0  0  0
   -1.1541   50.4965   27.4407 H   0  0  0  0  0  0
    0.5662   50.4953   27.1734 H   0  0  0  0  0  0
   -1.5434   52.2570   25.8629 H   0  0  0  0  0  0
   -0.1681   52.7484   26.7936 H   0  0  0  0  0  0
    2.6752   53.9386   21.1738 H   0  0  0  0  0  0
    4.4351   53.7616   20.2598 H   0  0  0  0  0  0
    5.1518   52.8967   18.1710 H   0  0  0  0  0  0
    6.1657   52.4244   16.0546 H   0  0  0  0  0  0
    8.3588   53.5484   15.4531 H   0  0  0  0  0  0
    9.4553   55.0618   16.9649 H   0  0  0  0  0  0
    7.0953   56.6377   20.7669 H   0  0  0  0  0  0
    8.0283   55.2955   21.4819 H   0  0  0  0  0  0
    9.2811   56.1830   19.4576 H   0  0  0  0  0  0
  1  2  1  0  0  0
  1 33  1  0  0  0
  1 34  1  0  0  0
  1 35  1  0  0  0
  2  3  1  0  0  0
  2 36  1  0  0  0
  2 37  1  0  0  0
  3  4  1  0  0  0
  3 38  1  0  0  0
  4  5  2  0  0  0
  4  6  1  0  0  0
  6  7  1  0  0  0
  6 12  1  0  0  0
  6  8  1  0  0  0
  8  9  1  0  0  0
  8 10  1  0  0  0
  8 17  1  0  0  0
 10 11  1  0  0  0
 11 16  1  0  0  0
 11 12  2  0  0  0
 12 13  1  0  0  0
 13 14  1  0  0  0
 13 39  1  0  0  0
 13 40  1  0  0  0
 14 15  1  0  0  0
 14 41  1  0  0  0
 14 42  1  0  0  0
 15 16  1  0  0  0
 15 43  1  0  0  0
 15 44  1  0  0  0
 16 45  1  0  0  0
 16 46  1  0  0  0
 17 18  1  0  0  0
 17 47  1  0  0  0
 18 19  2  0  0  0
 18 20  1  0  0  0
 20 21  2  0  0  0
 20 31  1  0  0  0
 21 22  1  0  0  0
 21 48  1  0  0  0
 22 30  1  0  0  0
 22 23  2  0  0  0
 23 28  1  0  0  0
 23 24  1  0  0  0
 24 25  2  0  0  0
 24 49  1  0  0  0
 25 26  1  0  0  0
 25 50  1  0  0  0
 26 27  2  0  0  0
 26 51  1  0  0  0
 27 28  1  0  0  0
 27 52  1  0  0  0
 28 29  2  0  0  0
 29 30  1  0  0  0
 29 55  1  0  0  0
 30 53  1  0  0  0
 30 54  1  0  0  0
 31 32  3  0  0  0
M  CHG  1  29   1
M  END
> <i_i_glide_confnum>
48

> <i_i_glide_lignum>
138

> <i_i_glide_posenum>
85

> <i_i_glide_rotatable_bonds>
8

> <i_m_Source_File_Index>
4664

> <b_m_subgroup_collapsed>
0

> <r_i_docking_score>
-4.40299

> <r_i_glide_ecoul>
-5.70744

> <r_i_glide_eff_state_penalty>
0

> <r_i_glide_einternal>
6.55754

> <r_i_glide_emodel>
-46.6701

> <r_i_glide_energy>
-38.0703

> <r_i_glide_erotb>
0.668649

> <r_i_glide_esite>
-0.00727573

> <r_i_glide_evdw>
-32.3628

> <r_i_glide_gscore>
-4.40299

> <r_i_glide_hbond>
-0.179364

> <r_i_glide_ligand_efficiency>
-0.146766

> <r_i_glide_ligand_efficiency_ln>
-1.00041

> <r_i_glide_ligand_efficiency_sa>
-0.456037

> <r_i_glide_lipo>
-1.26736

> <r_i_glide_metal>
0

> <r_i_glide_rewards>
-1.14338

> <s_i_glide_gridfile>
wee1_glide-grid

> <s_m_Source_File>
wee1_decoys_glide_SP.sdf

> <s_m_Source_Path>
/Users/zhangxujun/Desktop

> <s_m_entry_id>
4939

> <s_m_entry_name>
wee1_decoys_glide_SP.4664

> <s_m_subgroup_title>
wee1_decoys_glide_SP

> <s_m_subgroupid>
wee1_decoys_glide_SP


$$$$
