ZINC09298508_5284
                    3D
 Schrodinger Suite 2024-2.
 49 51  0  0  1  0            999 V2000
    1.8943   49.0826   19.7191 C   0  0  0  0  0  0
    0.9266   50.0534   20.4047 C   0  0  0  0  0  0
    1.6164   50.7206   21.4547 O   0  0  0  0  0  0
    0.9318   51.7199   22.0989 C   0  0  0  0  0  0
   -0.2248   52.0966   21.8823 O   0  0  0  0  0  0
    1.7816   52.2212   23.0196 N   0  0  0  0  0  0
    1.4638   52.9910   24.0856 C   0  0  0  0  0  0
    0.3147   53.2969   24.4096 O   0  0  0  0  0  0
    2.6008   53.4150   24.8940 C   0  0  0  0  0  0
    2.5955   53.3755   26.3259 C   0  0  0  0  0  0
    3.7897   53.8565   26.8842 C   0  0  0  0  0  0
    4.8389   54.4864   25.6664 S   0  0  0  0  0  0
    3.8011   53.9506   24.3789 C   0  0  0  0  0  0
    4.1655   54.1083   23.0359 N   0  0  0  0  0  0
    5.4063   54.3296   22.5346 C   0  0  0  0  0  0
    6.4516   54.3983   23.1817 O   0  0  0  0  0  0
    5.4527   54.4875   21.0418 C   0  0  0  0  0  0
    5.9044   55.6962   20.4955 C   0  0  0  0  0  0
    5.9559   55.8748   19.1132 C   0  0  0  0  0  0
    5.5845   54.8355   18.2631 C   0  0  0  0  0  0
    5.1837   53.6110   18.7947 C   0  0  0  0  0  0
    5.1293   53.4256   20.1768 C   0  0  0  0  0  0
    4.7028   51.4989   20.8816 I   0  0  0  0  0  0
    4.1779   53.8685   28.3470 C   0  0  0  0  0  0
    3.2426   54.7161   29.2213 C   0  0  0  0  0  0
    1.8735   54.0731   29.5127 C   0  0  0  0  0  0
    0.9672   53.8273   28.2905 C   0  0  0  0  0  0
    1.4975   52.8246   27.2406 C   0  0  0  0  0  0
    1.3884   48.5173   18.9370 H   0  0  0  0  0  0
    2.3123   48.3687   20.4288 H   0  0  0  0  0  0
    2.7230   49.6173   19.2529 H   0  0  0  0  0  0
    0.5512   50.7685   19.6700 H   0  0  0  0  0  0
    0.0762   49.5011   20.8072 H   0  0  0  0  0  0
    2.7244   51.8753   22.9669 H   0  0  0  0  0  0
    3.4414   53.9468   22.3516 H   0  0  0  0  0  0
    6.1976   56.5110   21.1417 H   0  0  0  0  0  0
    6.2845   56.8178   18.6998 H   0  0  0  0  0  0
    5.6287   54.9696   17.1916 H   0  0  0  0  0  0
    4.9422   52.7891   18.1336 H   0  0  0  0  0  0
    4.1747   52.8487   28.7343 H   0  0  0  0  0  0
    5.2048   54.2176   28.4671 H   0  0  0  0  0  0
    3.7448   54.8932   30.1701 H   0  0  0  0  0  0
    3.1025   55.7000   28.7735 H   0  0  0  0  0  0
    2.0232   53.1290   30.0383 H   0  0  0  0  0  0
    1.3359   54.7134   30.2143 H   0  0  0  0  0  0
    0.0102   53.4565   28.6612 H   0  0  0  0  0  0
    0.7413   54.7785   27.8084 H   0  0  0  0  0  0
    0.6479   52.4392   26.6811 H   0  0  0  0  0  0
    1.8745   51.9438   27.7625 H   0  0  0  0  0  0
  1  2  1  0  0  0
  1 29  1  0  0  0
  1 30  1  0  0  0
  1 31  1  0  0  0
  2  3  1  0  0  0
  2 32  1  0  0  0
  2 33  1  0  0  0
  3  4  1  0  0  0
  4  5  2  0  0  0
  4  6  1  0  0  0
  6  7  1  0  0  0
  6 34  1  0  0  0
  7  8  2  0  0  0
  7  9  1  0  0  0
  9 13  2  0  0  0
  9 10  1  0  0  0
 10 28  1  0  0  0
 10 11  2  0  0  0
 11 12  1  0  0  0
 11 24  1  0  0  0
 12 13  1  0  0  0
 13 14  1  0  0  0
 14 15  1  0  0  0
 14 35  1  0  0  0
 15 16  2  0  0  0
 15 17  1  0  0  0
 17 22  2  0  0  0
 17 18  1  0  0  0
 18 19  2  0  0  0
 18 36  1  0  0  0
 19 20  1  0  0  0
 19 37  1  0  0  0
 20 21  2  0  0  0
 20 38  1  0  0  0
 21 22  1  0  0  0
 21 39  1  0  0  0
 22 23  1  0  0  0
 24 25  1  0  0  0
 24 40  1  0  0  0
 24 41  1  0  0  0
 25 26  1  0  0  0
 25 42  1  0  0  0
 25 43  1  0  0  0
 26 27  1  0  0  0
 26 44  1  0  0  0
 26 45  1  0  0  0
 27 28  1  0  0  0
 27 46  1  0  0  0
 27 47  1  0  0  0
 28 48  1  0  0  0
 28 49  1  0  0  0
M  END
> <i_i_glide_confnum>
215

> <i_i_glide_lignum>
5285

> <i_i_glide_posenum>
260

> <i_i_glide_rotatable_bonds>
8

> <i_m_Source_File_Index>
3092

> <b_m_subgroup_collapsed>
0

> <r_i_docking_score>
-4.93896

> <r_i_glide_ecoul>
-1.44779

> <r_i_glide_eff_state_penalty>
0

> <r_i_glide_einternal>
5.36934

> <r_i_glide_emodel>
-59.266

> <r_i_glide_energy>
-46.688

> <r_i_glide_erotb>
0.546611

> <r_i_glide_esite>
0

> <r_i_glide_evdw>
-45.2402

> <r_i_glide_gscore>
-4.93896

> <r_i_glide_hbond>
0

> <r_i_glide_ligand_efficiency>
-0.176392

> <r_i_glide_ligand_efficiency_ln>
-1.14006

> <r_i_glide_ligand_efficiency_sa>
-0.535629

> <r_i_glide_lipo>
-2.36826

> <r_i_glide_metal>
0

> <r_i_glide_rewards>
-0.63814

> <s_i_glide_gridfile>
wee1_glide-grid

> <s_m_Source_File>
wee1_decoys_glide_SP.sdf

> <s_m_Source_Path>
/Users/zhangxujun/Desktop

> <s_m_entry_id>
3367

> <s_m_entry_name>
wee1_decoys_glide_SP.3092

> <s_m_subgroup_title>
wee1_decoys_glide_SP

> <s_m_subgroupid>
wee1_decoys_glide_SP


$$$$
