ZINC21809162_4777
                    3D
 Schrodinger Suite 2024-2.
 32 33  0  0  1  0            999 V2000
    4.2183   54.0772   21.2552 C   0  0  0  0  0  0
    4.5042   54.0952   22.7514 C   0  0  0  0  0  0
    5.8327   54.1064   23.1877 C   0  0  0  0  0  0
    6.1283   54.1353   24.5474 C   0  0  0  0  0  0
    5.1006   54.1453   25.4929 C   0  0  0  0  0  0
    3.7689   54.1071   25.0654 C   0  0  0  0  0  0
    3.4666   54.0960   23.7003 C   0  0  0  0  0  0
    2.1263   54.0862   23.3060 N   0  0  0  0  0  0
    5.5512   54.2472   27.2247 S   0  0  0  0  0  0
    5.8145   52.8979   27.7252 O   0  0  0  0  0  0
    6.6020   55.2683   27.2799 O   0  0  0  0  0  0
    4.1600   54.8967   28.1217 N   0  0  0  0  0  0
    3.0319   54.1874   28.5693 C   0  0  0  0  0  0
    2.8072   52.8358   28.2779 C   0  0  0  0  0  0
    1.6663   52.1874   28.7499 C   0  0  0  0  0  0
    0.7388   52.8812   29.5231 C   0  0  0  0  0  0
    0.9507   54.2262   29.8245 C   0  0  0  0  0  0
    2.0894   54.8784   29.3450 C   0  0  0  0  0  0
    2.2767   56.1861   29.6441 F   0  0  0  0  0  0
    0.0524   54.8972   30.5797 F   0  0  0  0  0  0
   -0.3645   52.2471   29.9793 F   0  0  0  0  0  0
    5.1224   54.1847   20.6573 H   0  0  0  0  0  0
    3.5503   54.8966   20.9956 H   0  0  0  0  0  0
    3.7206   53.1493   20.9743 H   0  0  0  0  0  0
    6.6446   54.1031   22.4761 H   0  0  0  0  0  0
    7.1616   54.1582   24.8607 H   0  0  0  0  0  0
    2.9678   54.1186   25.7868 H   0  0  0  0  0  0
    1.3984   54.0623   24.0037 H   0  0  0  0  0  0
    1.9034   54.0995   22.3194 H   0  0  0  0  0  0
    4.1627   55.8940   28.2677 H   0  0  0  0  0  0
    3.5034   52.2716   27.6794 H   0  0  0  0  0  0
    1.4957   51.1458   28.5138 H   0  0  0  0  0  0
  1  2  1  0  0  0
  1 22  1  0  0  0
  1 23  1  0  0  0
  1 24  1  0  0  0
  2  7  2  0  0  0
  2  3  1  0  0  0
  3  4  2  0  0  0
  3 25  1  0  0  0
  4  5  1  0  0  0
  4 26  1  0  0  0
  5  6  2  0  0  0
  5  9  1  0  0  0
  6  7  1  0  0  0
  6 27  1  0  0  0
  7  8  1  0  0  0
  8 28  1  0  0  0
  8 29  1  0  0  0
  9 10  2  0  0  0
  9 11  2  0  0  0
  9 12  1  0  0  0
 12 13  1  0  0  0
 12 30  1  0  0  0
 13 18  2  0  0  0
 13 14  1  0  0  0
 14 15  2  0  0  0
 14 31  1  0  0  0
 15 16  1  0  0  0
 15 32  1  0  0  0
 16 17  2  0  0  0
 16 21  1  0  0  0
 17 18  1  0  0  0
 17 20  1  0  0  0
 18 19  1  0  0  0
M  END
> <i_i_glide_confnum>
1

> <i_i_glide_lignum>
4778

> <i_i_glide_posenum>
351

> <i_i_glide_rotatable_bonds>
3

> <i_m_Source_File_Index>
2032

> <b_m_subgroup_collapsed>
0

> <r_i_docking_score>
-5.57536

> <r_i_glide_ecoul>
-0.432227

> <r_i_glide_eff_state_penalty>
0

> <r_i_glide_einternal>
2.80967

> <r_i_glide_emodel>
-43.7363

> <r_i_glide_energy>
-35.3373

> <r_i_glide_erotb>
0.55819

> <r_i_glide_esite>
-0.0505084

> <r_i_glide_evdw>
-34.905

> <r_i_glide_gscore>
-5.57536

> <r_i_glide_hbond>
0

> <r_i_glide_ligand_efficiency>
-0.265494

> <r_i_glide_ligand_efficiency_ln>
-1.3785

> <r_i_glide_ligand_efficiency_sa>
-0.732477

> <r_i_glide_lipo>
-2.77781

> <r_i_glide_metal>
0

> <r_i_glide_rewards>
-1.49515

> <s_i_glide_gridfile>
wee1_glide-grid

> <s_m_Source_File>
wee1_decoys_glide_SP.sdf

> <s_m_Source_Path>
/Users/zhangxujun/Desktop

> <s_m_entry_id>
2307

> <s_m_entry_name>
wee1_decoys_glide_SP.2032

> <s_m_subgroup_title>
wee1_decoys_glide_SP

> <s_m_subgroupid>
wee1_decoys_glide_SP


$$$$
