@<TRIPOS>MOLECULE
ZINC38511483_5449
61   65    1
SMALL
USER_CHARGES


@<TRIPOS>ATOM
      1 C1          3.8915   52.9838   12.3596 C.3       1 UNK         0.0000 
      2 N2          4.5415   52.9763   13.7597 N.4       1 UNK         0.0000 
      3 C3          4.8487   54.4122   14.2251 C.3       1 UNK         0.0000 
      4 C4          5.5204   54.3562   15.6122 C.3       1 UNK         0.0000 
      5 N5          4.7574   53.6189   16.6373 N.pl3     1 UNK         0.0000 
      6 C6          4.3045   52.2976   16.1571 C.3       1 UNK         0.0000 
      7 C7          3.6122   52.2982   14.7828 C.3       1 UNK         0.0000 
      8 C8          4.9712   53.8563   17.9744 C.2       1 UNK         0.0000 
      9 N9          5.9200   54.6181   18.4547 N.2       1 UNK         0.0000 
     10 C10         5.9038   54.6438   19.8127 C.ar      1 UNK         0.0000 
     11 C11         6.8247   55.3341   20.6108 C.ar      1 UNK         0.0000 
     12 C12         6.7043   55.2413   21.9995 C.ar      1 UNK         0.0000 
     13 C13         5.6724   54.4967   22.6042 C.ar      1 UNK         0.0000 
     14 C14         4.7427   53.8152   21.8130 C.ar      1 UNK         0.0000 
     15 C15         4.8722   53.8870   20.4214 C.ar      1 UNK         0.0000 
     16 S16         3.9043   53.1318   19.1692 S.3       1 UNK         0.0000 
     17 N17         5.4702   54.3808   23.9952 N.am      1 UNK         0.0000 
     18 C18         6.1363   54.9579   25.0185 C.2       1 UNK         0.0000 
     19 O19         7.1044   55.6967   24.8832 O.2       1 UNK         0.0000 
     20 C20         5.6537   54.6963   26.4570 C.3       1 UNK         0.0000 
     21 H21         5.5773   55.6960   26.8746 H         1 UNK         0.0000 
     22 C22         6.7513   53.9432   27.2453 C.3       1 UNK         0.0000 
     23 C23         6.2865   53.7999   28.7069 C.3       1 UNK         0.0000 
     24 C24         4.9093   53.1056   28.8146 C.3       1 UNK         0.0000 
     25 N25         3.9291   53.8524   27.9892 N.pl3     1 UNK         0.0000 
     26 C26         4.2830   53.9915   26.5570 C.3       1 UNK         0.0000 
     27 S27         2.2269   53.9329   28.4839 S.o2      1 UNK         0.0000 
     28 O28         1.7035   55.2414   28.0821 O.2       1 UNK         0.0000 
     29 O29         2.1023   53.4552   29.8668 O.2       1 UNK         0.0000 
     30 C30         1.4198   52.7156   27.4037 C.2       1 UNK         0.0000 
     31 C31         0.6759   51.6243   27.8367 C.2       1 UNK         0.0000 
     32 C32         0.0479   50.9501   26.7824 C.2       1 UNK         0.0000 
     33 C33         0.3159   51.5069   25.5435 C.2       1 UNK         0.0000 
     34 S34         1.3346   52.8967   25.6729 S.3       1 UNK         0.0000 
     35 H35         2.9570   53.5461   12.4141 H         1 UNK         0.0000 
     36 H36         4.5978   53.4531   11.6726 H         1 UNK         0.0000 
     37 H37         3.7139   51.9448   12.0753 H         1 UNK         0.0000 
     38 H38         5.5397   54.8295   13.4897 H         1 UNK         0.0000 
     39 H39         3.9157   54.9810   14.2296 H         1 UNK         0.0000 
     40 H40         5.7488   55.3671   15.9547 H         1 UNK         0.0000 
     41 H41         6.4737   53.8299   15.5323 H         1 UNK         0.0000 
     42 H42         5.2149   51.6995   16.0817 H         1 UNK         0.0000 
     43 H43         3.6743   51.7819   16.8822 H         1 UNK         0.0000 
     44 H44         3.4777   51.2700   14.4391 H         1 UNK         0.0000 
     45 H45         2.6553   52.8243   14.7911 H         1 UNK         0.0000 
     46 H46         7.6290   55.8966   20.1611 H         1 UNK         0.0000 
     47 H47         7.4475   55.7566   22.5848 H         1 UNK         0.0000 
     48 H48         3.9409   53.2399   22.2527 H         1 UNK         0.0000 
     49 H49         4.6973   53.7919   24.2620 H         1 UNK         0.0000 
     50 H50         7.6902   54.4968   27.2792 H         1 UNK         0.0000 
     51 H51         6.9000   52.9309   26.8648 H         1 UNK         0.0000 
     52 H52         6.2023   54.7867   29.1618 H         1 UNK         0.0000 
     53 H53         7.0584   53.2967   29.2804 H         1 UNK         0.0000 
     54 H54         4.5616   53.0461   29.8453 H         1 UNK         0.0000 
     55 H55         4.9994   52.0970   28.4142 H         1 UNK         0.0000 
     56 H56         4.3639   52.9758   26.1669 H         1 UNK         0.0000 
     57 H57         3.4984   54.5694   26.0676 H         1 UNK         0.0000 
     58 H58         0.5621   51.3438   28.8745 H         1 UNK         0.0000 
     59 H59        -0.5944   50.0952   26.9083 H         1 UNK         0.0000 
     60 H60        -0.0431   51.1784   24.5794 H         1 UNK         0.0000 
     61 H61         5.4096   52.4563   13.7235 H         1 UNK         0.0000 
@<TRIPOS>BOND
     1    1    2 1    
     2    1   35 1    
     3    1   36 1    
     4    1   37 1    
     5    2    7 1    
     6    2    3 1    
     7    2   61 1    
     8    3    4 1    
     9    3   38 1    
    10    3   39 1    
    11    4    5 1    
    12    4   40 1    
    13    4   41 1    
    14    5    6 1    
    15    5    8 1    
    16    6    7 1    
    17    6   42 1    
    18    6   43 1    
    19    7   44 1    
    20    7   45 1    
    21    8   16 1    
    22    8    9 2    
    23    9   10 1    
    24   10   15 ar   
    25   10   11 ar   
    26   11   12 ar   
    27   11   46 1    
    28   12   13 ar   
    29   12   47 1    
    30   13   14 ar   
    31   13   17 1    
    32   14   15 ar   
    33   14   48 1    
    34   15   16 1    
    35   17   18 am   BACKBONE|DICT|INTERRES
    36   17   49 1    
    37   18   19 2    
    38   18   20 1    
    39   20   21 1    
    40   20   26 1    
    41   20   22 1    
    42   22   23 1    
    43   22   50 1    
    44   22   51 1    
    45   23   24 1    
    46   23   52 1    
    47   23   53 1    
    48   24   25 1    
    49   24   54 1    
    50   24   55 1    
    51   25   26 1    
    52   25   27 1    
    53   26   56 1    
    54   26   57 1    
    55   27   28 2    
    56   27   29 2    
    57   27   30 1    
    58   30   34 1    
    59   30   31 2    
    60   31   32 1    
    61   31   58 1    
    62   32   33 2    
    63   32   59 1    
    64   33   34 1    
    65   33   60 1    
@<TRIPOS>SUBSTRUCTURE
     1 UNK         1 GROUP             0       ****    0 ROOT    
