@<TRIPOS>MOLECULE
ZINC16675637_1309
45   47    1
SMALL
USER_CHARGES


@<TRIPOS>ATOM
      1 C1         -3.6951   50.4968   28.3039 C.3       1 UNK         0.0000 
      2 C2         -3.5217   51.1896   26.9414 C.2       1 UNK         0.0000 
      3 N3         -2.5286   51.0083   26.1499 N.2       1 UNK         0.0000 
      4 N4         -1.5560   50.0991   26.4814 N.pl3     1 UNK         0.0000 
      5 C5         -0.5931   49.7757   25.6004 C.2       1 UNK         0.0000 
      6 N6          0.0617   48.6270   25.6821 N.pl3     1 UNK         0.0000 
      7 S7         -0.1414   50.7743   24.2389 S.3       1 UNK         0.0000 
      8 C8          0.1011   52.4589   24.8934 C.3       1 UNK         0.0000 
      9 H9         -0.8747   52.8529   25.1799 H         1 UNK         0.0000 
     10 C10         0.7616   53.3436   23.8775 C.3       1 UNK         0.0000 
     11 C11         2.0549   53.7884   24.5194 C.2       1 UNK         0.0000 
     12 O12         2.8819   54.4966   23.9457 O.2       1 UNK         0.0000 
     13 N13         2.0980   53.3145   25.7986 N.am      1 UNK         0.0000 
     14 C14         1.0420   52.4967   26.0912 C.2       1 UNK         0.0000 
     15 O15         0.8399   51.8855   27.1418 O.2       1 UNK         0.0000 
     16 C16         3.1027   53.6901   26.7380 C.ar      1 UNK         0.0000 
     17 C17         2.7470   54.0933   28.0380 C.ar      1 UNK         0.0000 
     18 C18         3.7226   54.4941   28.9509 C.ar      1 UNK         0.0000 
     19 C19         5.0672   54.4967   28.5814 C.ar      1 UNK         0.0000 
     20 C20         5.4385   54.1013   27.2974 C.ar      1 UNK         0.0000 
     21 C21         4.4646   53.7007   26.3828 C.ar      1 UNK         0.0000 
     22 Cl22        7.1036   54.1310   26.8385 Cl        1 UNK         0.0000 
     23 C23        -4.6488   52.0706   26.5140 C.ar      1 UNK         0.0000 
     24 C24        -4.5242   52.9021   25.3845 C.ar      1 UNK         0.0000 
     25 C25        -5.5776   53.7055   24.9572 C.ar      1 UNK         0.0000 
     26 C26        -6.7812   53.6957   25.6535 C.ar      1 UNK         0.0000 
     27 C27        -6.9345   52.8872   26.7737 C.ar      1 UNK         0.0000 
     28 C28        -5.8810   52.0809   27.1952 C.ar      1 UNK         0.0000 
     29 Cl29       -8.0945   54.6809   25.1219 Cl        1 UNK         0.0000 
     30 H30        -4.0801   51.1776   29.0625 H         1 UNK         0.0000 
     31 H31        -4.3745   49.6489   28.2192 H         1 UNK         0.0000 
     32 H32        -2.7703   50.0982   28.7112 H         1 UNK         0.0000 
     33 H33        -1.6957   49.5051   27.3064 H         1 UNK         0.0000 
     34 H34         0.8319   48.4308   25.0559 H         1 UNK         0.0000 
     35 H35         0.9671   52.8587   22.9214 H         1 UNK         0.0000 
     36 H36         0.1614   54.2307   23.6817 H         1 UNK         0.0000 
     37 H37         1.7102   54.1137   28.3445 H         1 UNK         0.0000 
     38 H38         3.4339   54.8162   29.9397 H         1 UNK         0.0000 
     39 H39         5.8224   54.8229   29.2817 H         1 UNK         0.0000 
     40 H40         4.7770   53.3970   25.3927 H         1 UNK         0.0000 
     41 H41        -3.6039   52.9295   24.8173 H         1 UNK         0.0000 
     42 H42        -5.4657   54.3284   24.0813 H         1 UNK         0.0000 
     43 H43        -7.8740   52.8728   27.3072 H         1 UNK         0.0000 
     44 H44        -6.0609   51.4518   28.0545 H         1 UNK         0.0000 
     45 H45        -0.1233   47.9797   26.4456 H         1 UNK         0.0000 
@<TRIPOS>BOND
     1    1    2 1    
     2    1   30 1    
     3    1   31 1    
     4    1   32 1    
     5    2    3 2    
     6    2   23 1    
     7    3    4 1    
     8    4    5 1    
     9    4   33 1    
    10    5    6 2    
    11    5    7 1    
    12    6   34 1    
    13    6   45 1    
    14    7    8 1    
    15    8    9 1    
    16    8   14 1    
    17    8   10 1    
    18   10   11 1    
    19   10   35 1    
    20   10   36 1    
    21   11   12 2    
    22   11   13 am   BACKBONE|DICT|INTERRES
    23   13   14 am   BACKBONE|DICT|INTERRES
    24   13   16 1    
    25   14   15 2    
    26   16   21 ar   
    27   16   17 ar   
    28   17   18 ar   
    29   17   37 1    
    30   18   19 ar   
    31   18   38 1    
    32   19   20 ar   
    33   19   39 1    
    34   20   21 ar   
    35   20   22 1    
    36   21   40 1    
    37   23   28 ar   
    38   23   24 ar   
    39   24   25 ar   
    40   24   41 1    
    41   25   26 ar   
    42   25   42 1    
    43   26   27 ar   
    44   26   29 1    
    45   27   28 ar   
    46   27   43 1    
    47   28   44 1    
@<TRIPOS>SUBSTRUCTURE
     1 UNK         1 GROUP             0       ****    0 ROOT    
