@<TRIPOS>MOLECULE
ZINC41644352_2516
49   52    1
SMALL
USER_CHARGES


@<TRIPOS>ATOM
      1 C1          1.8182   53.1272   27.8241 C.3       1 UNK         0.0000 
      2 C2          2.6708   53.8322   26.7531 C.3       1 UNK         0.0000 
      3 H3          2.4817   54.8966   26.8814 H         1 UNK         0.0000 
      4 C4          4.1693   53.5632   26.9653 C.3       1 UNK         0.0000 
      5 C5          5.0466   54.3942   26.0108 C.3       1 UNK         0.0000 
      6 C6          4.5425   54.2775   24.5592 C.2       1 UNK         0.0000 
      7 C7          3.2406   53.8323   24.2861 C.2       1 UNK         0.0000 
      8 S8          2.9394   53.6959   22.5843 S.3       1 UNK         0.0000 
      9 C9          4.5482   54.2061   22.1997 C.2       1 UNK         0.0000 
     10 C10         5.3021   54.4966   23.3677 C.2       1 UNK         0.0000 
     11 C11         6.6998   54.8691   23.3554 C.2       1 UNK         0.0000 
     12 O12         7.4688   54.4967   22.4817 O.2       1 UNK         0.0000 
     13 N13         7.1044   55.6963   24.3164 N.am      1 UNK         0.0000 
     14 N14         4.8514   54.2417   20.8316 N.am      1 UNK         0.0000 
     15 C15         5.5045   55.2365   20.1692 C.2       1 UNK         0.0000 
     16 O16         5.9044   56.2530   20.7480 O.2       1 UNK         0.0000 
     17 C17         5.7246   55.1275   18.6156 C.3       1 UNK         0.0000 
     18 C18         5.9887   53.6519   18.1766 C.2       1 UNK         0.0000 
     19 O19         7.1044   53.1553   18.0817 O.2       1 UNK         0.0000 
     20 N20         4.9022   52.8967   17.9323 N.am      1 UNK         0.0000 
     21 C21         3.5710   53.2407   17.7320 C.ar      1 UNK         0.0000 
     22 C22         2.6546   52.1989   17.5671 C.ar      1 UNK         0.0000 
     23 C23         1.3201   52.4763   17.2729 C.ar      1 UNK         0.0000 
     24 C24         0.9018   53.7975   17.1223 C.ar      1 UNK         0.0000 
     25 C25         1.8166   54.8387   17.2817 C.ar      1 UNK         0.0000 
     26 C26         3.1454   54.5697   17.6192 C.ar      1 UNK         0.0000 
     27 S27         4.2964   55.9055   17.7520 S.3       1 UNK         0.0000 
     28 C28         6.9717   55.9791   18.2223 C.3       1 UNK         0.0000 
     29 C29         2.2159   53.3953   25.3326 C.3       1 UNK         0.0000 
     30 H30         1.9482   52.0443   27.7915 H         1 UNK         0.0000 
     31 H31         2.0863   53.4611   28.8271 H         1 UNK         0.0000 
     32 H32         0.7566   53.3366   27.6862 H         1 UNK         0.0000 
     33 H33         4.3856   52.4980   26.8817 H         1 UNK         0.0000 
     34 H34         4.4416   53.8047   27.9940 H         1 UNK         0.0000 
     35 H35         5.0426   55.4383   26.3223 H         1 UNK         0.0000 
     36 H36         6.0754   54.0456   26.1074 H         1 UNK         0.0000 
     37 H37         6.4633   56.0662   24.9987 H         1 UNK         0.0000 
     38 H38         8.0740   55.9849   24.2708 H         1 UNK         0.0000 
     39 H39         4.3766   53.5596   20.2582 H         1 UNK         0.0000 
     40 H40         5.1340   51.9048   17.8195 H         1 UNK         0.0000 
     41 H41         2.9800   51.1690   17.6458 H         1 UNK         0.0000 
     42 H42         0.6188   51.6653   17.1415 H         1 UNK         0.0000 
     43 H43        -0.1264   54.0160   16.8764 H         1 UNK         0.0000 
     44 H44         1.4905   55.8611   17.1586 H         1 UNK         0.0000 
     45 H45         7.8728   55.6645   18.7540 H         1 UNK         0.0000 
     46 H46         7.1863   55.9081   17.1545 H         1 UNK         0.0000 
     47 H47         6.8282   57.0397   18.4374 H         1 UNK         0.0000 
     48 H48         2.1224   52.3097   25.2950 H         1 UNK         0.0000 
     49 H49         1.2338   53.8127   25.1074 H         1 UNK         0.0000 
@<TRIPOS>BOND
     1    1    2 1    
     2    1   30 1    
     3    1   31 1    
     4    1   32 1    
     5    2    3 1    
     6    2   29 1    
     7    2    4 1    
     8    4    5 1    
     9    4   33 1    
    10    4   34 1    
    11    5    6 1    
    12    5   35 1    
    13    5   36 1    
    14    6   10 1    
    15    6    7 2    
    16    7    8 1    
    17    7   29 1    
    18    8    9 1    
    19    9   10 2    
    20    9   14 am   BACKBONE|DICT|INTERRES
    21   10   11 1    
    22   11   12 2    
    23   11   13 am   BACKBONE|DICT|INTERRES
    24   13   37 1    
    25   13   38 1    
    26   14   15 am   BACKBONE|DICT|INTERRES
    27   14   39 1    
    28   15   16 2    
    29   15   17 1    
    30   17   27 1    
    31   17   18 1    
    32   17   28 1    
    33   18   19 2    
    34   18   20 am   BACKBONE|DICT|INTERRES
    35   20   21 1    
    36   20   40 1    
    37   21   26 ar   
    38   21   22 ar   
    39   22   23 ar   
    40   22   41 1    
    41   23   24 ar   
    42   23   42 1    
    43   24   25 ar   
    44   24   43 1    
    45   25   26 ar   
    46   25   44 1    
    47   26   27 1    
    48   28   45 1    
    49   28   46 1    
    50   28   47 1    
    51   29   48 1    
    52   29   49 1    
@<TRIPOS>SUBSTRUCTURE
     1 UNK         1 GROUP             0       ****    0 ROOT    
