@<TRIPOS>MOLECULE
ZINC03669589_4157
70   75    1
SMALL
USER_CHARGES


@<TRIPOS>ATOM
      1 C1          5.1041   51.7910   21.1806 C.3       1 UNK         0.0000 
      2 C2          4.4759   53.1991   21.1075 C.3       1 UNK         0.0000 
      3 C3          3.4630   53.4302   22.2611 C.3       1 UNK         0.0000 
      4 C4          2.1866   52.5651   22.1660 C.2       1 UNK         0.0000 
      5 C5          1.8034   52.0679   20.9436 C.2       1 UNK         0.0000 
      6 C6          0.5996   51.1016   20.7792 C.3       1 UNK         0.0000 
      7 H7         -0.1992   51.7276   20.3785 H         1 UNK         0.0000 
      8 C8          0.0994   50.6122   22.1328 C.2       1 UNK         0.0000 
      9 C9          0.5189   51.1534   23.3009 C.2       1 UNK         0.0000 
     10 N10         1.5103   52.1751   23.3547 N.pl3     1 UNK         0.0000 
     11 C11         1.7257   52.7222   24.6600 C.2       1 UNK         0.0000 
     12 C12         1.1045   52.2042   25.8232 C.2       1 UNK         0.0000 
     13 C13         1.5175   52.8178   27.0407 C.2       1 UNK         0.0000 
     14 C14         2.4469   53.8384   26.8220 C.2       1 UNK         0.0000 
     15 S15         2.7021   54.0904   25.1229 S.3       1 UNK         0.0000 
     16 C16         3.1342   54.6711   27.8869 C.3       1 UNK         0.0000 
     17 C17         2.1658   55.5264   28.7301 C.3       1 UNK         0.0000 
     18 C18         1.3251   54.7385   29.7566 C.3       1 UNK         0.0000 
     19 C19         0.3850   53.6490   29.1987 C.3       1 UNK         0.0000 
     20 C20         1.0827   52.4822   28.4670 C.3       1 UNK         0.0000 
     21 C21         0.1756   51.1065   25.5743 C.2       1 UNK         0.0000 
     22 N22        -0.0656   50.6441   24.4282 N.2       1 UNK         0.0000 
     23 N23        -0.5141   50.4967   26.5846 N.pl3     1 UNK         0.0000 
     24 C24        -0.8552   49.5385   22.1148 C.1       1 UNK         0.0000 
     25 N25        -1.6030   48.6545   22.0867 N.1       1 UNK         0.0000 
     26 C26         0.7848   49.9545   19.7660 C.ar      1 UNK         0.0000 
     27 C27         1.9517   49.1893   19.8347 C.ar      1 UNK         0.0000 
     28 C28         2.2148   48.2166   18.8816 C.ar      1 UNK         0.0000 
     29 C29         1.2973   47.9680   17.8668 C.ar      1 UNK         0.0000 
     30 C30         0.0985   48.6975   17.7892 C.ar      1 UNK         0.0000 
     31 C31        -0.1612   49.6884   18.7579 C.ar      1 UNK         0.0000 
     32 O32        -1.3101   50.4502   18.7119 O.3       1 UNK         0.0000 
     33 C33        -2.5389   49.7426   18.8433 C.3       1 UNK         0.0000 
     34 O34        -0.8380   48.5104   16.7871 O.3       1 UNK         0.0000 
     35 C35        -0.5865   47.5604   15.7572 C.3       1 UNK         0.0000 
     36 C36         2.4575   52.4967   19.6717 C.2       1 UNK         0.0000 
     37 O37         1.9087   52.3812   18.5762 O.2       1 UNK         0.0000 
     38 C38         3.7254   53.3537   19.7719 C.3       1 UNK         0.0000 
     39 C39         5.5377   54.3173   21.1755 C.3       1 UNK         0.0000 
     40 H40         5.7064   51.6785   22.0816 H         1 UNK         0.0000 
     41 H41         4.3701   50.9856   21.1760 H         1 UNK         0.0000 
     42 H42         5.7574   51.6475   20.3193 H         1 UNK         0.0000 
     43 H43         4.0479   53.1505   23.1338 H         1 UNK         0.0000 
     44 H44         3.1479   54.4726   22.3409 H         1 UNK         0.0000 
     45 H45         3.6728   54.0125   28.5695 H         1 UNK         0.0000 
     46 H46         3.9054   55.2965   27.4391 H         1 UNK         0.0000 
     47 H47         2.7466   56.2720   29.2762 H         1 UNK         0.0000 
     48 H48         1.5032   56.0972   28.0820 H         1 UNK         0.0000 
     49 H49         1.9950   54.2769   30.4815 H         1 UNK         0.0000 
     50 H50         0.7270   55.4496   30.3288 H         1 UNK         0.0000 
     51 H51        -0.1747   53.2361   30.0403 H         1 UNK         0.0000 
     52 H52        -0.3659   54.0964   28.5457 H         1 UNK         0.0000 
     53 H53         0.4385   51.6133   28.5346 H         1 UNK         0.0000 
     54 H54         1.9568   52.1820   29.0463 H         1 UNK         0.0000 
     55 H55        -1.0695   49.6752   26.3860 H         1 UNK         0.0000 
     56 H56        -0.3593   50.7320   27.5512 H         1 UNK         0.0000 
     57 H57         2.6882   49.3817   20.6010 H         1 UNK         0.0000 
     58 H58         3.1595   47.6967   18.9029 H         1 UNK         0.0000 
     59 H59         1.5538   47.2219   17.1314 H         1 UNK         0.0000 
     60 H60        -3.2809   50.3952   19.3042 H         1 UNK         0.0000 
     61 H61        -2.9236   49.4515   17.8650 H         1 UNK         0.0000 
     62 H62        -2.4559   48.8475   19.4623 H         1 UNK         0.0000 
     63 H63        -1.4218   47.5598   15.0577 H         1 UNK         0.0000 
     64 H64         0.3142   47.8109   15.1947 H         1 UNK         0.0000 
     65 H65        -0.4910   46.5501   16.1586 H         1 UNK         0.0000 
     66 H66         4.3592   53.1405   18.9101 H         1 UNK         0.0000 
     67 H67         3.3986   54.3875   19.6754 H         1 UNK         0.0000 
     68 H68         6.1219   54.2567   22.0947 H         1 UNK         0.0000 
     69 H69         6.2376   54.2530   20.3408 H         1 UNK         0.0000 
     70 H70         5.0915   55.3107   21.1410 H         1 UNK         0.0000 
@<TRIPOS>BOND
     1    1    2 1    
     2    1   40 1    
     3    1   41 1    
     4    1   42 1    
     5    2   38 1    
     6    2    3 1    
     7    2   39 1    
     8    3    4 1    
     9    3   43 1    
    10    3   44 1    
    11    4   10 1    
    12    4    5 2    
    13    5    6 1    
    14    5   36 1    
    15    6    7 1    
    16    6    8 1    
    17    6   26 1    
    18    8    9 2    
    19    8   24 1    
    20    9   22 1    
    21    9   10 1    
    22   10   11 1    
    23   11   15 1    
    24   11   12 2    
    25   12   13 1    
    26   12   21 1    
    27   13   20 1    
    28   13   14 2    
    29   14   15 1    
    30   14   16 1    
    31   16   17 1    
    32   16   45 1    
    33   16   46 1    
    34   17   18 1    
    35   17   47 1    
    36   17   48 1    
    37   18   19 1    
    38   18   49 1    
    39   18   50 1    
    40   19   20 1    
    41   19   51 1    
    42   19   52 1    
    43   20   53 1    
    44   20   54 1    
    45   21   22 2    
    46   21   23 1    
    47   23   55 1    
    48   23   56 1    
    49   24   25 3    
    50   26   31 ar   
    51   26   27 ar   
    52   27   28 ar   
    53   27   57 1    
    54   28   29 ar   
    55   28   58 1    
    56   29   30 ar   
    57   29   59 1    
    58   30   31 ar   
    59   30   34 1    
    60   31   32 1    
    61   32   33 1    
    62   33   60 1    
    63   33   61 1    
    64   33   62 1    
    65   34   35 1    
    66   35   63 1    
    67   35   64 1    
    68   35   65 1    
    69   36   37 2    
    70   36   38 1    
    71   38   66 1    
    72   38   67 1    
    73   39   68 1    
    74   39   69 1    
    75   39   70 1    
@<TRIPOS>SUBSTRUCTURE
     1 UNK         1 GROUP             0       ****    0 ROOT    
