@<TRIPOS>MOLECULE
ZINC14474001_5841
55   59    1
SMALL
USER_CHARGES


@<TRIPOS>ATOM
      1 C1          3.9883   54.3550   25.4834 C.ar      1 UNK         0.0000 
      2 C2          5.2156   54.2255   26.1301 C.ar      1 UNK         0.0000 
      3 C3          6.3884   54.1439   25.3825 C.ar      1 UNK         0.0000 
      4 C4          6.3383   54.1962   23.9879 C.ar      1 UNK         0.0000 
      5 C5          5.1091   54.3673   23.3223 C.ar      1 UNK         0.0000 
      6 C6          3.9361   54.4227   24.0912 C.ar      1 UNK         0.0000 
      7 C7          4.9983   54.5824   21.8011 C.3       1 UNK         0.0000 
      8 H8          4.1693   55.2851   21.6901 H         1 UNK         0.0000 
      9 C9          4.6483   53.3192   20.9878 C.3       1 UNK         0.0000 
     10 H10         5.5036   52.6382   21.0743 H         1 UNK         0.0000 
     11 C11         3.3980   52.5045   21.3187 C.3       1 UNK         0.0000 
     12 C12         3.1055   51.8604   19.9749 C.2       1 UNK         0.0000 
     13 C13         3.7515   52.4975   18.9798 C.2       1 UNK         0.0000 
     14 C14         4.4491   53.7182   19.5290 C.3       1 UNK         0.0000 
     15 H15         3.7681   54.5681   19.4341 H         1 UNK         0.0000 
     16 C16         5.7964   54.1987   19.0031 C.ar      1 UNK         0.0000 
     17 C17         6.3074   53.8944   17.7336 C.ar      1 UNK         0.0000 
     18 C18         7.5469   54.4008   17.3226 C.ar      1 UNK         0.0000 
     19 C19         8.3037   55.1832   18.1969 C.ar      1 UNK         0.0000 
     20 C20         7.8155   55.4818   19.4645 C.ar      1 UNK         0.0000 
     21 C21         6.5578   55.0242   19.8569 C.ar      1 UNK         0.0000 
     22 N22         6.1336   55.2980   21.1785 N.pl3     1 UNK         0.0000 
     23 S23         8.1771   54.0774   15.6743 S.o2      1 UNK         0.0000 
     24 O24         7.0335   53.6745   14.8456 O.2       1 UNK         0.0000 
     25 O25         8.9921   55.2406   15.3025 O.2       1 UNK         0.0000 
     26 N26         9.2636   52.6859   15.8326 N.pl3     1 UNK         0.0000 
     27 C27        10.5022   52.9022   16.6229 C.3       1 UNK         0.0000 
     28 C28        11.5265   51.7834   16.3281 C.3       1 UNK         0.0000 
     29 C29        10.9211   50.3687   16.4782 C.3       1 UNK         0.0000 
     30 C30         9.5745   50.2361   15.7363 C.3       1 UNK         0.0000 
     31 C31         8.6104   51.3835   16.0946 C.3       1 UNK         0.0000 
     32 O32         7.5044   54.0760   23.2822 O.3       1 UNK         0.0000 
     33 H33         3.0776   54.4099   26.0616 H         1 UNK         0.0000 
     34 H34         5.2575   54.1739   27.2086 H         1 UNK         0.0000 
     35 H35         7.3297   54.0243   25.8951 H         1 UNK         0.0000 
     36 H36         2.9785   54.5550   23.6093 H         1 UNK         0.0000 
     37 H37         3.6114   51.7592   22.0818 H         1 UNK         0.0000 
     38 H38         2.5712   53.1235   21.6703 H         1 UNK         0.0000 
     39 H39         2.4760   50.9891   19.8701 H         1 UNK         0.0000 
     40 H40         3.7131   52.2523   17.9270 H         1 UNK         0.0000 
     41 H41         5.7320   53.2735   17.0610 H         1 UNK         0.0000 
     42 H42         9.2684   55.5629   17.8952 H         1 UNK         0.0000 
     43 H43         8.4191   56.0755   20.1359 H         1 UNK         0.0000 
     44 H44         6.7719   55.7011   21.8478 H         1 UNK         0.0000 
     45 H45        10.9329   53.8770   16.3906 H         1 UNK         0.0000 
     46 H46        10.2549   52.8140   17.6818 H         1 UNK         0.0000 
     47 H47        11.9107   51.9103   15.3141 H         1 UNK         0.0000 
     48 H48        12.3874   51.8912   16.9877 H         1 UNK         0.0000 
     49 H49        10.7657   50.1481   17.5342 H         1 UNK         0.0000 
     50 H50        11.6253   49.6197   16.1154 H         1 UNK         0.0000 
     51 H51         9.1056   49.2835   15.9751 H         1 UNK         0.0000 
     52 H52         9.7440   50.2240   14.6571 H         1 UNK         0.0000 
     53 H53         8.4113   51.2972   17.1644 H         1 UNK         0.0000 
     54 H54         7.6921   51.2992   15.5139 H         1 UNK         0.0000 
     55 H55         8.3282   54.4093   23.6816 H         1 UNK         0.0000 
@<TRIPOS>BOND
     1    1    6 ar   
     2    1    2 ar   
     3    1   33 1    
     4    2    3 ar   
     5    2   34 1    
     6    3    4 ar   
     7    3   35 1    
     8    4    5 ar   
     9    4   32 1    
    10    5    6 ar   
    11    5    7 1    
    12    6   36 1    
    13    7    8 1    
    14    7   22 1    
    15    7    9 1    
    16    9   10 1    
    17    9   14 1    
    18    9   11 1    
    19   11   12 1    
    20   11   37 1    
    21   11   38 1    
    22   12   13 2    
    23   12   39 1    
    24   13   14 1    
    25   13   40 1    
    26   14   15 1    
    27   14   16 1    
    28   16   21 ar   
    29   16   17 ar   
    30   17   18 ar   
    31   17   41 1    
    32   18   19 ar   
    33   18   23 1    
    34   19   20 ar   
    35   19   42 1    
    36   20   21 ar   
    37   20   43 1    
    38   21   22 1    
    39   22   44 1    
    40   23   24 2    
    41   23   25 2    
    42   23   26 1    
    43   26   31 1    
    44   26   27 1    
    45   27   28 1    
    46   27   45 1    
    47   27   46 1    
    48   28   29 1    
    49   28   47 1    
    50   28   48 1    
    51   29   30 1    
    52   29   49 1    
    53   29   50 1    
    54   30   31 1    
    55   30   51 1    
    56   30   52 1    
    57   31   53 1    
    58   31   54 1    
    59   32   55 1    
@<TRIPOS>SUBSTRUCTURE
     1 UNK         1 GROUP             0       ****    0 ROOT    
