ZINC09435604_2802
                    3D
 Schrodinger Suite 2024-2.
 51 55  0  0  1  0            999 V2000
    8.4388   56.0865   18.8058 C   0  0  0  0  0  0
    9.1123   57.2616   18.4817 C   0  0  0  0  0  0
    8.3888   58.4153   18.1871 C   0  0  0  0  0  0
    6.9957   58.4011   18.2152 C   0  0  0  0  0  0
    6.3182   57.2261   18.5362 C   0  0  0  0  0  0
    7.0402   56.0678   18.8363 C   0  0  0  0  0  0
    6.3066   54.7584   19.1136 C   0  0  0  0  0  0
    5.6476   54.6195   20.4160 N   0  0  0  0  0  0
    6.1624   54.8966   21.6317 C   0  0  0  0  0  0
    7.2512   55.4449   21.8061 O   0  0  0  0  0  0
    5.3357   54.4799   22.7496 C   0  0  0  0  0  0
    5.6129   54.7406   24.1050 C   0  0  0  0  0  0
    4.5404   54.2516   24.8268 C   0  0  0  0  0  0
    3.6880   53.6996   23.8889 N   0  0  0  0  0  0
    4.2135   53.7916   22.6547 N   0  0  0  0  0  0
    2.4543   52.9464   24.1643 C   0  0  1  0  0  0
    2.7039   51.8897   24.2021 H   0  0  0  0  0  0
    1.9744   53.3619   25.5669 C   0  0  0  0  0  0
    3.0901   53.4771   26.6306 C   0  0  1  0  0  0
    3.5243   52.4968   26.8192 H   0  0  0  0  0  0
    4.2010   54.3195   26.1649 N   0  0  0  0  0  0
    2.4662   53.8850   27.9610 C   0  0  0  0  0  0
    2.3069   55.2414   28.3058 C   0  0  0  0  0  0
    1.6182   55.6333   29.4545 C   0  0  0  0  0  0
    1.1101   54.6220   30.2508 C   0  0  0  0  0  0
    1.2927   53.3014   29.9557 C   0  0  0  0  0  0
    1.9558   52.8888   28.8089 C   0  0  0  0  0  0
    0.7269   52.5399   30.9204 O   0  0  0  0  0  0
    0.2964   53.4405   31.9021 C   0  0  0  0  0  0
    0.4179   54.7398   31.4018 O   0  0  0  0  0  0
    1.3622   53.1009   23.0904 C   0  0  0  0  0  0
    0.2190   52.5240   23.4606 F   0  0  0  0  0  0
    1.1120   54.3921   22.9094 F   0  0  0  0  0  0
    1.7103   52.5693   21.9188 F   0  0  0  0  0  0
    9.0471   59.5602   17.8924 F   0  0  0  0  0  0
    9.0072   55.1957   19.0342 H   0  0  0  0  0  0
   10.1923   57.2790   18.4696 H   0  0  0  0  0  0
    6.4407   59.2965   17.9783 H   0  0  0  0  0  0
    5.2380   57.2168   18.5448 H   0  0  0  0  0  0
    5.5467   54.6258   18.3419 H   0  0  0  0  0  0
    6.9843   53.9124   18.9728 H   0  0  0  0  0  0
    4.7572   54.1432   20.4052 H   0  0  0  0  0  0
    6.4671   55.2709   24.4951 H   0  0  0  0  0  0
    1.4685   54.3210   25.4847 H   0  0  0  0  0  0
    1.1962   52.6741   25.9046 H   0  0  0  0  0  0
    4.9479   54.3344   26.8454 H   0  0  0  0  0  0
    2.7009   56.0064   27.6687 H   0  0  0  0  0  0
    1.4881   56.6773   29.6986 H   0  0  0  0  0  0
    2.0533   51.8407   28.5652 H   0  0  0  0  0  0
    0.8664   53.2969   32.8207 H   0  0  0  0  0  0
   -0.7656   53.2981   32.0817 H   0  0  0  0  0  0
  1  6  2  0  0  0
  1  2  1  0  0  0
  1 36  1  0  0  0
  2  3  2  0  0  0
  2 37  1  0  0  0
  3  4  1  0  0  0
  3 35  1  0  0  0
  4  5  2  0  0  0
  4 38  1  0  0  0
  5  6  1  0  0  0
  5 39  1  0  0  0
  6  7  1  0  0  0
  7  8  1  0  0  0
  7 40  1  0  0  0
  7 41  1  0  0  0
  8  9  1  0  0  0
  8 42  1  0  0  0
  9 10  2  0  0  0
  9 11  1  0  0  0
 11 15  2  0  0  0
 11 12  1  0  0  0
 12 13  2  0  0  0
 12 43  1  0  0  0
 13 21  1  0  0  0
 13 14  1  0  0  0
 14 15  1  0  0  0
 14 16  1  0  0  0
 16 17  1  0  0  0
 16 18  1  0  0  0
 16 31  1  0  0  0
 18 19  1  0  0  0
 18 44  1  0  0  0
 18 45  1  0  0  0
 19 20  1  0  0  0
 19 21  1  0  0  0
 19 22  1  0  0  0
 21 46  1  0  0  0
 22 27  2  0  0  0
 22 23  1  0  0  0
 23 24  2  0  0  0
 23 47  1  0  0  0
 24 25  1  0  0  0
 24 48  1  0  0  0
 25 30  1  0  0  0
 25 26  2  0  0  0
 26 27  1  0  0  0
 26 28  1  0  0  0
 27 49  1  0  0  0
 28 29  1  0  0  0
 29 30  1  0  0  0
 29 50  1  0  0  0
 29 51  1  0  0  0
 31 32  1  0  0  0
 31 33  1  0  0  0
 31 34  1  0  0  0
M  END
> <i_i_glide_confnum>
8

> <i_i_glide_lignum>
2803

> <i_i_glide_posenum>
317

> <i_i_glide_rotatable_bonds>
6

> <i_m_Source_File_Index>
3978

> <b_m_subgroup_collapsed>
0

> <r_i_docking_score>
-6.18888

> <r_i_glide_ecoul>
-3.61758

> <r_i_glide_eff_state_penalty>
0

> <r_i_glide_einternal>
2.48701

> <r_i_glide_emodel>
-59.4066

> <r_i_glide_energy>
-42.5342

> <r_i_glide_erotb>
0.37685

> <r_i_glide_esite>
-0.135068

> <r_i_glide_evdw>
-38.9166

> <r_i_glide_gscore>
-6.18888

> <r_i_glide_hbond>
0

> <r_i_glide_ligand_efficiency>
-0.187542

> <r_i_glide_ligand_efficiency_ln>
-1.37638

> <r_i_glide_ligand_efficiency_sa>
-0.601547

> <r_i_glide_lipo>
-2.821

> <r_i_glide_metal>
0

> <r_i_glide_rewards>
-1.1212

> <s_i_glide_gridfile>
wee1_glide-grid

> <s_m_Source_File>
wee1_decoys_glide_SP.sdf

> <s_m_Source_Path>
/Users/zhangxujun/Desktop

> <s_m_entry_id>
4253

> <s_m_entry_name>
wee1_decoys_glide_SP.3978

> <s_m_subgroup_title>
wee1_decoys_glide_SP

> <s_m_subgroupid>
wee1_decoys_glide_SP


$$$$
