@<TRIPOS>MOLECULE
ZINC56807135_2525
64   67    1
SMALL
USER_CHARGES


@<TRIPOS>ATOM
      1 C1          8.0534   55.6951   21.1891 C.3       1 UNK         0.0000 
      2 C2          6.6396   55.1729   20.8605 C.3       1 UNK         0.0000 
      3 C3          5.8711   54.5262   22.0260 C.2       1 UNK         0.0000 
      4 O4          4.8925   53.8306   21.7631 O.2       1 UNK         0.0000 
      5 N5          6.3047   54.7832   23.2781 N.am      1 UNK         0.0000 
      6 C6          5.6528   54.4965   24.4908 C.ar      1 UNK         0.0000 
      7 C7          4.2635   54.3520   24.6049 C.ar      1 UNK         0.0000 
      8 C8          3.6903   54.0964   25.8443 C.ar      1 UNK         0.0000 
      9 C9          4.4875   53.9925   26.9916 C.ar      1 UNK         0.0000 
     10 C10         5.8722   54.1531   26.8735 C.ar      1 UNK         0.0000 
     11 C11         6.4453   54.4136   25.6329 C.ar      1 UNK         0.0000 
     12 C12         3.9057   53.6586   28.3745 C.3       1 UNK         0.0000 
     13 H13         4.6071   52.9510   28.8227 H         1 UNK         0.0000 
     14 C14         3.8947   54.8929   29.2984 C.3       1 UNK         0.0000 
     15 N15         2.6447   52.8944   28.3872 N.am      1 UNK         0.0000 
     16 C16         1.4140   53.3485   28.0981 C.2       1 UNK         0.0000 
     17 O17         1.1042   54.5369   28.0818 O.2       1 UNK         0.0000 
     18 N18         0.6009   52.3512   27.7240 N.am      1 UNK         0.0000 
     19 C19        -0.5907   52.4464   26.8602 C.3       1 UNK         0.0000 
     20 C20        -0.3024   52.6437   25.3297 C.3       1 UNK         0.0000 
     21 H21         0.3000   53.5426   25.1804 H         1 UNK         0.0000 
     22 C22        -1.6053   52.7084   24.4524 C.3       1 UNK         0.0000 
     23 C23        -2.7567   51.7388   24.8332 C.3       1 UNK         0.0000 
     24 C24        -2.8752   51.5102   26.3512 C.3       1 UNK         0.0000 
     25 C25        -1.5038   51.2168   27.0063 C.3       1 UNK         0.0000 
     26 H26        -1.6905   51.0521   28.0716 H         1 UNK         0.0000 
     27 C27        -0.7866   49.9489   26.4817 C.3       1 UNK         0.0000 
     28 N28        -0.2188   50.1863   25.0658 N.4       1 UNK         0.0000 
     29 C29         0.5777   51.4837   24.8601 C.3       1 UNK         0.0000 
     30 C30         0.6187   49.0113   24.6107 C.3       1 UNK         0.0000 
     31 C31        -0.0934   47.8106   24.0823 C.3       1 UNK         0.0000 
     32 C32         0.6672   48.7362   23.1387 C.3       1 UNK         0.0000 
     33 H33         8.5237   56.1042   20.2941 H         1 UNK         0.0000 
     34 H34         8.7051   54.8985   21.5421 H         1 UNK         0.0000 
     35 H35         8.0357   56.4917   21.9326 H         1 UNK         0.0000 
     36 H36         6.0302   55.9947   20.4857 H         1 UNK         0.0000 
     37 H37         6.7024   54.4550   20.0436 H         1 UNK         0.0000 
     38 H38         7.2205   55.2029   23.3583 H         1 UNK         0.0000 
     39 H39         3.6162   54.4511   23.7465 H         1 UNK         0.0000 
     40 H40         2.6215   53.9923   25.8858 H         1 UNK         0.0000 
     41 H41         6.5081   54.0739   27.7439 H         1 UNK         0.0000 
     42 H42         7.5097   54.5266   25.5562 H         1 UNK         0.0000 
     43 H43         4.8995   55.2891   29.4544 H         1 UNK         0.0000 
     44 H44         3.2870   55.6968   28.8815 H         1 UNK         0.0000 
     45 H45         3.4830   54.6449   30.2743 H         1 UNK         0.0000 
     46 H46         2.7640   51.8956   28.3842 H         1 UNK         0.0000 
     47 H47         0.7492   51.4500   28.1532 H         1 UNK         0.0000 
     48 H48        -1.1519   53.2977   27.2375 H         1 UNK         0.0000 
     49 H49        -2.0272   53.6965   24.5050 H         1 UNK         0.0000 
     50 H50        -1.3594   52.5948   23.3950 H         1 UNK         0.0000 
     51 H51        -2.6276   50.7822   24.3273 H         1 UNK         0.0000 
     52 H52        -3.7032   52.1242   24.4494 H         1 UNK         0.0000 
     53 H53        -3.5483   50.6665   26.5153 H         1 UNK         0.0000 
     54 H54        -3.3395   52.3801   26.8190 H         1 UNK         0.0000 
     55 H55         0.0489   49.6606   27.1166 H         1 UNK         0.0000 
     56 H56        -1.4855   49.1188   26.3824 H         1 UNK         0.0000 
     57 H57         0.7854   51.5528   23.7909 H         1 UNK         0.0000 
     58 H58         1.5043   51.4018   25.4175 H         1 UNK         0.0000 
     59 H59         1.5041   48.8968   25.2427 H         1 UNK         0.0000 
     60 H60         0.3144   46.8891   24.4790 H         1 UNK         0.0000 
     61 H61        -1.1842   47.8072   24.0679 H         1 UNK         0.0000 
     62 H62         0.1019   49.3785   22.4611 H         1 UNK         0.0000 
     63 H63         1.6498   48.4968   22.7312 H         1 UNK         0.0000 
     64 H64        -1.0248   50.2731   24.4650 H         1 UNK         0.0000 
@<TRIPOS>BOND
     1    1    2 1    
     2    1   33 1    
     3    1   34 1    
     4    1   35 1    
     5    2    3 1    
     6    2   36 1    
     7    2   37 1    
     8    3    4 2    
     9    3    5 am   BACKBONE|DICT|INTERRES
    10    5    6 1    
    11    5   38 1    
    12    6   11 ar   
    13    6    7 ar   
    14    7    8 ar   
    15    7   39 1    
    16    8    9 ar   
    17    8   40 1    
    18    9   10 ar   
    19    9   12 1    
    20   10   11 ar   
    21   10   41 1    
    22   11   42 1    
    23   12   13 1    
    24   12   14 1    
    25   12   15 1    
    26   14   43 1    
    27   14   44 1    
    28   14   45 1    
    29   15   16 am   BACKBONE|DICT|INTERRES
    30   15   46 1    
    31   16   17 2    
    32   16   18 am   BACKBONE|DICT|INTERRES
    33   18   19 1    
    34   18   47 1    
    35   19   25 1    
    36   19   20 1    
    37   19   48 1    
    38   20   21 1    
    39   20   29 1    
    40   20   22 1    
    41   22   23 1    
    42   22   49 1    
    43   22   50 1    
    44   23   24 1    
    45   23   51 1    
    46   23   52 1    
    47   24   25 1    
    48   24   53 1    
    49   24   54 1    
    50   25   26 1    
    51   25   27 1    
    52   27   28 1    
    53   27   55 1    
    54   27   56 1    
    55   28   29 1    
    56   28   30 1    
    57   28   64 1    
    58   29   57 1    
    59   29   58 1    
    60   30   32 1    
    61   30   31 1    
    62   30   59 1    
    63   31   32 1    
    64   31   60 1    
    65   31   61 1    
    66   32   62 1    
    67   32   63 1    
@<TRIPOS>SUBSTRUCTURE
     1 UNK         1 GROUP             0       ****    0 ROOT    
