ZINC27545816_1147
                    3D
 Schrodinger Suite 2024-2.
 60 62  0  0  1  0            999 V2000
   -3.3776   52.4776   25.6749 C   0  0  0  0  0  0
   -2.0778   51.8481   26.1310 C   0  0  0  0  0  0
   -1.1618   52.4967   26.9588 C   0  0  0  0  0  0
    0.0163   51.8373   27.3510 C   0  0  0  0  0  0
    0.2813   50.5843   26.8817 N   0  0  0  0  0  0
   -0.6386   49.9968   26.0712 C   0  0  0  0  0  0
   -1.7819   50.6089   25.7114 N   0  3  0  0  0  0
   -0.2903   48.6605   25.4347 C   0  0  0  0  0  0
   -1.4962   47.7075   25.2820 C   0  0  0  0  0  0
    0.4170   48.8771   24.0905 C   0  0  0  0  0  0
    0.9314   52.4086   28.2439 N   0  0  0  0  0  0
    2.2184   51.7979   28.6297 C   0  0  0  0  0  0
    3.4073   52.5034   27.9527 C   0  0  0  0  0  0
    3.4473   53.9365   28.2450 N   0  0  0  0  0  0
    2.1648   54.5594   27.8933 C   0  0  0  0  0  0
    0.9932   53.8377   28.6065 C   0  0  0  0  0  0
    4.6552   54.6209   27.7186 C   0  0  1  0  0  0
    4.4399   55.6801   27.6887 H   0  0  0  0  0  0
    5.7902   54.4332   28.7262 C   0  0  0  0  0  0
    5.0853   54.3041   26.2431 C   0  0  0  0  0  0
    6.2769   54.0986   25.9953 O   0  0  0  0  0  0
    4.1196   54.2910   25.2919 N   0  0  0  0  0  0
    4.2511   54.0968   23.8944 C   0  0  0  0  0  0
    5.4440   54.4028   23.2135 C   0  0  0  0  0  0
    5.5409   54.2378   21.8355 C   0  0  0  0  0  0
    4.4657   53.7403   21.1141 C   0  0  0  0  0  0
    3.2776   53.4340   21.7672 C   0  0  0  0  0  0
    3.1421   53.6281   23.1491 C   0  0  0  0  0  0
    1.7823   53.3438   23.7989 C   0  0  0  0  0  0
    1.9051   52.4984   24.8192 F   0  0  0  0  0  0
    1.2950   54.4966   24.2488 F   0  0  0  0  0  0
    0.8894   52.8263   22.9524 F   0  0  0  0  0  0
    4.6005   53.5275   19.4075 Cl  0  0  0  0  0  0
   -3.5060   53.4790   26.0864 H   0  0  0  0  0  0
   -3.4057   52.5545   24.5878 H   0  0  0  0  0  0
   -4.2269   51.8751   26.0003 H   0  0  0  0  0  0
   -1.3784   53.4948   27.2814 H   0  0  0  0  0  0
    0.4195   48.1723   26.0971 H   0  0  0  0  0  0
   -2.0183   47.5737   26.2314 H   0  0  0  0  0  0
   -2.2192   48.0690   24.5501 H   0  0  0  0  0  0
   -1.1680   46.7191   24.9579 H   0  0  0  0  0  0
    1.3250   49.4736   24.2015 H   0  0  0  0  0  0
    0.7075   47.9172   23.6818 H   0  0  0  0  0  0
   -0.2252   49.3720   23.3598 H   0  0  0  0  0  0
    2.3145   51.8405   29.7155 H   0  0  0  0  0  0
    2.2718   50.7407   28.3716 H   0  0  0  0  0  0
    3.2949   52.3639   26.8818 H   0  0  0  0  0  0
    4.3409   52.0590   28.2910 H   0  0  0  0  0  0
    2.1660   55.6070   28.1981 H   0  0  0  0  0  0
    1.9783   54.4969   26.8219 H   0  0  0  0  0  0
    1.0948   53.9253   29.6906 H   0  0  0  0  0  0
    0.0735   54.3655   28.3695 H   0  0  0  0  0  0
    6.7041   54.8967   28.3633 H   0  0  0  0  0  0
    5.5251   54.8922   29.6818 H   0  0  0  0  0  0
    6.0037   53.3771   28.8812 H   0  0  0  0  0  0
    3.1723   54.3358   25.6307 H   0  0  0  0  0  0
    6.3042   54.8040   23.7265 H   0  0  0  0  0  0
    6.4590   54.4975   21.3317 H   0  0  0  0  0  0
    2.4494   53.0765   21.1720 H   0  0  0  0  0  0
   -2.4229   50.1224   25.1025 H   0  0  0  0  0  0
  1  2  1  0  0  0
  1 34  1  0  0  0
  1 35  1  0  0  0
  1 36  1  0  0  0
  2  7  2  0  0  0
  2  3  1  0  0  0
  3  4  2  0  0  0
  3 37  1  0  0  0
  4  5  1  0  0  0
  4 11  1  0  0  0
  5  6  2  0  0  0
  6  7  1  0  0  0
  6  8  1  0  0  0
  7 60  1  0  0  0
  8  9  1  0  0  0
  8 10  1  0  0  0
  8 38  1  0  0  0
  9 39  1  0  0  0
  9 40  1  0  0  0
  9 41  1  0  0  0
 10 42  1  0  0  0
 10 43  1  0  0  0
 10 44  1  0  0  0
 11 16  1  0  0  0
 11 12  1  0  0  0
 12 13  1  0  0  0
 12 45  1  0  0  0
 12 46  1  0  0  0
 13 14  1  0  0  0
 13 47  1  0  0  0
 13 48  1  0  0  0
 14 15  1  0  0  0
 14 17  1  0  0  0
 15 16  1  0  0  0
 15 49  1  0  0  0
 15 50  1  0  0  0
 16 51  1  0  0  0
 16 52  1  0  0  0
 17 18  1  0  0  0
 17 19  1  0  0  0
 17 20  1  0  0  0
 19 53  1  0  0  0
 19 54  1  0  0  0
 19 55  1  0  0  0
 20 21  2  0  0  0
 20 22  1  0  0  0
 22 23  1  0  0  0
 22 56  1  0  0  0
 23 28  2  0  0  0
 23 24  1  0  0  0
 24 25  2  0  0  0
 24 57  1  0  0  0
 25 26  1  0  0  0
 25 58  1  0  0  0
 26 27  2  0  0  0
 26 33  1  0  0  0
 27 28  1  0  0  0
 27 59  1  0  0  0
 28 29  1  0  0  0
 29 30  1  0  0  0
 29 31  1  0  0  0
 29 32  1  0  0  0
M  CHG  1   7   1
M  END
> <i_i_glide_confnum>
38

> <i_i_glide_lignum>
1148

> <i_i_glide_posenum>
177

> <i_i_glide_rotatable_bonds>
7

> <i_m_Source_File_Index>
2401

> <b_m_subgroup_collapsed>
0

> <r_i_docking_score>
-4.98458

> <r_i_glide_ecoul>
-0.900977

> <r_i_glide_eff_state_penalty>
0

> <r_i_glide_einternal>
7.52243

> <r_i_glide_emodel>
-44.4621

> <r_i_glide_energy>
-34.1387

> <r_i_glide_erotb>
0.455599

> <r_i_glide_esite>
-0.133053

> <r_i_glide_evdw>
-33.2377

> <r_i_glide_gscore>
-4.98458

> <r_i_glide_hbond>
0

> <r_i_glide_ligand_efficiency>
-0.155768

> <r_i_glide_ligand_efficiency_ln>
-1.11618

> <r_i_glide_ligand_efficiency_sa>
-0.494533

> <r_i_glide_lipo>
-2.25934

> <r_i_glide_metal>
0

> <r_i_glide_rewards>
-1.25075

> <s_i_glide_gridfile>
wee1_glide-grid

> <s_m_Source_File>
wee1_decoys_glide_SP.sdf

> <s_m_Source_Path>
/Users/zhangxujun/Desktop

> <s_m_entry_id>
2676

> <s_m_entry_name>
wee1_decoys_glide_SP.2401

> <s_m_subgroup_title>
wee1_decoys_glide_SP

> <s_m_subgroupid>
wee1_decoys_glide_SP


$$$$
