@<TRIPOS>MOLECULE
ZINC38893362_1096
77   81    1
SMALL
USER_CHARGES


@<TRIPOS>ATOM
      1 C1          7.0768   55.4628   23.0491 C.3       1 UNK         0.0000 
      2 O2          6.9026   55.2024   24.4440 O.3       1 UNK         0.0000 
      3 C3          5.7124   54.6747   24.9218 C.ar      1 UNK         0.0000 
      4 C4          4.5692   54.4966   24.1304 C.ar      1 UNK         0.0000 
      5 C5          3.3751   54.0542   24.6904 C.ar      1 UNK         0.0000 
      6 C6          3.3010   53.6969   26.0387 C.ar      1 UNK         0.0000 
      7 C7          4.4538   53.8360   26.8237 C.ar      1 UNK         0.0000 
      8 C8          5.6601   54.3227   26.2801 C.ar      1 UNK         0.0000 
      9 O9          6.8264   54.4679   27.0108 O.3       1 UNK         0.0000 
     10 C10         6.8831   53.9636   28.3401 C.3       1 UNK         0.0000 
     11 C11         2.0137   53.1653   26.6081 C.2       1 UNK         0.0000 
     12 N12         1.1051   52.5713   25.8505 N.2       1 UNK         0.0000 
     13 C13         0.1619   52.2790   26.7073 C.2       1 UNK         0.0000 
     14 O14         0.4601   52.6616   27.9736 O.3       1 UNK         0.0000 
     15 N15         1.7213   53.2478   27.8910 N.2       1 UNK         0.0000 
     16 C16        -1.1819   51.6008   26.4720 C.3       1 UNK         0.0000 
     17 N17        -1.0451   50.2882   25.6504 N.4       1 UNK         0.0000 
     18 C18        -2.3272   49.4300   25.8137 C.3       1 UNK         0.0000 
     19 C19        -2.0950   48.0611   25.1403 C.3       1 UNK         0.0000 
     20 C20        -1.7092   48.1916   23.6481 C.3       1 UNK         0.0000 
     21 C21        -0.4875   49.1415   23.5172 C.3       1 UNK         0.0000 
     22 H22         0.3485   48.6526   24.0219 H         1 UNK         0.0000 
     23 C23        -0.8032   50.5279   24.1369 C.3       1 UNK         0.0000 
     24 C24        -0.0143   49.2941   22.0421 C.2       1 UNK         0.0000 
     25 O25        -0.8081   49.0151   21.1412 O.2       1 UNK         0.0000 
     26 N26         1.3001   49.5437   21.7879 N.am      1 UNK         0.0000 
     27 C27         1.8459   49.4920   20.4117 C.3       1 UNK         0.0000 
     28 C28         2.3329   50.9010   19.9762 C.3       1 UNK         0.0000 
     29 N29         3.1556   51.5677   20.9985 N.3       1 UNK         0.0000 
     30 C30         2.4854   51.5914   22.2968 C.3       1 UNK         0.0000 
     31 C31         2.1959   50.1558   22.7823 C.3       1 UNK         0.0000 
     32 C32         3.5349   52.9213   20.5850 C.3       1 UNK         0.0000 
     33 C33         4.6850   52.9951   19.6097 C.2       1 UNK         0.0000 
     34 C34         5.6160   53.9675   19.6153 C.2       1 UNK         0.0000 
     35 C35         6.7648   54.0998   18.6974 C.ar      1 UNK         0.0000 
     36 C36         6.9119   53.2968   17.5579 C.ar      1 UNK         0.0000 
     37 C37         8.0425   53.4188   16.7546 C.ar      1 UNK         0.0000 
     38 C38         9.0294   54.3442   17.0852 C.ar      1 UNK         0.0000 
     39 C39         8.8941   55.1532   18.2099 C.ar      1 UNK         0.0000 
     40 C40         7.7618   55.0318   19.0108 C.ar      1 UNK         0.0000 
     41 H41         7.9367   56.0964   22.8818 H         1 UNK         0.0000 
     42 H42         7.2008   54.5408   22.4809 H         1 UNK         0.0000 
     43 H43         6.3044   56.0643   22.5981 H         1 UNK         0.0000 
     44 H44         4.5722   54.7552   23.0844 H         1 UNK         0.0000 
     45 H45         2.5003   53.9841   24.0611 H         1 UNK         0.0000 
     46 H46         4.4032   53.5538   27.8630 H         1 UNK         0.0000 
     47 H47         7.8902   54.0943   28.7366 H         1 UNK         0.0000 
     48 H48         6.1974   54.4965   28.9983 H         1 UNK         0.0000 
     49 H49         6.6530   52.8975   28.3705 H         1 UNK         0.0000 
     50 H50        -1.9048   52.2299   25.9531 H         1 UNK         0.0000 
     51 H51        -1.6137   51.2915   27.4269 H         1 UNK         0.0000 
     52 H52        -3.1684   49.9819   25.3882 H         1 UNK         0.0000 
     53 H53        -2.4968   49.2970   26.8814 H         1 UNK         0.0000 
     54 H54        -2.9962   47.4551   25.2387 H         1 UNK         0.0000 
     55 H55        -1.3164   47.5229   25.6889 H         1 UNK         0.0000 
     56 H56        -2.5865   48.5983   23.1386 H         1 UNK         0.0000 
     57 H57        -1.4781   47.1874   23.2877 H         1 UNK         0.0000 
     58 H58         0.0100   51.2373   24.0194 H         1 UNK         0.0000 
     59 H59        -1.7162   50.9775   23.7394 H         1 UNK         0.0000 
     60 H60         1.1394   49.0983   19.6795 H         1 UNK         0.0000 
     61 H61         2.7040   48.8191   20.4152 H         1 UNK         0.0000 
     62 H62         1.4421   51.5129   19.8210 H         1 UNK         0.0000 
     63 H63         2.8876   50.8093   19.0415 H         1 UNK         0.0000 
     64 H64         3.1044   52.0968   23.0295 H         1 UNK         0.0000 
     65 H65         1.5493   52.1478   22.2163 H         1 UNK         0.0000 
     66 H66         3.1161   49.5819   22.8362 H         1 UNK         0.0000 
     67 H67         1.8100   50.1651   23.7982 H         1 UNK         0.0000 
     68 H68         3.8422   53.4901   21.4624 H         1 UNK         0.0000 
     69 H69         2.6920   53.4494   20.1532 H         1 UNK         0.0000 
     70 H70         4.7106   52.2029   18.8811 H         1 UNK         0.0000 
     71 H71         5.5232   54.7432   20.3632 H         1 UNK         0.0000 
     72 H72         6.1676   52.5590   17.2931 H         1 UNK         0.0000 
     73 H73         8.1550   52.7916   15.8832 H         1 UNK         0.0000 
     74 H74         9.9103   54.4302   16.4668 H         1 UNK         0.0000 
     75 H75         9.6694   55.8607   18.4669 H         1 UNK         0.0000 
     76 H76         7.6753   55.6547   19.8898 H         1 UNK         0.0000 
     77 H77        -0.2686   49.7781   26.0550 H         1 UNK         0.0000 
@<TRIPOS>BOND
     1    1    2 1    
     2    1   41 1    
     3    1   42 1    
     4    1   43 1    
     5    2    3 1    
     6    3    8 ar   
     7    3    4 ar   
     8    4    5 ar   
     9    4   44 1    
    10    5    6 ar   
    11    5   45 1    
    12    6    7 ar   
    13    6   11 1    
    14    7    8 ar   
    15    7   46 1    
    16    8    9 1    
    17    9   10 1    
    18   10   47 1    
    19   10   48 1    
    20   10   49 1    
    21   11   15 2    
    22   11   12 1    
    23   12   13 2    
    24   13   14 1    
    25   13   16 1    
    26   14   15 1    
    27   16   17 1    
    28   16   50 1    
    29   16   51 1    
    30   17   23 1    
    31   17   18 1    
    32   17   77 1    
    33   18   19 1    
    34   18   52 1    
    35   18   53 1    
    36   19   20 1    
    37   19   54 1    
    38   19   55 1    
    39   20   21 1    
    40   20   56 1    
    41   20   57 1    
    42   21   22 1    
    43   21   23 1    
    44   21   24 1    
    45   23   58 1    
    46   23   59 1    
    47   24   25 2    
    48   24   26 am   BACKBONE|DICT|INTERRES
    49   26   31 1    
    50   26   27 1    
    51   27   28 1    
    52   27   60 1    
    53   27   61 1    
    54   28   29 1    
    55   28   62 1    
    56   28   63 1    
    57   29   30 1    
    58   29   32 1    
    59   30   31 1    
    60   30   64 1    
    61   30   65 1    
    62   31   66 1    
    63   31   67 1    
    64   32   33 1    
    65   32   68 1    
    66   32   69 1    
    67   33   34 2    
    68   33   70 1    
    69   34   35 1    
    70   34   71 1    
    71   35   40 ar   
    72   35   36 ar   
    73   36   37 ar   
    74   36   72 1    
    75   37   38 ar   
    76   37   73 1    
    77   38   39 ar   
    78   38   74 1    
    79   39   40 ar   
    80   39   75 1    
    81   40   76 1    
@<TRIPOS>SUBSTRUCTURE
     1 UNK         1 GROUP             0       ****    0 ROOT    
