@<TRIPOS>MOLECULE
ZINC39945691_605
56   60    1
SMALL
USER_CHARGES


@<TRIPOS>ATOM
      1 C1          2.8893   53.2509   21.7843 C.3       1 UNK         0.0000 
      2 C2          1.3750   53.0507   22.0372 C.3       1 UNK         0.0000 
      3 H3          0.8459   53.6836   21.3321 H         1 UNK         0.0000 
      4 C4          0.8225   51.6482   21.6790 C.2       1 UNK         0.0000 
      5 O5         -0.2397   51.2807   22.1815 O.2       1 UNK         0.0000 
      6 N6          1.5269   50.9249   20.7802 N.am      1 UNK         0.0000 
      7 C7          1.2453   49.6730   20.2043 C.ar      1 UNK         0.0000 
      8 C8          2.1120   49.2559   19.1887 C.ar      1 UNK         0.0000 
      9 C9          1.9051   48.0461   18.5283 C.ar      1 UNK         0.0000 
     10 C10         0.8326   47.2325   18.8842 C.ar      1 UNK         0.0000 
     11 C11        -0.0321   47.6282   19.9042 C.ar      1 UNK         0.0000 
     12 C12         0.1703   48.8412   20.5638 C.ar      1 UNK         0.0000 
     13 Cl13       -1.3394   46.6019   20.3680 Cl        1 UNK         0.0000 
     14 S14         0.8694   53.6773   23.6818 S.3       1 UNK         0.0000 
     15 C15         1.5371   52.4161   24.7922 C.3       1 UNK         0.0000 
     16 H16         2.4400   52.0101   24.3379 H         1 UNK         0.0000 
     17 N17         0.6186   51.3347   25.0820 N.pl3     1 UNK         0.0000 
     18 N18         0.0225   51.5273   26.3185 N.2       1 UNK         0.0000 
     19 C19         0.7472   52.3634   26.9230 C.2       1 UNK         0.0000 
     20 N20         1.7884   52.8707   26.1551 N.pl3     1 UNK         0.0000 
     21 C21         3.0440   53.4575   26.4524 C.ar      1 UNK         0.0000 
     22 C22         3.6817   53.2205   27.6796 C.ar      1 UNK         0.0000 
     23 C23         4.9377   53.7600   27.9426 C.ar      1 UNK         0.0000 
     24 C24         5.5591   54.5430   26.9761 C.ar      1 UNK         0.0000 
     25 C25         4.9448   54.7988   25.7580 C.ar      1 UNK         0.0000 
     26 C26         3.6941   54.2584   25.5019 C.ar      1 UNK         0.0000 
     27 Cl27        7.1044   55.2225   27.2812 Cl        1 UNK         0.0000 
     28 C28         0.4448   52.6739   28.2983 C.2       1 UNK         0.0000 
     29 C29         0.7122   53.8029   28.9893 C.2       1 UNK         0.0000 
     30 C30         1.3309   55.0901   28.6214 C.2       1 UNK         0.0000 
     31 C31         1.5055   56.0695   29.5266 C.2       1 UNK         0.0000 
     32 C32         1.0511   55.8191   30.8815 C.2       1 UNK         0.0000 
     33 C33         0.4530   54.6483   31.2392 C.2       1 UNK         0.0000 
     34 C34         0.2828   53.6234   30.3085 C.2       1 UNK         0.0000 
     35 N35        -0.2618   52.4401   30.4831 N.pl3     1 UNK         0.0000 
     36 C36        -0.2594   51.6973   29.2128 C.3       1 UNK         0.0000 
     37 H37         3.1612   53.0522   20.7465 H         1 UNK         0.0000 
     38 H38         3.1739   54.2857   21.9797 H         1 UNK         0.0000 
     39 H39         3.5027   52.6132   22.4214 H         1 UNK         0.0000 
     40 H40         2.3651   51.3573   20.4233 H         1 UNK         0.0000 
     41 H41         2.9500   49.8683   18.8824 H         1 UNK         0.0000 
     42 H42         2.5852   47.7478   17.7415 H         1 UNK         0.0000 
     43 H43         0.6787   46.2947   18.3732 H         1 UNK         0.0000 
     44 H44        -0.5188   49.1051   21.3495 H         1 UNK         0.0000 
     45 H45        -0.1025   51.1603   24.3933 H         1 UNK         0.0000 
     46 H46         3.2229   52.5893   28.4241 H         1 UNK         0.0000 
     47 H47         5.4326   53.5604   28.8816 H         1 UNK         0.0000 
     48 H48         5.4314   55.4110   25.0136 H         1 UNK         0.0000 
     49 H49         3.2477   54.4778   24.5471 H         1 UNK         0.0000 
     50 H50         1.6501   55.2919   27.6167 H         1 UNK         0.0000 
     51 H51         1.9501   57.0168   29.2536 H         1 UNK         0.0000 
     52 H52         1.1867   56.5928   31.6264 H         1 UNK         0.0000 
     53 H53         0.1338   54.5119   32.2647 H         1 UNK         0.0000 
     54 H54        -1.2919   51.4798   28.9325 H         1 UNK         0.0000 
     55 H55         0.2918   50.7676   29.3257 H         1 UNK         0.0000 
     56 H56        -0.6578   52.0929   31.3646 H         1 UNK         0.0000 
@<TRIPOS>BOND
     1    1    2 1    
     2    1   37 1    
     3    1   38 1    
     4    1   39 1    
     5    2    3 1    
     6    2    4 1    
     7    2   14 1    
     8    4    5 2    
     9    4    6 am   BACKBONE|DICT|INTERRES
    10    6    7 1    
    11    6   40 1    
    12    7   12 ar   
    13    7    8 ar   
    14    8    9 ar   
    15    8   41 1    
    16    9   10 ar   
    17    9   42 1    
    18   10   11 ar   
    19   10   43 1    
    20   11   12 ar   
    21   11   13 1    
    22   12   44 1    
    23   14   15 1    
    24   15   16 1    
    25   15   20 1    
    26   15   17 1    
    27   17   18 1    
    28   17   45 1    
    29   18   19 2    
    30   19   20 1    
    31   19   28 1    
    32   20   21 1    
    33   21   26 ar   
    34   21   22 ar   
    35   22   23 ar   
    36   22   46 1    
    37   23   24 ar   
    38   23   47 1    
    39   24   25 ar   
    40   24   27 1    
    41   25   26 ar   
    42   25   48 1    
    43   26   49 1    
    44   28   36 1    
    45   28   29 2    
    46   29   34 1    
    47   29   30 1    
    48   30   31 2    
    49   30   50 1    
    50   31   32 1    
    51   31   51 1    
    52   32   33 2    
    53   32   52 1    
    54   33   34 1    
    55   33   53 1    
    56   34   35 2    
    57   35   36 1    
    58   35   56 1    
    59   36   54 1    
    60   36   55 1    
@<TRIPOS>SUBSTRUCTURE
     1 UNK         1 GROUP             0       ****    0 ROOT    
