@<TRIPOS>MOLECULE
ZINC47049961_2563
51   53    1
SMALL
USER_CHARGES


@<TRIPOS>ATOM
      1 C1          2.1555   52.0848   22.9841 C.3       1 UNK         0.0000 
      2 C2          2.8438   52.8986   21.8424 C.3       1 UNK         0.0000 
      3 H3          2.4023   53.8957   21.8788 H         1 UNK         0.0000 
      4 C4          4.4027   53.1259   22.0007 C.3       1 UNK         0.0000 
      5 C5          5.0895   53.7189   20.7461 C.ar      1 UNK         0.0000 
      6 C6          5.5022   55.0563   20.6924 C.ar      1 UNK         0.0000 
      7 C7          6.1197   55.5705   19.5551 C.ar      1 UNK         0.0000 
      8 C8          6.3461   54.7387   18.4618 C.ar      1 UNK         0.0000 
      9 C9          5.9693   53.4005   18.5070 C.ar      1 UNK         0.0000 
     10 C10         5.3579   52.8967   19.6501 C.ar      1 UNK         0.0000 
     11 C11         4.8649   53.8124   23.3118 C.ar      1 UNK         0.0000 
     12 C12         3.9766   54.4003   24.2286 C.ar      1 UNK         0.0000 
     13 C13         4.4396   54.8967   25.4433 C.ar      1 UNK         0.0000 
     14 C14         5.8046   54.9212   25.7025 C.ar      1 UNK         0.0000 
     15 C15         6.7050   54.4361   24.7632 C.ar      1 UNK         0.0000 
     16 C16         6.2361   53.8575   23.5900 C.ar      1 UNK         0.0000 
     17 N17         2.4125   52.3990   20.5205 N.am      1 UNK         0.0000 
     18 C18         2.5326   51.1316   20.0715 C.2       1 UNK         0.0000 
     19 O19         3.1043   50.2453   20.7076 O.2       1 UNK         0.0000 
     20 N20         1.9758   50.9494   18.8536 N.am      1 UNK         0.0000 
     21 N21         1.9042   49.6594   18.2835 N.am      1 UNK         0.0000 
     22 C22         1.0219   48.7449   18.7660 C.2       1 UNK         0.0000 
     23 O23         0.2275   48.9884   19.6815 O.2       1 UNK         0.0000 
     24 C24         0.9962   47.3808   18.0972 C.ar      1 UNK         0.0000 
     25 C25         0.0275   46.4409   18.4864 C.ar      1 UNK         0.0000 
     26 C26        -0.0339   45.1894   17.8796 C.ar      1 UNK         0.0000 
     27 C27         0.8750   44.8607   16.8792 C.ar      1 UNK         0.0000 
     28 C28         1.8452   45.7726   16.4796 C.ar      1 UNK         0.0000 
     29 C29         1.9078   47.0241   17.0873 C.ar      1 UNK         0.0000 
     30 F30         0.8198   43.6389   16.3010 F         1 UNK         0.0000 
     31 H31         2.5111   52.3254   23.9815 H         1 UNK         0.0000 
     32 H32         1.0813   52.2736   22.9958 H         1 UNK         0.0000 
     33 H33         2.3070   51.0095   22.9003 H         1 UNK         0.0000 
     34 H34         4.8232   52.1215   22.0813 H         1 UNK         0.0000 
     35 H35         5.3359   55.6981   21.5409 H         1 UNK         0.0000 
     36 H36         6.4248   56.6053   19.5189 H         1 UNK         0.0000 
     37 H37         6.8247   55.1304   17.5765 H         1 UNK         0.0000 
     38 H38         6.1597   52.7446   17.6685 H         1 UNK         0.0000 
     39 H39         5.1037   51.8505   19.6837 H         1 UNK         0.0000 
     40 H40         2.9170   54.4617   24.0342 H         1 UNK         0.0000 
     41 H41         3.7440   55.2984   26.1645 H         1 UNK         0.0000 
     42 H42         6.1650   55.3370   26.6306 H         1 UNK         0.0000 
     43 H43         7.7658   54.4953   24.9426 H         1 UNK         0.0000 
     44 H44         6.9477   53.4460   22.8901 H         1 UNK         0.0000 
     45 H45         2.0612   53.1048   19.8875 H         1 UNK         0.0000 
     46 H46         1.3690   51.6152   18.4024 H         1 UNK         0.0000 
     47 H47         2.7640   49.4120   17.7981 H         1 UNK         0.0000 
     48 H48        -0.6878   46.6725   19.2638 H         1 UNK         0.0000 
     49 H49        -0.7850   44.4769   18.1843 H         1 UNK         0.0000 
     50 H50         2.5542   45.5063   15.7096 H         1 UNK         0.0000 
     51 H51         2.6865   47.6959   16.7589 H         1 UNK         0.0000 
@<TRIPOS>BOND
     1    1    2 1    
     2    1   31 1    
     3    1   32 1    
     4    1   33 1    
     5    2    3 1    
     6    2    4 1    
     7    2   17 1    
     8    4    5 1    
     9    4   11 1    
    10    4   34 1    
    11    5   10 ar   
    12    5    6 ar   
    13    6    7 ar   
    14    6   35 1    
    15    7    8 ar   
    16    7   36 1    
    17    8    9 ar   
    18    8   37 1    
    19    9   10 ar   
    20    9   38 1    
    21   10   39 1    
    22   11   16 ar   
    23   11   12 ar   
    24   12   13 ar   
    25   12   40 1    
    26   13   14 ar   
    27   13   41 1    
    28   14   15 ar   
    29   14   42 1    
    30   15   16 ar   
    31   15   43 1    
    32   16   44 1    
    33   17   18 am   BACKBONE|DICT|INTERRES
    34   17   45 1    
    35   18   19 2    
    36   18   20 am   BACKBONE|DICT|INTERRES
    37   20   21 1    
    38   20   46 1    
    39   21   22 am   BACKBONE|DICT|INTERRES
    40   21   47 1    
    41   22   23 2    
    42   22   24 1    
    43   24   29 ar   
    44   24   25 ar   
    45   25   26 ar   
    46   25   48 1    
    47   26   27 ar   
    48   26   49 1    
    49   27   28 ar   
    50   27   30 1    
    51   28   29 ar   
    52   28   50 1    
    53   29   51 1    
@<TRIPOS>SUBSTRUCTURE
     1 UNK         1 GROUP             0       ****    0 ROOT    
