@<TRIPOS>MOLECULE
ZINC37342581_4723
32   33    1
SMALL
USER_CHARGES


@<TRIPOS>ATOM
      1 C1         -0.0594   51.6120   26.3918 C.ar      1 UNK         0.0000 
      2 C2         -0.3694   51.6967   27.7436 C.ar      1 UNK         0.0000 
      3 C3          0.3875   52.4911   28.6301 C.ar      1 UNK         0.0000 
      4 C4          1.4810   53.1882   28.0787 C.ar      1 UNK         0.0000 
      5 C5          1.8259   53.1045   26.7203 C.ar      1 UNK         0.0000 
      6 C6          1.0257   52.3115   25.8810 C.ar      1 UNK         0.0000 
      7 C7          3.0512   53.8352   26.2073 C.2       1 UNK         0.0000 
      8 O8          3.7484   54.4967   26.9775 O.2       1 UNK         0.0000 
      9 N9          3.2975   53.6967   24.8874 N.am      1 UNK         0.0000 
     10 C10         4.3924   54.1129   24.1131 C.ar      1 UNK         0.0000 
     11 C11         5.5806   54.6286   24.6555 C.ar      1 UNK         0.0000 
     12 C12         6.6163   55.0278   23.8161 C.ar      1 UNK         0.0000 
     13 C13         6.4963   54.8967   22.4355 C.ar      1 UNK         0.0000 
     14 C14         5.3304   54.3672   21.8881 C.ar      1 UNK         0.0000 
     15 C15         4.2788   53.9783   22.7191 C.ar      1 UNK         0.0000 
     16 Br16        2.7044   53.2568   21.9149 Br        1 UNK         0.0000 
     17 F17         7.5025   55.2989   21.6275 F         1 UNK         0.0000 
     18 C18         0.0678   52.6020   30.0881 C.2       1 UNK         0.0000 
     19 N19         0.6666   53.4774   30.8014 N.2       1 UNK         0.0000 
     20 O20         0.3044   53.4935   32.1720 O.3       1 UNK         0.0000 
     21 N21        -0.8956   51.6967   30.4817 N.pl3     1 UNK         0.0000 
     22 H22        -0.6591   50.9909   25.7421 H         1 UNK         0.0000 
     23 H23        -1.2222   51.1225   28.0779 H         1 UNK         0.0000 
     24 H24         2.0941   53.8000   28.7274 H         1 UNK         0.0000 
     25 H25         1.2326   52.1994   24.8270 H         1 UNK         0.0000 
     26 H26         2.6099   53.1794   24.3643 H         1 UNK         0.0000 
     27 H27         5.7269   54.7362   25.7182 H         1 UNK         0.0000 
     28 H28         7.5044   55.4582   24.2409 H         1 UNK         0.0000 
     29 H29         5.2392   54.2664   20.8165 H         1 UNK         0.0000 
     30 H30        -0.3252   52.7643   32.2696 H         1 UNK         0.0000 
     31 H31        -1.2601   51.6717   31.4393 H         1 UNK         0.0000 
     32 H32        -1.1707   50.9348   29.8780 H         1 UNK         0.0000 
@<TRIPOS>BOND
     1    1    6 ar   
     2    1    2 ar   
     3    1   22 1    
     4    2    3 ar   
     5    2   23 1    
     6    3    4 ar   
     7    3   18 1    
     8    4    5 ar   
     9    4   24 1    
    10    5    6 ar   
    11    5    7 1    
    12    6   25 1    
    13    7    8 2    
    14    7    9 am   BACKBONE|DICT|INTERRES
    15    9   10 1    
    16    9   26 1    
    17   10   15 ar   
    18   10   11 ar   
    19   11   12 ar   
    20   11   27 1    
    21   12   13 ar   
    22   12   28 1    
    23   13   14 ar   
    24   13   17 1    
    25   14   15 ar   
    26   14   29 1    
    27   15   16 1    
    28   18   19 2    
    29   18   21 1    
    30   19   20 1    
    31   20   30 1    
    32   21   31 1    
    33   21   32 1    
@<TRIPOS>SUBSTRUCTURE
     1 UNK         1 GROUP             0       ****    0 ROOT    
