@<TRIPOS>MOLECULE
ZINC39637409_5107
75   79    1
SMALL
USER_CHARGES


@<TRIPOS>ATOM
      1 C1          0.3170   44.3339   16.9673 C.3       1 UNK         0.0000 
      2 C2         -0.2625   45.5650   17.6959 C.3       1 UNK         0.0000 
      3 H3         -0.8966   45.1904   18.5048 H         1 UNK         0.0000 
      4 C4         -1.1471   46.4130   16.7572 C.3       1 UNK         0.0000 
      5 C5         -1.8198   47.5708   17.5183 C.3       1 UNK         0.0000 
      6 C6         -0.7960   48.4409   18.2794 C.3       1 UNK         0.0000 
      7 C7          0.1808   47.6146   19.1656 C.3       1 UNK         0.0000 
      8 H8         -0.4582   47.1356   19.9143 H         1 UNK         0.0000 
      9 C9          0.8314   46.4581   18.3491 C.3       1 UNK         0.0000 
     10 H10         1.3163   45.8165   19.0873 H         1 UNK         0.0000 
     11 C11         1.9297   46.9604   17.3770 C.3       1 UNK         0.0000 
     12 N12         1.1560   48.4315   19.8961 N.am      1 UNK         0.0000 
     13 C13         0.8707   49.3166   20.8682 C.2       1 UNK         0.0000 
     14 O14        -0.2730   49.5064   21.2825 O.2       1 UNK         0.0000 
     15 C15         2.0856   50.0378   21.5043 C.3       1 UNK         0.0000 
     16 H16         2.9333   49.3502   21.4730 H         1 UNK         0.0000 
     17 C17         1.7851   50.4996   22.9441 C.3       1 UNK         0.0000 
     18 N18         1.3768   51.9053   22.8094 N.am      1 UNK         0.0000 
     19 C19         1.5805   52.4153   21.4491 C.3       1 UNK         0.0000 
     20 C20         2.4661   51.3541   20.7480 C.3       1 UNK         0.0000 
     21 C21         3.9786   51.6559   21.0113 C.3       1 UNK         0.0000 
     22 C22         4.4613   52.9788   20.3837 C.3       1 UNK         0.0000 
     23 N23         4.2253   52.8968   18.8606 N.4       1 UNK         0.0000 
     24 C24         2.7455   52.6369   18.5178 C.3       1 UNK         0.0000 
     25 C25         2.3364   51.3146   19.1911 C.3       1 UNK         0.0000 
     26 C26         0.9726   52.7184   23.8166 C.2       1 UNK         0.0000 
     27 O27         0.8612   53.9378   23.6803 O.2       1 UNK         0.0000 
     28 C28         0.6000   52.1154   25.1471 C.ar      1 UNK         0.0000 
     29 C29        -0.3180   51.0566   25.2289 C.ar      1 UNK         0.0000 
     30 C30        -0.7171   50.5807   26.4741 C.ar      1 UNK         0.0000 
     31 C31        -0.2121   51.1960   27.6187 C.ar      1 UNK         0.0000 
     32 N32         0.6637   52.2243   27.5686 N.ar      1 UNK         0.0000 
     33 C33         1.0750   52.6670   26.3515 C.ar      1 UNK         0.0000 
     34 O34         1.9041   53.7673   26.3433 O.3       1 UNK         0.0000 
     35 C35         3.1727   53.7095   26.8727 C.ar      1 UNK         0.0000 
     36 C36         4.2293   54.1076   26.0524 C.ar      1 UNK         0.0000 
     37 C37         5.5334   54.1084   26.5419 C.ar      1 UNK         0.0000 
     38 C38         5.7723   53.7008   27.8534 C.ar      1 UNK         0.0000 
     39 C39         4.7210   53.3040   28.6734 C.ar      1 UNK         0.0000 
     40 C40         3.4204   53.3230   28.1931 C.ar      1 UNK         0.0000 
     41 Cl41        7.3737   53.6967   28.4796 Cl        1 UNK         0.0000 
     42 H42         0.8847   44.6182   16.0803 H         1 UNK         0.0000 
     43 H43         0.9797   43.7615   17.6201 H         1 UNK         0.0000 
     44 H44        -0.4776   43.6616   16.6409 H         1 UNK         0.0000 
     45 H45        -0.5632   46.7861   15.9140 H         1 UNK         0.0000 
     46 H46        -1.9127   45.7818   16.3046 H         1 UNK         0.0000 
     47 H47        -2.3869   48.1895   16.8224 H         1 UNK         0.0000 
     48 H48        -2.5477   47.1669   18.2250 H         1 UNK         0.0000 
     49 H49        -0.2210   49.0166   17.5527 H         1 UNK         0.0000 
     50 H50        -1.3372   49.1699   18.8820 H         1 UNK         0.0000 
     51 H51         1.5310   47.6272   16.6123 H         1 UNK         0.0000 
     52 H52         2.4335   46.1391   16.8706 H         1 UNK         0.0000 
     53 H53         2.7089   47.5128   17.9052 H         1 UNK         0.0000 
     54 H54         2.1241   48.2772   19.6546 H         1 UNK         0.0000 
     55 H55         1.0757   49.8373   23.4401 H         1 UNK         0.0000 
     56 H56         2.7037   50.4382   23.5276 H         1 UNK         0.0000 
     57 H57         1.9856   53.4206   21.3764 H         1 UNK         0.0000 
     58 H58         0.6116   52.4065   20.9441 H         1 UNK         0.0000 
     59 H59         4.1667   51.7120   22.0811 H         1 UNK         0.0000 
     60 H60         4.6015   50.8362   20.6551 H         1 UNK         0.0000 
     61 H61         3.9378   53.8677   20.7401 H         1 UNK         0.0000 
     62 H62         5.5305   53.1305   20.5166 H         1 UNK         0.0000 
     63 H63         4.5549   53.7365   18.3982 H         1 UNK         0.0000 
     64 H64         2.1772   53.5016   18.8625 H         1 UNK         0.0000 
     65 H65         2.6894   52.5786   17.4282 H         1 UNK         0.0000 
     66 H66         2.9158   50.4870   18.7743 H         1 UNK         0.0000 
     67 H67         1.3052   51.1158   18.9028 H         1 UNK         0.0000 
     68 H68        -0.7435   50.6199   24.3349 H         1 UNK         0.0000 
     69 H69        -1.4113   49.7530   26.5556 H         1 UNK         0.0000 
     70 H70        -0.5157   50.8637   28.5999 H         1 UNK         0.0000 
     71 H71         4.0305   54.4234   25.0393 H         1 UNK         0.0000 
     72 H72         6.3517   54.4151   25.9072 H         1 UNK         0.0000 
     73 H73         4.9088   52.9808   29.6818 H         1 UNK         0.0000 
     74 H74         2.6182   53.0431   28.8573 H         1 UNK         0.0000 
     75 H75         4.7619   52.1120   18.4842 H         1 UNK         0.0000 
@<TRIPOS>BOND
     1    1    2 1    
     2    1   42 1    
     3    1   43 1    
     4    1   44 1    
     5    2    3 1    
     6    2    9 1    
     7    2    4 1    
     8    4    5 1    
     9    4   45 1    
    10    4   46 1    
    11    5    6 1    
    12    5   47 1    
    13    5   48 1    
    14    6    7 1    
    15    6   49 1    
    16    6   50 1    
    17    7    8 1    
    18    7    9 1    
    19    7   12 1    
    20    9   10 1    
    21    9   11 1    
    22   11   51 1    
    23   11   52 1    
    24   11   53 1    
    25   12   13 am   BACKBONE|DICT|INTERRES
    26   12   54 1    
    27   13   14 2    
    28   13   15 1    
    29   15   16 1    
    30   15   20 1    
    31   15   17 1    
    32   17   18 1    
    33   17   55 1    
    34   17   56 1    
    35   18   19 1    
    36   18   26 am   BACKBONE|DICT|INTERRES
    37   19   20 1    
    38   19   57 1    
    39   19   58 1    
    40   20   25 1    
    41   20   21 1    
    42   21   22 1    
    43   21   59 1    
    44   21   60 1    
    45   22   23 1    
    46   22   61 1    
    47   22   62 1    
    48   23   24 1    
    49   23   63 1    
    50   23   75 1    
    51   24   25 1    
    52   24   64 1    
    53   24   65 1    
    54   25   66 1    
    55   25   67 1    
    56   26   27 2    
    57   26   28 1    
    58   28   33 ar   
    59   28   29 ar   
    60   29   30 ar   
    61   29   68 1    
    62   30   31 ar   
    63   30   69 1    
    64   31   32 ar   
    65   31   70 1    
    66   32   33 ar   
    67   33   34 1    
    68   34   35 1    
    69   35   40 ar   
    70   35   36 ar   
    71   36   37 ar   
    72   36   71 1    
    73   37   38 ar   
    74   37   72 1    
    75   38   39 ar   
    76   38   41 1    
    77   39   40 ar   
    78   39   73 1    
    79   40   74 1    
@<TRIPOS>SUBSTRUCTURE
     1 UNK         1 GROUP             0       ****    0 ROOT    
