@<TRIPOS>MOLECULE
ZINC61682292_4707
37   39    1
SMALL
USER_CHARGES


@<TRIPOS>ATOM
      1 C1          4.9267   54.3883   19.4261 C.3       1 UNK         0.0000 
      2 C2          6.1335   55.0254   20.1489 C.3       1 UNK         0.0000 
      3 C3          6.3288   56.4972   19.7384 C.3       1 UNK         0.0000 
      4 N4          6.0451   54.8933   21.6157 N.pl3     1 UNK         0.0000 
      5 C5          5.0412   54.3484   22.3846 C.ar      1 UNK         0.0000 
      6 C6          5.4389   54.4736   23.7054 C.ar      1 UNK         0.0000 
      7 C7          6.7044   55.0728   23.6137 C.ar      1 UNK         0.0000 
      8 N8          7.0697   55.3145   22.3736 N.2       1 UNK         0.0000 
      9 N9          4.6891   54.0969   24.8060 N.am      1 UNK         0.0000 
     10 C10         5.0229   54.2315   26.1099 C.2       1 UNK         0.0000 
     11 O11         6.0987   54.6734   26.5265 O.2       1 UNK         0.0000 
     12 C12         3.9909   53.7804   27.0295 C.2       1 UNK         0.0000 
     13 C13         4.1412   53.4688   28.3754 C.2       1 UNK         0.0000 
     14 C14         2.9169   53.1253   29.0219 C.ar      1 UNK         0.0000 
     15 C15         2.6758   52.7399   30.3539 C.ar      1 UNK         0.0000 
     16 C16         1.3669   52.4964   30.7678 C.ar      1 UNK         0.0000 
     17 C17         0.3022   52.5867   29.8832 C.ar      1 UNK         0.0000 
     18 C18         0.4993   52.9390   28.5534 C.ar      1 UNK         0.0000 
     19 C19         1.8062   53.2152   28.1331 C.ar      1 UNK         0.0000 
     20 S20         2.3050   53.6967   26.5271 S.3       1 UNK         0.0000 
     21 N21         1.1044   52.1290   32.0817 N.pl3     1 UNK         0.0000 
     22 H22         5.0388   54.4572   18.3431 H         1 UNK         0.0000 
     23 H23         3.9899   54.8840   19.6864 H         1 UNK         0.0000 
     24 H24         4.8285   53.3285   19.6668 H         1 UNK         0.0000 
     25 H25         7.0299   54.4864   19.8418 H         1 UNK         0.0000 
     26 H26         6.3940   56.5999   18.6545 H         1 UNK         0.0000 
     27 H27         5.5048   57.1214   20.0774 H         1 UNK         0.0000 
     28 H28         7.2535   56.8980   20.1521 H         1 UNK         0.0000 
     29 H29         4.1388   53.9549   21.9393 H         1 UNK         0.0000 
     30 H30         7.3346   55.3454   24.4455 H         1 UNK         0.0000 
     31 H31         3.7896   53.6849   24.6102 H         1 UNK         0.0000 
     32 H32         5.0954   53.4810   28.8820 H         1 UNK         0.0000 
     33 H33         3.4969   52.6340   31.0436 H         1 UNK         0.0000 
     34 H34        -0.6965   52.3577   30.2272 H         1 UNK         0.0000 
     35 H35        -0.3330   52.9957   27.8683 H         1 UNK         0.0000 
     36 H36         1.8451   52.0979   32.7692 H         1 UNK         0.0000 
     37 H37         0.1336   52.0436   32.3857 H         1 UNK         0.0000 
@<TRIPOS>BOND
     1    1    2 1    
     2    1   22 1    
     3    1   23 1    
     4    1   24 1    
     5    2    3 1    
     6    2    4 1    
     7    2   25 1    
     8    3   26 1    
     9    3   27 1    
    10    3   28 1    
    11    4    8 ar   
    12    4    5 ar   
    13    5    6 ar   
    14    5   29 1    
    15    6    7 ar   
    16    6    9 1    
    17    7    8 ar   
    18    7   30 1    
    19    9   10 am   BACKBONE|DICT|INTERRES
    20    9   31 1    
    21   10   11 2    
    22   10   12 1    
    23   12   20 1    
    24   12   13 2    
    25   13   14 1    
    26   13   32 1    
    27   14   19 ar   
    28   14   15 ar   
    29   15   16 ar   
    30   15   33 1    
    31   16   17 ar   
    32   16   21 1    
    33   17   18 ar   
    34   17   34 1    
    35   18   19 ar   
    36   18   35 1    
    37   19   20 1    
    38   21   36 1    
    39   21   37 1    
@<TRIPOS>SUBSTRUCTURE
     1 UNK         1 GROUP             0       ****    0 ROOT    
