ZINC61414646_3905
                    3D
 Schrodinger Suite 2024-2.
 28 30  0  0  1  0            999 V2000
    2.8325   53.8830   26.7470 C   0  0  0  0  0  0
    1.6662   53.5806   27.4406 C   0  0  0  0  0  0
    1.7268   53.1172   28.7642 C   0  0  0  0  0  0
    3.0016   52.8767   29.3565 C   0  0  0  0  0  0
    4.1714   53.1254   28.5989 C   0  0  0  0  0  0
    4.0978   53.6432   27.2939 C   0  0  0  0  0  0
    5.4283   53.8954   26.5523 C   0  0  1  0  0  0
    5.9751   52.9616   26.6975 H   0  0  0  0  0  0
    5.5338   54.1871   25.0401 C   0  0  0  0  0  0
    6.7119   54.4984   24.3572 C   0  0  0  0  0  0
    6.6132   54.6460   22.9745 C   0  0  0  0  0  0
    5.3331   54.4349   22.5212 C   0  0  0  0  0  0
    4.2608   54.0966   23.8335 S   0  0  0  0  0  0
    4.6954   54.4966   20.7311 Br  0  0  0  0  0  0
    6.1876   54.8967   27.2818 N   0  0  0  0  0  0
    3.0946   52.4167   30.6377 N   0  0  0  0  0  0
    1.9309   52.2317   31.3154 C   0  0  0  0  0  0
    0.6891   52.4968   30.7413 C   0  0  0  0  0  0
    0.5717   52.9211   29.4605 N   0  0  0  0  0  0
    2.6992   54.3144   25.7755 H   0  0  0  0  0  0
    0.7044   53.6979   26.9753 H   0  0  0  0  0  0
    5.1298   52.9141   29.0501 H   0  0  0  0  0  0
    7.6538   54.6064   24.8704 H   0  0  0  0  0  0
    7.4500   54.8858   22.3347 H   0  0  0  0  0  0
    5.9489   54.8449   28.2620 H   0  0  0  0  0  0
    7.1623   54.6441   27.2552 H   0  0  0  0  0  0
    2.0030   51.8764   32.3344 H   0  0  0  0  0  0
   -0.2307   52.3334   31.2871 H   0  0  0  0  0  0
  1  6  2  0  0  0
  1  2  1  0  0  0
  1 20  1  0  0  0
  2  3  2  0  0  0
  2 21  1  0  0  0
  3 19  1  0  0  0
  3  4  1  0  0  0
  4  5  2  0  0  0
  4 16  1  0  0  0
  5  6  1  0  0  0
  5 22  1  0  0  0
  6  7  1  0  0  0
  7  8  1  0  0  0
  7  9  1  0  0  0
  7 15  1  0  0  0
  9 13  1  0  0  0
  9 10  2  0  0  0
 10 11  1  0  0  0
 10 23  1  0  0  0
 11 12  2  0  0  0
 11 24  1  0  0  0
 12 13  1  0  0  0
 12 14  1  0  0  0
 15 25  1  0  0  0
 15 26  1  0  0  0
 16 17  2  0  0  0
 17 18  1  0  0  0
 17 27  1  0  0  0
 18 19  2  0  0  0
 18 28  1  0  0  0
M  END
> <i_i_glide_confnum>
9

> <i_i_glide_lignum>
3906

> <i_i_glide_posenum>
316

> <i_i_glide_rotatable_bonds>
2

> <i_m_Source_File_Index>
4252

> <b_m_subgroup_collapsed>
0

> <r_i_docking_score>
-5.83018

> <r_i_glide_ecoul>
-2.50711

> <r_i_glide_eff_state_penalty>
0

> <r_i_glide_einternal>
3.63687

> <r_i_glide_emodel>
-47.2427

> <r_i_glide_energy>
-35.6357

> <r_i_glide_erotb>
0.364165

> <r_i_glide_esite>
0

> <r_i_glide_evdw>
-33.1285

> <r_i_glide_gscore>
-5.83018

> <r_i_glide_hbond>
-0.172838

> <r_i_glide_ligand_efficiency>
-0.323899

> <r_i_glide_ligand_efficiency_ln>
-1.49862

> <r_i_glide_ligand_efficiency_sa>
-0.848855

> <r_i_glide_lipo>
-2.6965

> <r_i_glide_metal>
0

> <r_i_glide_rewards>
-1.29252

> <s_i_glide_gridfile>
wee1_glide-grid

> <s_m_Source_File>
wee1_decoys_glide_SP.sdf

> <s_m_Source_Path>
/Users/zhangxujun/Desktop

> <s_m_entry_id>
4527

> <s_m_entry_name>
wee1_decoys_glide_SP.4252

> <s_m_subgroup_title>
wee1_decoys_glide_SP

> <s_m_subgroupid>
wee1_decoys_glide_SP


$$$$
