@<TRIPOS>MOLECULE
ZINC14668662_2862
51   52    1
SMALL
USER_CHARGES


@<TRIPOS>ATOM
      1 C1          3.4740   53.8601   26.6877 C.3       1 UNK         0.0000 
      2 C2          2.4846   53.9072   27.8429 C.ar      1 UNK         0.0000 
      3 C3          2.4617   55.0350   28.6611 C.ar      1 UNK         0.0000 
      4 C4          1.5567   55.1265   29.7115 C.ar      1 UNK         0.0000 
      5 C5          0.6996   54.0666   29.9997 C.ar      1 UNK         0.0000 
      6 C6          0.7242   52.9257   29.1985 C.ar      1 UNK         0.0000 
      7 C7          1.5913   52.8531   28.1043 C.ar      1 UNK         0.0000 
      8 O8          1.5043   51.7577   27.2844 O.3       1 UNK         0.0000 
      9 C9          0.8789   52.0344   26.0304 C.3       1 UNK         0.0000 
     10 C10        -0.2039   50.9941   25.7368 C.2       1 UNK         0.0000 
     11 O11        -1.2242   51.3595   25.1448 O.2       1 UNK         0.0000 
     12 N12         0.0607   49.7110   26.0761 N.am      1 UNK         0.0000 
     13 N13        -0.8120   48.6810   25.6807 N.pl3     1 UNK         0.0000 
     14 C14        -0.9401   48.2208   24.3959 C.2       1 UNK         0.0000 
     15 S15        -2.0953   47.0416   24.1289 S.2       1 UNK         0.0000 
     16 N16        -0.0976   48.7943   23.4714 N.am      1 UNK         0.0000 
     17 C17        -0.1384   48.8968   22.1201 C.2       1 UNK         0.0000 
     18 O18        -1.0041   48.4101   21.3886 O.2       1 UNK         0.0000 
     19 C19         0.9990   49.7074   21.5342 C.ar      1 UNK         0.0000 
     20 C20         1.4048   50.8932   22.1699 C.ar      1 UNK         0.0000 
     21 C21         2.4502   51.6611   21.6655 C.ar      1 UNK         0.0000 
     22 C22         3.1046   51.2592   20.5063 C.ar      1 UNK         0.0000 
     23 C23         2.7028   50.0968   19.8530 C.ar      1 UNK         0.0000 
     24 C24         1.6448   49.3120   20.3428 C.ar      1 UNK         0.0000 
     25 O25         1.2284   48.1429   19.7271 O.3       1 UNK         0.0000 
     26 C26         1.6639   47.7857   18.4145 C.3       1 UNK         0.0000 
     27 C27         1.1511   46.3577   18.1934 C.3       1 UNK         0.0000 
     28 C28         1.0984   48.7420   17.3449 C.3       1 UNK         0.0000 
     29 Br29        2.9757   53.2523   22.5684 Br        1 UNK         0.0000 
     30 Cl30        1.5023   56.5732   30.6305 Cl        1 UNK         0.0000 
     31 H31         3.9721   52.8945   26.6540 H         1 UNK         0.0000 
     32 H32         2.9656   54.0131   25.7366 H         1 UNK         0.0000 
     33 H33         4.2596   54.6093   26.7913 H         1 UNK         0.0000 
     34 H34         3.1323   55.8583   28.4820 H         1 UNK         0.0000 
     35 H35         0.0076   54.1320   30.8262 H         1 UNK         0.0000 
     36 H36         0.0448   52.1095   29.4023 H         1 UNK         0.0000 
     37 H37         0.4294   53.0285   25.9721 H         1 UNK         0.0000 
     38 H38         1.6219   51.9929   25.2358 H         1 UNK         0.0000 
     39 H39         0.9163   49.3789   26.4958 H         1 UNK         0.0000 
     40 H40        -1.5165   48.4953   26.3891 H         1 UNK         0.0000 
     41 H41         0.7094   49.2414   23.8750 H         1 UNK         0.0000 
     42 H42         0.9021   51.2425   23.0598 H         1 UNK         0.0000 
     43 H43         3.9157   51.8478   20.1033 H         1 UNK         0.0000 
     44 H44         3.2336   49.8186   18.9550 H         1 UNK         0.0000 
     45 H45         2.7535   47.7597   18.3695 H         1 UNK         0.0000 
     46 H46         1.4949   45.9547   17.2419 H         1 UNK         0.0000 
     47 H47         1.5038   45.6970   18.9855 H         1 UNK         0.0000 
     48 H48         0.0619   46.3219   18.2011 H         1 UNK         0.0000 
     49 H49         1.4058   48.4346   16.3448 H         1 UNK         0.0000 
     50 H50         0.0089   48.7632   17.3726 H         1 UNK         0.0000 
     51 H51         1.4486   49.7656   17.4769 H         1 UNK         0.0000 
@<TRIPOS>BOND
     1    1    2 1    
     2    1   31 1    
     3    1   32 1    
     4    1   33 1    
     5    2    7 ar   
     6    2    3 ar   
     7    3    4 ar   
     8    3   34 1    
     9    4    5 ar   
    10    4   30 1    
    11    5    6 ar   
    12    5   35 1    
    13    6    7 ar   
    14    6   36 1    
    15    7    8 1    
    16    8    9 1    
    17    9   10 1    
    18    9   37 1    
    19    9   38 1    
    20   10   11 2    
    21   10   12 am   BACKBONE|DICT|INTERRES
    22   12   13 1    
    23   12   39 1    
    24   13   14 1    
    25   13   40 1    
    26   14   15 2    
    27   14   16 am   BACKBONE|DICT|INTERRES
    28   16   17 am   BACKBONE|DICT|INTERRES
    29   16   41 1    
    30   17   18 2    
    31   17   19 1    
    32   19   24 ar   
    33   19   20 ar   
    34   20   21 ar   
    35   20   42 1    
    36   21   22 ar   
    37   21   29 1    
    38   22   23 ar   
    39   22   43 1    
    40   23   24 ar   
    41   23   44 1    
    42   24   25 1    
    43   25   26 1    
    44   26   27 1    
    45   26   28 1    
    46   26   45 1    
    47   27   46 1    
    48   27   47 1    
    49   27   48 1    
    50   28   49 1    
    51   28   50 1    
    52   28   51 1    
@<TRIPOS>SUBSTRUCTURE
     1 UNK         1 GROUP             0       ****    0 ROOT    
