@<TRIPOS>MOLECULE
ZINC18084190_5924
53   56    1
SMALL
USER_CHARGES


@<TRIPOS>ATOM
      1 C1          9.5223   56.6762   17.5426 C.ar      1 UNK         0.0000 
      2 C2          8.5041   57.6242   17.6207 C.ar      1 UNK         0.0000 
      3 C3          7.3030   57.2964   18.2435 C.ar      1 UNK         0.0000 
      4 C4          7.1181   56.0176   18.7778 C.ar      1 UNK         0.0000 
      5 C5          8.1508   55.0775   18.7084 C.ar      1 UNK         0.0000 
      6 C6          9.3508   55.4038   18.0827 C.ar      1 UNK         0.0000 
      7 C7          5.8222   55.6960   19.5064 C.3       1 UNK         0.0000 
      8 N8          5.2391   54.4312   19.0691 N.pl3     1 UNK         0.0000 
      9 C9          4.4209   53.5858   19.7999 C.2       1 UNK         0.0000 
     10 N10         3.4260   52.9824   19.2733 N.2       1 UNK         0.0000 
     11 C11         2.6438   52.0129   19.9190 C.ar      1 UNK         0.0000 
     12 C12         1.8980   52.2937   21.0726 C.ar      1 UNK         0.0000 
     13 C13         1.1383   51.3059   21.6942 C.ar      1 UNK         0.0000 
     14 C14         1.0982   50.0258   21.1491 C.ar      1 UNK         0.0000 
     15 C15         1.8048   49.7336   19.9865 C.ar      1 UNK         0.0000 
     16 C16         2.5622   50.7283   19.3732 C.ar      1 UNK         0.0000 
     17 F17         0.3581   49.0640   21.7447 F         1 UNK         0.0000 
     18 S18         5.1044   53.0322   21.4019 S.3       1 UNK         0.0000 
     19 C19         4.9739   54.4963   22.4882 C.3       1 UNK         0.0000 
     20 H20         4.4192   55.2918   21.9832 H         1 UNK         0.0000 
     21 C21         6.3091   54.9681   23.0058 C.3       1 UNK         0.0000 
     22 C22         6.2066   54.8973   24.5149 C.2       1 UNK         0.0000 
     23 O23         7.1011   55.2910   25.2691 O.2       1 UNK         0.0000 
     24 N24         4.9903   54.3687   24.8473 N.am      1 UNK         0.0000 
     25 C25         4.2234   54.0967   23.7440 C.2       1 UNK         0.0000 
     26 O26         3.0923   53.6083   23.7115 O.2       1 UNK         0.0000 
     27 C27         4.5739   54.0907   26.1887 C.ar      1 UNK         0.0000 
     28 C28         3.2209   54.1782   26.5545 C.ar      1 UNK         0.0000 
     29 C29         2.7931   53.7990   27.8166 C.ar      1 UNK         0.0000 
     30 C30         3.7057   53.3105   28.7546 C.ar      1 UNK         0.0000 
     31 C31         5.0632   53.2668   28.4234 C.ar      1 UNK         0.0000 
     32 C32         5.4932   53.6529   27.1581 C.ar      1 UNK         0.0000 
     33 C33         3.2175   52.8245   30.0785 C.2       1 UNK         0.0000 
     34 O34         2.1323   53.2952   30.4828 O.co2     1 UNK         0.0000 
     35 O35         3.9045   51.9795   30.6982 O.co2     1 UNK         0.0000 
     36 H36        10.4565   56.9300   17.0632 H         1 UNK         0.0000 
     37 H37         8.6439   58.6103   17.2015 H         1 UNK         0.0000 
     38 H38         6.5199   58.0396   18.3037 H         1 UNK         0.0000 
     39 H39         8.0261   54.0974   19.1417 H         1 UNK         0.0000 
     40 H40        10.1503   54.6787   18.0312 H         1 UNK         0.0000 
     41 H41         5.1038   56.4892   19.3068 H         1 UNK         0.0000 
     42 H42         6.0343   55.7186   20.5656 H         1 UNK         0.0000 
     43 H43         5.1423   54.3538   18.0676 H         1 UNK         0.0000 
     44 H44         1.9152   53.2910   21.4852 H         1 UNK         0.0000 
     45 H45         0.5838   51.5323   22.5924 H         1 UNK         0.0000 
     46 H46         1.7674   48.7427   19.5590 H         1 UNK         0.0000 
     47 H47         3.1045   50.4965   18.4678 H         1 UNK         0.0000 
     48 H48         6.5241   55.9994   22.7267 H         1 UNK         0.0000 
     49 H49         7.1475   54.3556   22.6704 H         1 UNK         0.0000 
     50 H50         2.4650   54.4967   25.8559 H         1 UNK         0.0000 
     51 H51         1.7377   53.8503   28.0475 H         1 UNK         0.0000 
     52 H52         5.7884   52.8975   29.1317 H         1 UNK         0.0000 
     53 H53         6.5431   53.5437   26.9308 H         1 UNK         0.0000 
@<TRIPOS>BOND
     1    1    6 ar   
     2    1    2 ar   
     3    1   36 1    
     4    2    3 ar   
     5    2   37 1    
     6    3    4 ar   
     7    3   38 1    
     8    4    5 ar   
     9    4    7 1    
    10    5    6 ar   
    11    5   39 1    
    12    6   40 1    
    13    7    8 1    
    14    7   41 1    
    15    7   42 1    
    16    8    9 1    
    17    8   43 1    
    18    9   10 2    
    19    9   18 1    
    20   10   11 1    
    21   11   16 ar   
    22   11   12 ar   
    23   12   13 ar   
    24   12   44 1    
    25   13   14 ar   
    26   13   45 1    
    27   14   15 ar   
    28   14   17 1    
    29   15   16 ar   
    30   15   46 1    
    31   16   47 1    
    32   18   19 1    
    33   19   20 1    
    34   19   25 1    
    35   19   21 1    
    36   21   22 1    
    37   21   48 1    
    38   21   49 1    
    39   22   23 2    
    40   22   24 am   BACKBONE|DICT|INTERRES
    41   24   25 am   BACKBONE|DICT|INTERRES
    42   24   27 1    
    43   25   26 2    
    44   27   32 ar   
    45   27   28 ar   
    46   28   29 ar   
    47   28   50 1    
    48   29   30 ar   
    49   29   51 1    
    50   30   31 ar   
    51   30   33 1    
    52   31   32 ar   
    53   31   52 1    
    54   32   53 1    
    55   33   34 2    
    56   33   35 1    
@<TRIPOS>SUBSTRUCTURE
     1 UNK         1 GROUP             0       ****    0 ROOT    
