ZINC35863308_1185
                    3D
 Schrodinger Suite 2024-2.
 70 74  0  0  1  0            999 V2000
   -3.2940   50.7333   27.9632 C   0  0  0  0  0  0
   -2.9433   50.7096   26.4652 C   0  0  0  0  0  0
   -1.8219   51.7027   26.1093 C   0  0  0  0  0  0
   -2.1321   52.8937   26.0826 O   0  0  0  0  0  0
   -0.5993   51.2655   25.6973 N   0  0  0  0  0  0
   -0.1110   49.8904   25.9238 C   0  0  0  0  0  0
    0.2230   49.3033   24.5471 C   0  0  0  0  0  0
    1.1030   50.2279   23.7098 C   0  0  0  0  0  0
    1.8533   49.7001   22.6572 C   0  0  0  0  0  0
    2.6061   50.5183   21.8263 C   0  0  0  0  0  0
    2.6002   51.9050   22.0087 C   0  0  0  0  0  0
    1.8500   52.4315   23.0618 C   0  0  0  0  0  0
    1.1295   51.6211   23.9616 C   0  0  0  0  0  0
    0.4454   52.2150   25.2258 C   0  0  2  0  0  0
   -0.0647   53.1243   24.9002 H   0  0  0  0  0  0
    1.4405   52.7126   26.3149 C   0  0  0  0  0  0
    2.4365   53.6544   26.0116 C   0  0  0  0  0  0
    3.3388   54.0955   26.9813 C   0  0  0  0  0  0
    3.2555   53.6107   28.2838 C   0  0  0  0  0  0
    2.2593   52.6964   28.6181 C   0  0  0  0  0  0
    1.3529   52.2662   27.6490 C   0  0  0  0  0  0
    2.1780   52.2227   29.8826 F   0  0  0  0  0  0
    3.3041   52.8031   21.2235 O   0  0  0  0  0  0
    4.1927   52.3037   20.2235 C   0  0  0  0  0  0
    4.5832   53.4115   19.2748 C   0  0  0  0  0  0
    4.5097   53.5381   17.8982 C   0  0  0  0  0  0
    5.0605   54.7747   17.5742 C   0  0  0  0  0  0
    5.4036   55.3975   18.7736 C   0  0  0  0  0  0
    5.1549   54.5307   19.7990 O   0  0  0  0  0  0
    6.1001   56.6388   19.0576 C   0  0  0  0  0  0
    6.7789   56.7279   20.0842 O   0  0  0  0  0  0
    6.0118   57.6476   18.1442 N   0  0  0  0  0  0
    6.9264   58.8098   18.2408 C   0  0  0  0  0  0
    7.4622   59.1153   16.8241 C   0  0  0  0  0  0
    6.3014   59.3147   15.8342 N   0  3  0  0  0  0
    5.3543   58.1076   15.8060 C   0  0  1  0  0  0
    5.8676   57.2494   15.3659 H   0  0  0  0  0  0
    4.8556   57.8261   17.2368 C   0  0  0  0  0  0
    4.2001   58.5159   14.8754 C   0  0  0  0  0  0
   -4.0572   49.9860   28.1830 H   0  0  0  0  0  0
   -2.4348   50.4970   28.5899 H   0  0  0  0  0  0
   -3.7020   51.6945   28.2718 H   0  0  0  0  0  0
   -3.8271   50.9937   25.8912 H   0  0  0  0  0  0
   -2.7307   49.6939   26.1406 H   0  0  0  0  0  0
    0.7861   49.8859   26.5415 H   0  0  0  0  0  0
   -0.7902   49.2513   26.4817 H   0  0  0  0  0  0
    0.7041   48.3345   24.6840 H   0  0  0  0  0  0
   -0.7034   49.0931   24.0116 H   0  0  0  0  0  0
    1.8567   48.6364   22.4819 H   0  0  0  0  0  0
    3.1706   50.0446   21.0388 H   0  0  0  0  0  0
    1.8444   53.5036   23.1772 H   0  0  0  0  0  0
    2.5348   54.0750   25.0250 H   0  0  0  0  0  0
    4.0998   54.8167   26.7224 H   0  0  0  0  0  0
    3.9592   53.9448   29.0330 H   0  0  0  0  0  0
    0.5883   51.5711   27.9616 H   0  0  0  0  0  0
    5.0840   51.8994   20.7050 H   0  0  0  0  0  0
    3.7335   51.5146   19.6284 H   0  0  0  0  0  0
    4.1399   52.7869   17.2150 H   0  0  0  0  0  0
    5.2002   55.1613   16.5759 H   0  0  0  0  0  0
    6.4089   59.6870   18.6429 H   0  0  0  0  0  0
    7.7766   58.6056   18.8911 H   0  0  0  0  0  0
    8.0105   60.0590   16.8072 H   0  0  0  0  0  0
    8.1076   58.3259   16.4330 H   0  0  0  0  0  0
    6.6565   59.5084   14.9086 H   0  0  0  0  0  0
    4.0467   57.0996   17.3120 H   0  0  0  0  0  0
    4.3831   58.7461   17.5767 H   0  0  0  0  0  0
    3.4663   57.7145   14.7904 H   0  0  0  0  0  0
    3.6749   59.3998   15.2435 H   0  0  0  0  0  0
    4.5507   58.7350   13.8665 H   0  0  0  0  0  0
    5.7811   60.1435   16.1247 H   0  0  0  0  0  0
  1  2  1  0  0  0
  1 40  1  0  0  0
  1 41  1  0  0  0
  1 42  1  0  0  0
  2  3  1  0  0  0
  2 43  1  0  0  0
  2 44  1  0  0  0
  3  4  2  0  0  0
  3  5  1  0  0  0
  5 14  1  0  0  0
  5  6  1  0  0  0
  6  7  1  0  0  0
  6 45  1  0  0  0
  6 46  1  0  0  0
  7  8  1  0  0  0
  7 47  1  0  0  0
  7 48  1  0  0  0
  8 13  2  0  0  0
  8  9  1  0  0  0
  9 10  2  0  0  0
  9 49  1  0  0  0
 10 11  1  0  0  0
 10 50  1  0  0  0
 11 12  2  0  0  0
 11 23  1  0  0  0
 12 13  1  0  0  0
 12 51  1  0  0  0
 13 14  1  0  0  0
 14 15  1  0  0  0
 14 16  1  0  0  0
 16 21  2  0  0  0
 16 17  1  0  0  0
 17 18  2  0  0  0
 17 52  1  0  0  0
 18 19  1  0  0  0
 18 53  1  0  0  0
 19 20  2  0  0  0
 19 54  1  0  0  0
 20 21  1  0  0  0
 20 22  1  0  0  0
 21 55  1  0  0  0
 23 24  1  0  0  0
 24 25  1  0  0  0
 24 56  1  0  0  0
 24 57  1  0  0  0
 25 29  1  0  0  0
 25 26  2  0  0  0
 26 27  1  0  0  0
 26 58  1  0  0  0
 27 28  2  0  0  0
 27 59  1  0  0  0
 28 29  1  0  0  0
 28 30  1  0  0  0
 30 31  2  0  0  0
 30 32  1  0  0  0
 32 38  1  0  0  0
 32 33  1  0  0  0
 33 34  1  0  0  0
 33 60  1  0  0  0
 33 61  1  0  0  0
 34 35  1  0  0  0
 34 62  1  0  0  0
 34 63  1  0  0  0
 35 36  1  0  0  0
 35 64  1  0  0  0
 35 70  1  0  0  0
 36 37  1  0  0  0
 36 38  1  0  0  0
 36 39  1  0  0  0
 38 65  1  0  0  0
 38 66  1  0  0  0
 39 67  1  0  0  0
 39 68  1  0  0  0
 39 69  1  0  0  0
M  CHG  1  35   1
M  END
> <i_i_glide_confnum>
16

> <i_i_glide_lignum>
1186

> <i_i_glide_posenum>
374

> <i_i_glide_rotatable_bonds>
8

> <i_m_Source_File_Index>
5399

> <b_m_subgroup_collapsed>
0

> <r_i_docking_score>
-5.23921

> <r_i_glide_ecoul>
-9.64253

> <r_i_glide_eff_state_penalty>
0

> <r_i_glide_einternal>
7.97951

> <r_i_glide_emodel>
-64.743

> <r_i_glide_energy>
-48.9152

> <r_i_glide_erotb>
0.558104

> <r_i_glide_esite>
-0.159807

> <r_i_glide_evdw>
-39.2727

> <r_i_glide_gscore>
-5.23921

> <r_i_glide_hbond>
-0.450781

> <r_i_glide_ligand_efficiency>
-0.1416

> <r_i_glide_ligand_efficiency_ln>
-1.13626

> <r_i_glide_ligand_efficiency_sa>
-0.471844

> <r_i_glide_lipo>
-1.79952

> <r_i_glide_metal>
0

> <r_i_glide_rewards>
0.0228108

> <s_i_glide_gridfile>
wee1_glide-grid

> <s_m_Source_File>
wee1_decoys_glide_SP.sdf

> <s_m_Source_Path>
/Users/zhangxujun/Desktop

> <s_m_entry_id>
5674

> <s_m_entry_name>
wee1_decoys_glide_SP.5399

> <s_m_subgroup_title>
wee1_decoys_glide_SP

> <s_m_subgroupid>
wee1_decoys_glide_SP


$$$$
