@<TRIPOS>MOLECULE
ZINC39469716_5349
58   62    1
SMALL
USER_CHARGES


@<TRIPOS>ATOM
      1 C1          6.8070   54.3408   27.0241 C.ar      1 UNK         0.0000 
      2 C2          6.0352   54.8966   26.0117 C.ar      1 UNK         0.0000 
      3 C3          4.6489   54.8079   26.0839 C.ar      1 UNK         0.0000 
      4 C4          4.0289   54.1345   27.1443 C.ar      1 UNK         0.0000 
      5 C5          4.8211   53.5785   28.1537 C.ar      1 UNK         0.0000 
      6 C6          6.2074   53.6937   28.0959 C.ar      1 UNK         0.0000 
      7 C7          2.5035   54.0884   27.2713 C.3       1 UNK         0.0000 
      8 C8          1.7453   53.2374   26.2397 C.2       1 UNK         0.0000 
      9 C9          1.1403   52.0911   26.6391 C.2       1 UNK         0.0000 
     10 C10         0.3512   51.2037   25.6717 C.3       1 UNK         0.0000 
     11 H11         1.1045   50.6550   25.1071 H         1 UNK         0.0000 
     12 C12        -0.5452   50.1192   26.3065 C.3       1 UNK         0.0000 
     13 N13        -1.1997   49.2802   25.1875 N.4       1 UNK         0.0000 
     14 C14        -2.0071   50.1565   24.1825 C.3       1 UNK         0.0000 
     15 H15        -2.7427   50.6593   24.8117 H         1 UNK         0.0000 
     16 C16        -1.0374   51.1830   23.5449 C.3       1 UNK         0.0000 
     17 C17        -0.4160   52.0729   24.6360 C.3       1 UNK         0.0000 
     18 H18        -1.2313   52.5856   25.1524 H         1 UNK         0.0000 
     19 C19         0.5048   53.1709   24.1124 C.2       1 UNK         0.0000 
     20 C20         1.5043   53.6865   24.8583 C.2       1 UNK         0.0000 
     21 F21         2.2316   54.6689   24.2937 F         1 UNK         0.0000 
     22 C22        -2.7479   49.2801   23.1350 C.3       1 UNK         0.0000 
     23 O23        -3.5663   48.2987   23.7584 O.3       1 UNK         0.0000 
     24 P24        -2.8307   47.1448   24.6428 P.3       1 UNK         0.0000 
     25 O25        -2.0952   46.1377   23.8296 O.2       1 UNK         0.0000 
     26 N26        -1.9209   48.1245   25.6817 N.pl3     1 UNK         0.0000 
     27 S27        -4.4720   46.1073   25.8479 S.3       1 UNK         0.0000 
     28 O28        -5.0847   45.1187   24.9535 O.2       1 UNK         0.0000 
     29 O29        -3.8917   45.6968   27.1289 O.2       1 UNK         0.0000 
     30 O30        -5.5574   47.3601   26.0953 O.3       1 UNK         0.0000 
     31 C31        -5.1692   48.4406   26.8467 C.ar      1 UNK         0.0000 
     32 C32        -4.8957   48.3101   28.2107 C.ar      1 UNK         0.0000 
     33 C33        -4.4956   49.4195   28.9499 C.ar      1 UNK         0.0000 
     34 C34        -4.3904   50.6609   28.3269 C.ar      1 UNK         0.0000 
     35 C35        -4.6953   50.8053   26.9747 C.ar      1 UNK         0.0000 
     36 C36        -5.0894   49.6920   26.2355 C.ar      1 UNK         0.0000 
     37 H37         7.8837   54.4196   26.9966 H         1 UNK         0.0000 
     38 H38         6.5041   55.4135   25.1870 H         1 UNK         0.0000 
     39 H39         4.0791   55.2974   25.3179 H         1 UNK         0.0000 
     40 H40         4.3683   53.0756   28.9956 H         1 UNK         0.0000 
     41 H41         6.8261   53.2970   28.8835 H         1 UNK         0.0000 
     42 H42         2.2477   53.7367   28.2725 H         1 UNK         0.0000 
     43 H43         2.1335   55.1097   27.2817 H         1 UNK         0.0000 
     44 H44         1.2586   51.7648   27.6631 H         1 UNK         0.0000 
     45 H45         0.0429   49.4039   26.8819 H         1 UNK         0.0000 
     46 H46        -1.3313   50.5098   26.9546 H         1 UNK         0.0000 
     47 H47        -0.2459   50.6547   23.0075 H         1 UNK         0.0000 
     48 H48        -1.5732   51.8022   22.8227 H         1 UNK         0.0000 
     49 H49         0.3695   53.5546   23.1134 H         1 UNK         0.0000 
     50 H50        -3.3901   49.9036   22.5105 H         1 UNK         0.0000 
     51 H51        -2.0448   48.7901   22.4568 H         1 UNK         0.0000 
     52 H52        -1.9403   47.9740   26.7014 H         1 UNK         0.0000 
     53 H53        -4.9717   47.3475   28.6936 H         1 UNK         0.0000 
     54 H54        -4.2421   49.3078   29.9952 H         1 UNK         0.0000 
     55 H55        -4.0688   51.5166   28.9011 H         1 UNK         0.0000 
     56 H56        -4.6271   51.7744   26.5030 H         1 UNK         0.0000 
     57 H57        -5.3311   49.7924   25.1881 H         1 UNK         0.0000 
     58 H58        -0.4334   48.8783   24.6657 H         1 UNK         0.0000 
@<TRIPOS>BOND
     1    1    6 ar   
     2    1    2 ar   
     3    1   37 1    
     4    2    3 ar   
     5    2   38 1    
     6    3    4 ar   
     7    3   39 1    
     8    4    5 ar   
     9    4    7 1    
    10    5    6 ar   
    11    5   40 1    
    12    6   41 1    
    13    7    8 1    
    14    7   42 1    
    15    7   43 1    
    16    8   20 1    
    17    8    9 2    
    18    9   10 1    
    19    9   44 1    
    20   10   11 1    
    21   10   17 1    
    22   10   12 1    
    23   12   13 1    
    24   12   45 1    
    25   12   46 1    
    26   13   26 1    
    27   13   14 1    
    28   13   58 1    
    29   14   15 1    
    30   14   16 1    
    31   14   22 1    
    32   16   17 1    
    33   16   47 1    
    34   16   48 1    
    35   17   18 1    
    36   17   19 1    
    37   19   20 2    
    38   19   49 1    
    39   20   21 1    
    40   22   23 1    
    41   22   50 1    
    42   22   51 1    
    43   23   24 1    
    44   24   25 2    
    45   24   26 1    
    46   24   27 1    
    47   26   52 1    
    48   27   28 2    
    49   27   29 2    
    50   27   30 1    
    51   30   31 1    
    52   31   36 ar   
    53   31   32 ar   
    54   32   33 ar   
    55   32   53 1    
    56   33   34 ar   
    57   33   54 1    
    58   34   35 ar   
    59   34   55 1    
    60   35   36 ar   
    61   35   56 1    
    62   36   57 1    
@<TRIPOS>SUBSTRUCTURE
     1 UNK         1 GROUP             0       ****    0 ROOT    
