@<TRIPOS>MOLECULE
ZINC09789063_59
54   58    1
SMALL
USER_CHARGES


@<TRIPOS>ATOM
      1 C1          4.2812   53.4799   29.6986 C.3       1 UNK         0.0000 
      2 C2          3.0192   53.6529   28.8177 C.3       1 UNK         0.0000 
      3 C3          2.0979   52.4558   29.0028 C.2       1 UNK         0.0000 
      4 O4          2.3045   51.3029   28.6263 O.2       1 UNK         0.0000 
      5 N5          0.9714   52.9349   29.5734 N.am      1 UNK         0.0000 
      6 C6          1.0323   54.2581   29.8678 C.2       1 UNK         0.0000 
      7 O7          0.3047   54.8914   30.6270 O.2       1 UNK         0.0000 
      8 N8          2.1842   54.6953   29.3452 N.am      1 UNK         0.0000 
      9 C9         -0.2908   52.1536   29.5552 C.3       1 UNK         0.0000 
     10 C10        -0.8954   52.0768   28.1355 C.2       1 UNK         0.0000 
     11 O11        -0.5765   52.8966   27.2819 O.2       1 UNK         0.0000 
     12 N12        -1.7425   51.0668   27.8907 N.am      1 UNK         0.0000 
     13 C13        -2.3817   50.7062   26.6191 C.3       1 UNK         0.0000 
     14 H14        -2.8410   49.7505   26.8815 H         1 UNK         0.0000 
     15 C15        -3.5445   51.6264   26.2017 C.ar      1 UNK         0.0000 
     16 C16        -4.8607   51.1678   26.3457 C.ar      1 UNK         0.0000 
     17 C17        -5.9344   51.9605   25.9472 C.ar      1 UNK         0.0000 
     18 C18        -5.6987   53.2190   25.4002 C.ar      1 UNK         0.0000 
     19 C19        -4.3980   53.6923   25.2562 C.ar      1 UNK         0.0000 
     20 C20        -3.3268   52.8971   25.6566 C.ar      1 UNK         0.0000 
     21 C21        -1.3502   50.3240   25.5492 C.2       1 UNK         0.0000 
     22 C22        -0.7505   49.0742   25.3714 C.2       1 UNK         0.0000 
     23 C23         0.1637   48.9986   24.3210 C.2       1 UNK         0.0000 
     24 C24         0.3053   50.1999   23.6565 C.2       1 UNK         0.0000 
     25 S25        -0.7098   51.4207   24.3408 S.3       1 UNK         0.0000 
     26 C26         3.3511   53.8265   27.3298 C.2       1 UNK         0.0000 
     27 C27         2.6081   53.6958   26.1566 C.2       1 UNK         0.0000 
     28 C28         3.5047   53.9112   25.0685 C.ar      1 UNK         0.0000 
     29 C29         3.4315   53.8641   23.6672 C.ar      1 UNK         0.0000 
     30 C30         4.5977   54.0969   22.9295 C.ar      1 UNK         0.0000 
     31 C31         5.8072   54.4129   23.5558 C.ar      1 UNK         0.0000 
     32 C32         5.9030   54.4965   24.9463 C.ar      1 UNK         0.0000 
     33 C33         4.7394   54.2262   25.6766 C.ar      1 UNK         0.0000 
     34 O34         4.6331   54.2060   27.0366 O.3       1 UNK         0.0000 
     35 H35         4.9093   52.6659   29.3303 H         1 UNK         0.0000 
     36 H36         4.8914   54.3850   29.6877 H         1 UNK         0.0000 
     37 H37         4.0401   53.2609   30.7403 H         1 UNK         0.0000 
     38 H38         2.3317   55.6614   29.0929 H         1 UNK         0.0000 
     39 H39        -1.0121   52.5824   30.2491 H         1 UNK         0.0000 
     40 H40        -0.0987   51.1409   29.9003 H         1 UNK         0.0000 
     41 H41        -1.8089   50.3326   28.5880 H         1 UNK         0.0000 
     42 H42        -5.0590   50.1911   26.7637 H         1 UNK         0.0000 
     43 H43        -6.9459   51.5972   26.0570 H         1 UNK         0.0000 
     44 H44        -6.5314   53.8289   25.0813 H         1 UNK         0.0000 
     45 H45        -4.2163   54.6693   24.8330 H         1 UNK         0.0000 
     46 H46        -2.3280   53.2876   25.5457 H         1 UNK         0.0000 
     47 H47        -0.9656   48.2340   26.0186 H         1 UNK         0.0000 
     48 H48         0.7052   48.0998   24.0702 H         1 UNK         0.0000 
     49 H49         0.9486   50.4236   22.8183 H         1 UNK         0.0000 
     50 H50         1.5657   53.4197   26.1036 H         1 UNK         0.0000 
     51 H51         2.5030   53.6253   23.1693 H         1 UNK         0.0000 
     52 H52         4.5605   54.0452   21.8499 H         1 UNK         0.0000 
     53 H53         6.6844   54.5948   22.9502 H         1 UNK         0.0000 
     54 H54         6.8348   54.7275   25.4382 H         1 UNK         0.0000 
@<TRIPOS>BOND
     1    1    2 1    
     2    1   35 1    
     3    1   36 1    
     4    1   37 1    
     5    2    8 1    
     6    2    3 1    
     7    2   26 1    
     8    3    4 2    
     9    3    5 am   BACKBONE|DICT|INTERRES
    10    5    6 am   BACKBONE|DICT|INTERRES
    11    5    9 1    
    12    6    7 2    
    13    6    8 am   BACKBONE|DICT|INTERRES
    14    8   38 1    
    15    9   10 1    
    16    9   39 1    
    17    9   40 1    
    18   10   11 2    
    19   10   12 am   BACKBONE|DICT|INTERRES
    20   12   13 1    
    21   12   41 1    
    22   13   14 1    
    23   13   15 1    
    24   13   21 1    
    25   15   20 ar   
    26   15   16 ar   
    27   16   17 ar   
    28   16   42 1    
    29   17   18 ar   
    30   17   43 1    
    31   18   19 ar   
    32   18   44 1    
    33   19   20 ar   
    34   19   45 1    
    35   20   46 1    
    36   21   25 1    
    37   21   22 2    
    38   22   23 1    
    39   22   47 1    
    40   23   24 2    
    41   23   48 1    
    42   24   25 1    
    43   24   49 1    
    44   26   34 1    
    45   26   27 2    
    46   27   28 1    
    47   27   50 1    
    48   28   33 ar   
    49   28   29 ar   
    50   29   30 ar   
    51   29   51 1    
    52   30   31 ar   
    53   30   52 1    
    54   31   32 ar   
    55   31   53 1    
    56   32   33 ar   
    57   32   54 1    
    58   33   34 1    
@<TRIPOS>SUBSTRUCTURE
     1 UNK         1 GROUP             0       ****    0 ROOT    
