ZINC19636546_2756
                    3D
 Schrodinger Suite 2024-2.
 56 60  0  0  1  0            999 V2000
   -1.1717   50.8958   26.4047 C   0  0  0  0  0  0
    0.0881   51.6657   26.7043 C   0  0  0  0  0  0
    0.8107   51.9252   27.8428 C   0  0  0  0  0  0
    1.9084   52.7103   27.4496 C   0  0  0  0  0  0
    1.8563   52.8993   26.1440 N   0  0  0  0  0  0
    0.7137   52.2599   25.6634 O   0  0  0  0  0  0
    2.9475   53.1625   28.3792 C   0  0  0  0  0  0
    2.9202   52.7047   29.5303 O   0  0  0  0  0  0
    3.9160   54.0603   28.0017 N   0  0  0  0  0  0
    4.9789   54.3988   28.9666 C   0  0  0  0  0  0
    6.2634   53.6966   28.4762 C   0  0  0  0  0  0
    6.6644   54.1447   27.0640 C   0  0  0  0  0  0
    5.4561   53.9679   26.1100 C   0  0  1  0  0  0
    5.2772   52.8974   26.0054 H   0  0  0  0  0  0
    4.1753   54.6412   26.6654 C   0  0  0  0  0  0
    5.7622   54.5227   24.7056 C   0  0  0  0  0  0
    6.4840   55.5121   24.5735 O   0  0  0  0  0  0
    5.1612   53.8608   23.6959 N   0  0  0  0  0  0
    5.1928   54.0962   22.3139 C   0  0  0  0  0  0
    4.2132   53.4402   21.5639 C   0  0  0  0  0  0
    4.1353   53.6264   20.1850 C   0  0  0  0  0  0
    5.0311   54.4782   19.5448 C   0  0  0  0  0  0
    6.0316   55.1255   20.2767 C   0  0  0  0  0  0
    6.1257   54.9163   21.6580 C   0  0  0  0  0  0
    6.9829   56.0287   19.5810 C   0  0  0  0  0  0
    8.3624   56.0966   19.6427 C   0  0  0  0  0  0
    8.7949   57.1549   18.7780 C   0  0  0  0  0  0
   10.0439   57.6984   18.4340 C   0  0  0  0  0  0
   10.0923   58.7838   17.5591 C   0  0  0  0  0  0
    8.9253   59.3373   17.0367 C   0  0  0  0  0  0
    7.6643   58.8306   17.3521 C   0  0  0  0  0  0
    7.6184   57.7345   18.2192 C   0  0  0  0  0  0
    6.5562   57.0118   18.7175 N   0  0  0  0  0  0
    5.5787   57.1593   18.5109 H   0  0  0  0  0  0
   -1.6265   50.4975   27.3116 H   0  0  0  0  0  0
   -1.9191   51.5155   25.9112 H   0  0  0  0  0  0
   -0.9694   50.0439   25.7554 H   0  0  0  0  0  0
    0.5761   51.5787   28.8404 H   0  0  0  0  0  0
    5.1305   55.4737   28.9560 H   0  0  0  0  0  0
    4.7044   54.1956   30.0023 H   0  0  0  0  0  0
    7.0819   53.8990   29.1683 H   0  0  0  0  0  0
    6.1164   52.6154   28.4812 H   0  0  0  0  0  0
    6.9529   55.1927   27.1599 H   0  0  0  0  0  0
    7.5046   53.5223   26.7601 H   0  0  0  0  0  0
    3.3210   54.6834   25.9978 H   0  0  0  0  0  0
    4.3877   55.6967   26.8093 H   0  0  0  0  0  0
    4.5441   53.1130   23.9727 H   0  0  0  0  0  0
    3.4923   52.7920   22.0405 H   0  0  0  0  0  0
    3.3710   53.1212   19.6126 H   0  0  0  0  0  0
    4.9533   54.6193   18.4762 H   0  0  0  0  0  0
    6.9131   55.4135   22.2040 H   0  0  0  0  0  0
    8.9883   55.4537   20.2416 H   0  0  0  0  0  0
   10.9546   57.2960   18.8525 H   0  0  0  0  0  0
   11.0482   59.2068   17.2850 H   0  0  0  0  0  0
    8.9931   60.1825   16.3695 H   0  0  0  0  0  0
    6.7676   59.2828   16.9478 H   0  0  0  0  0  0
  1  2  1  0  0  0
  1 35  1  0  0  0
  1 36  1  0  0  0
  1 37  1  0  0  0
  2  6  1  0  0  0
  2  3  2  0  0  0
  3  4  1  0  0  0
  3 38  1  0  0  0
  4  5  2  0  0  0
  4  7  1  0  0  0
  5  6  1  0  0  0
  7  8  2  0  0  0
  7  9  1  0  0  0
  9 15  1  0  0  0
  9 10  1  0  0  0
 10 11  1  0  0  0
 10 39  1  0  0  0
 10 40  1  0  0  0
 11 12  1  0  0  0
 11 41  1  0  0  0
 11 42  1  0  0  0
 12 13  1  0  0  0
 12 43  1  0  0  0
 12 44  1  0  0  0
 13 14  1  0  0  0
 13 15  1  0  0  0
 13 16  1  0  0  0
 15 45  1  0  0  0
 15 46  1  0  0  0
 16 17  2  0  0  0
 16 18  1  0  0  0
 18 19  1  0  0  0
 18 47  1  0  0  0
 19 24  2  0  0  0
 19 20  1  0  0  0
 20 21  2  0  0  0
 20 48  1  0  0  0
 21 22  1  0  0  0
 21 49  1  0  0  0
 22 23  2  0  0  0
 22 50  1  0  0  0
 23 24  1  0  0  0
 23 25  1  0  0  0
 24 51  1  0  0  0
 25 33  1  0  0  0
 25 26  2  0  0  0
 26 27  1  0  0  0
 26 52  1  0  0  0
 27 32  2  0  0  0
 27 28  1  0  0  0
 28 29  2  0  0  0
 28 53  1  0  0  0
 29 30  1  0  0  0
 29 54  1  0  0  0
 30 31  2  0  0  0
 30 55  1  0  0  0
 31 32  1  0  0  0
 31 56  1  0  0  0
 32 33  1  0  0  0
 33 34  1  0  0  0
M  END
> <i_i_glide_confnum>
41

> <i_i_glide_lignum>
2757

> <i_i_glide_posenum>
282

> <i_i_glide_rotatable_bonds>
6

> <i_m_Source_File_Index>
4518

> <b_m_subgroup_collapsed>
0

> <r_i_docking_score>
-6.39587

> <r_i_glide_ecoul>
-5.2776

> <r_i_glide_eff_state_penalty>
0

> <r_i_glide_einternal>
4.78347

> <r_i_glide_emodel>
-68.5588

> <r_i_glide_energy>
-51.1846

> <r_i_glide_erotb>
0.649161

> <r_i_glide_esite>
0

> <r_i_glide_evdw>
-45.907

> <r_i_glide_gscore>
-6.39587

> <r_i_glide_hbond>
0

> <r_i_glide_ligand_efficiency>
-0.199871

> <r_i_glide_ligand_efficiency_ln>
-1.43221

> <r_i_glide_ligand_efficiency_sa>
-0.634551

> <r_i_glide_lipo>
-2.41243

> <r_i_glide_metal>
0

> <r_i_glide_rewards>
-1.54561

> <s_i_glide_gridfile>
wee1_glide-grid

> <s_m_Source_File>
wee1_decoys_glide_SP.sdf

> <s_m_Source_Path>
/Users/zhangxujun/Desktop

> <s_m_entry_id>
4793

> <s_m_entry_name>
wee1_decoys_glide_SP.4518

> <s_m_subgroup_title>
wee1_decoys_glide_SP

> <s_m_subgroupid>
wee1_decoys_glide_SP


$$$$
