@<TRIPOS>MOLECULE
ZINC45581458_6123
64   68    1
SMALL
USER_CHARGES


@<TRIPOS>ATOM
      1 C1          6.1334   53.4853   27.6159 C.3       1 UNK         0.0000 
      2 C2          6.4275   53.9790   26.1887 C.3       1 UNK         0.0000 
      3 C3          5.1827   54.1051   25.2703 C.3       1 UNK         0.0000 
      4 H4          4.6481   53.1606   25.3297 H         1 UNK         0.0000 
      5 C5          4.2129   55.1829   25.7611 C.3       1 UNK         0.0000 
      6 C6          5.5107   54.3530   23.7902 C.ar      1 UNK         0.0000 
      7 C7          4.5851   53.9600   22.8198 C.ar      1 UNK         0.0000 
      8 C8          4.8119   54.2327   21.4746 C.ar      1 UNK         0.0000 
      9 C9          5.9718   54.9086   21.0691 C.ar      1 UNK         0.0000 
     10 C10         6.8974   55.2963   22.0462 C.ar      1 UNK         0.0000 
     11 C11         6.6804   55.0084   23.3904 C.ar      1 UNK         0.0000 
     12 C12         6.2573   55.2460   19.5912 C.3       1 UNK         0.0000 
     13 H13         6.2044   56.3381   19.5432 H         1 UNK         0.0000 
     14 C14         5.2550   54.6776   18.5882 C.2       1 UNK         0.0000 
     15 C15         5.0056   53.3501   18.2341 C.2       1 UNK         0.0000 
     16 C16         4.0031   53.1825   17.2779 C.2       1 UNK         0.0000 
     17 C17         3.4532   54.3851   16.8747 C.2       1 UNK         0.0000 
     18 S18         4.1916   55.7258   17.6821 S.3       1 UNK         0.0000 
     19 N19         7.6404   54.8966   19.2376 N.am      1 UNK         0.0000 
     20 C20         8.2840   55.1334   18.0823 C.2       1 UNK         0.0000 
     21 O21         7.7633   55.6478   17.0947 O.2       1 UNK         0.0000 
     22 C22         9.7686   54.7325   18.0819 C.3       1 UNK         0.0000 
     23 N23        10.1720   54.0186   16.8492 N.am      1 UNK         0.0000 
     24 C24         9.7144   52.7933   16.4918 C.2       1 UNK         0.0000 
     25 O25         8.9314   52.0642   17.1035 O.2       1 UNK         0.0000 
     26 C26        10.3396   52.4942   15.1341 C.3       1 UNK         0.0000 
     27 C27         9.2697   52.0327   14.1196 C.3       1 UNK         0.0000 
     28 C28         9.4429   50.5199   13.9354 C.3       1 UNK         0.0000 
     29 C29        10.8087   50.2207   14.5140 C.ar      1 UNK         0.0000 
     30 C30        11.3122   51.3245   15.2107 C.ar      1 UNK         0.0000 
     31 C31        12.5550   51.2354   15.8489 C.ar      1 UNK         0.0000 
     32 C32        13.2791   50.0431   15.8045 C.ar      1 UNK         0.0000 
     33 C33        12.7657   48.9388   15.1246 C.ar      1 UNK         0.0000 
     34 C34        11.5257   49.0244   14.4864 C.ar      1 UNK         0.0000 
     35 N35        10.9370   53.7757   14.8644 N.am      1 UNK         0.0000 
     36 C36        10.9544   54.6066   15.9121 C.2       1 UNK         0.0000 
     37 O37        11.6834   55.5869   16.0408 O.2       1 UNK         0.0000 
     38 H38         7.0617   53.3124   28.1621 H         1 UNK         0.0000 
     39 H39         5.5748   52.5469   27.6068 H         1 UNK         0.0000 
     40 H40         5.5560   54.2149   28.1843 H         1 UNK         0.0000 
     41 H41         6.9561   54.9307   26.2523 H         1 UNK         0.0000 
     42 H42         7.1119   53.2732   25.7234 H         1 UNK         0.0000 
     43 H43         3.3105   55.2118   25.1514 H         1 UNK         0.0000 
     44 H44         3.9036   55.0294   26.7942 H         1 UNK         0.0000 
     45 H45         4.7050   56.1445   25.6819 H         1 UNK         0.0000 
     46 H46         3.6738   53.4554   23.1096 H         1 UNK         0.0000 
     47 H47         4.0611   53.9288   20.7603 H         1 UNK         0.0000 
     48 H48         7.7998   55.8250   21.7737 H         1 UNK         0.0000 
     49 H49         7.4136   55.3401   24.1073 H         1 UNK         0.0000 
     50 H50         5.5450   52.5161   18.6589 H         1 UNK         0.0000 
     51 H51         3.7022   52.2151   16.8992 H         1 UNK         0.0000 
     52 H52         2.6712   54.5472   16.1496 H         1 UNK         0.0000 
     53 H53         8.2235   54.6494   20.0208 H         1 UNK         0.0000 
     54 H54        10.3671   55.6362   18.2176 H         1 UNK         0.0000 
     55 H55         9.9818   54.0971   18.9377 H         1 UNK         0.0000 
     56 H56         8.2445   52.2927   14.3900 H         1 UNK         0.0000 
     57 H57         9.4490   52.5192   13.1590 H         1 UNK         0.0000 
     58 H58         9.3621   50.2417   12.8834 H         1 UNK         0.0000 
     59 H59         8.6700   49.9837   14.4857 H         1 UNK         0.0000 
     60 H60        12.9618   52.0813   16.3840 H         1 UNK         0.0000 
     61 H61        14.2397   49.9740   16.2956 H         1 UNK         0.0000 
     62 H62        13.3279   48.0161   15.0838 H         1 UNK         0.0000 
     63 H63        11.1482   48.1645   13.9559 H         1 UNK         0.0000 
     64 H64        11.1422   54.0767   13.9228 H         1 UNK         0.0000 
@<TRIPOS>BOND
     1    1    2 1    
     2    1   38 1    
     3    1   39 1    
     4    1   40 1    
     5    2    3 1    
     6    2   41 1    
     7    2   42 1    
     8    3    4 1    
     9    3    5 1    
    10    3    6 1    
    11    5   43 1    
    12    5   44 1    
    13    5   45 1    
    14    6   11 ar   
    15    6    7 ar   
    16    7    8 ar   
    17    7   46 1    
    18    8    9 ar   
    19    8   47 1    
    20    9   10 ar   
    21    9   12 1    
    22   10   11 ar   
    23   10   48 1    
    24   11   49 1    
    25   12   13 1    
    26   12   14 1    
    27   12   19 1    
    28   14   18 1    
    29   14   15 2    
    30   15   16 1    
    31   15   50 1    
    32   16   17 2    
    33   16   51 1    
    34   17   18 1    
    35   17   52 1    
    36   19   20 am   BACKBONE|DICT|INTERRES
    37   19   53 1    
    38   20   21 2    
    39   20   22 1    
    40   22   23 1    
    41   22   54 1    
    42   22   55 1    
    43   23   36 am   BACKBONE|DICT|INTERRES
    44   23   24 am   BACKBONE|DICT|INTERRES
    45   24   25 2    
    46   24   26 1    
    47   26   30 1    
    48   26   27 1    
    49   26   35 1    
    50   27   28 1    
    51   27   56 1    
    52   27   57 1    
    53   28   29 1    
    54   28   58 1    
    55   28   59 1    
    56   29   34 ar   
    57   29   30 ar   
    58   30   31 ar   
    59   31   32 ar   
    60   31   60 1    
    61   32   33 ar   
    62   32   61 1    
    63   33   34 ar   
    64   33   62 1    
    65   34   63 1    
    66   35   36 am   BACKBONE|DICT|INTERRES
    67   35   64 1    
    68   36   37 2    
@<TRIPOS>SUBSTRUCTURE
     1 UNK         1 GROUP             0       ****    0 ROOT    
