@<TRIPOS>MOLECULE
ZINC64794618_4360
50   54    1
SMALL
USER_CHARGES


@<TRIPOS>ATOM
      1 C1          6.2491   54.4954   23.1722 C.ar      1 UNK         0.0000 
      2 C2          5.0629   53.8870   22.7568 C.ar      1 UNK         0.0000 
      3 C3          4.0049   53.7621   23.6834 C.ar      1 UNK         0.0000 
      4 C4          2.7020   53.1806   23.5744 C.2       1 UNK         0.0000 
      5 C5          1.9503   53.2267   24.7520 C.2       1 UNK         0.0000 
      6 S6          2.8296   54.0864   26.0115 S.3       1 UNK         0.0000 
      7 C7          4.2293   54.2861   24.9854 C.ar      1 UNK         0.0000 
      8 N8          5.3541   54.8762   25.3993 N.ar      1 UNK         0.0000 
      9 C9          6.3472   54.9647   24.4797 C.ar      1 UNK         0.0000 
     10 C10         0.5325   52.7859   24.8975 C.ar      1 UNK         0.0000 
     11 N11        -0.3380   53.2016   24.0091 N.2       1 UNK         0.0000 
     12 N12        -1.5295   52.5319   24.2051 N.2       1 UNK         0.0000 
     13 C13        -1.3638   51.7537   25.2383 C.ar      1 UNK         0.0000 
     14 N14        -0.0953   51.9004   25.7831 N.pl3     1 UNK         0.0000 
     15 C15         0.4014   51.1625   26.9641 C.3       1 UNK         0.0000 
     16 C16         0.9221   52.0660   28.1062 C.3       1 UNK         0.0000 
     17 H17         1.8041   52.5826   27.7648 H         1 UNK         0.0000 
     18 C18        -0.1044   53.0192   28.7103 C.3       1 UNK         0.0000 
     19 C19         0.4025   53.3136   30.1033 C.3       1 UNK         0.0000 
     20 C20         1.4182   52.2012   30.3634 C.3       1 UNK         0.0000 
     21 O21         1.3178   51.3098   29.2463 O.3       1 UNK         0.0000 
     22 S22        -2.6120   50.6216   25.7610 S.3       1 UNK         0.0000 
     23 C23        -3.3629   51.6553   27.0494 C.3       1 UNK         0.0000 
     24 C24        -4.7212   52.1912   26.6188 C.ar      1 UNK         0.0000 
     25 C25        -4.7964   53.1853   25.6358 C.ar      1 UNK         0.0000 
     26 C26        -6.0339   53.6971   25.2475 C.ar      1 UNK         0.0000 
     27 C27        -7.2024   53.2293   25.8441 C.ar      1 UNK         0.0000 
     28 C28        -7.1350   52.2439   26.8265 C.ar      1 UNK         0.0000 
     29 C29        -5.9004   51.7231   27.2131 C.ar      1 UNK         0.0000 
     30 F30        -5.8569   50.7744   28.1758 F         1 UNK         0.0000 
     31 F31        -8.3997   53.7336   25.4729 F         1 UNK         0.0000 
     32 N32         2.2393   52.6142   22.4140 N.pl3     1 UNK         0.0000 
     33 H33         7.0827   54.6066   22.4928 H         1 UNK         0.0000 
     34 H34         4.9622   53.5145   21.7482 H         1 UNK         0.0000 
     35 H35         7.2572   55.4411   24.8113 H         1 UNK         0.0000 
     36 H36        -0.4196   50.5758   27.3779 H         1 UNK         0.0000 
     37 H37         1.1060   50.4067   26.6388 H         1 UNK         0.0000 
     38 H38        -0.2917   53.8933   28.0867 H         1 UNK         0.0000 
     39 H39        -1.0591   52.4977   28.7708 H         1 UNK         0.0000 
     40 H40         0.8752   54.2949   30.1573 H         1 UNK         0.0000 
     41 H41        -0.4111   53.2909   30.8309 H         1 UNK         0.0000 
     42 H42         2.4367   52.5900   30.4149 H         1 UNK         0.0000 
     43 H43         1.2330   51.6969   31.3108 H         1 UNK         0.0000 
     44 H44        -3.4346   51.0600   27.9614 H         1 UNK         0.0000 
     45 H45        -2.7136   52.4948   27.2814 H         1 UNK         0.0000 
     46 H46        -3.8977   53.5588   25.1668 H         1 UNK         0.0000 
     47 H47        -6.0910   54.4497   24.4759 H         1 UNK         0.0000 
     48 H48        -8.0403   51.8807   27.2879 H         1 UNK         0.0000 
     49 H49         1.3066   52.2269   22.3639 H         1 UNK         0.0000 
     50 H50         2.7623   52.6341   21.5496 H         1 UNK         0.0000 
@<TRIPOS>BOND
     1    1    9 ar   
     2    1    2 ar   
     3    1   33 1    
     4    2    3 ar   
     5    2   34 1    
     6    3    7 ar   
     7    3    4 1    
     8    4    5 2    
     9    4   32 1    
    10    5    6 1    
    11    5   10 1    
    12    6    7 1    
    13    7    8 ar   
    14    8    9 ar   
    15    9   35 1    
    16   10   14 ar   
    17   10   11 ar   
    18   11   12 ar   
    19   12   13 ar   
    20   13   14 ar   
    21   13   22 1    
    22   14   15 1    
    23   15   16 1    
    24   15   36 1    
    25   15   37 1    
    26   16   17 1    
    27   16   21 1    
    28   16   18 1    
    29   18   19 1    
    30   18   38 1    
    31   18   39 1    
    32   19   20 1    
    33   19   40 1    
    34   19   41 1    
    35   20   21 1    
    36   20   42 1    
    37   20   43 1    
    38   22   23 1    
    39   23   24 1    
    40   23   44 1    
    41   23   45 1    
    42   24   29 ar   
    43   24   25 ar   
    44   25   26 ar   
    45   25   46 1    
    46   26   27 ar   
    47   26   47 1    
    48   27   28 ar   
    49   27   31 1    
    50   28   29 ar   
    51   28   48 1    
    52   29   30 1    
    53   32   49 1    
    54   32   50 1    
@<TRIPOS>SUBSTRUCTURE
     1 UNK         1 GROUP             0       ****    0 ROOT    
