ZINC46901025_4347
                    3D
 Schrodinger Suite 2024-2.
 57 61  0  0  1  0            999 V2000
    6.5855   54.0971   27.7625 C   0  0  0  0  0  0
    5.2561   53.9977   27.0482 C   0  0  0  0  0  0
    4.9473   54.2203   25.6951 C   0  0  0  0  0  0
    3.5743   53.9730   25.5762 C   0  0  0  0  0  0
    3.1765   53.5650   26.8416 N   0  0  0  0  0  0
    4.1974   53.6069   27.7152 N   0  0  0  0  0  0
    1.9109   53.0963   27.2979 C   0  0  0  0  0  0
    1.4860   53.3609   28.6119 C   0  0  0  0  0  0
    0.2863   52.8333   29.0828 C   0  0  0  0  0  0
   -0.4953   52.0401   28.2438 C   0  0  0  0  0  0
   -0.0927   51.7799   26.9385 C   0  0  0  0  0  0
    1.1044   52.3102   26.4641 C   0  0  0  0  0  0
   -2.1280   51.2967   28.8803 Br  0  0  0  0  0  0
    2.6374   54.0988   24.3843 C   0  0  0  0  0  0
    5.8405   54.7339   24.6844 C   0  0  0  0  0  0
    6.7044   55.5707   24.9654 O   0  0  0  0  0  0
    5.6792   54.1549   23.4771 N   0  0  0  0  0  0
    6.3058   54.7328   22.3759 N   0  0  0  0  0  0
    5.6021   54.7981   21.2181 C   0  0  0  0  0  0
    4.4052   54.4968   21.1503 O   0  0  0  0  0  0
    6.3487   55.2392   19.9140 C   0  0  0  0  0  0
    6.2906   54.0659   18.8815 C   0  0  0  0  0  0
    7.0284   54.4638   17.5754 C   0  0  2  0  0  0
    8.5001   54.8428   17.8936 C   0  0  0  0  0  0
    8.5372   56.0510   18.8644 C   0  0  2  0  0  0
    7.8341   55.6608   20.1852 C   0  0  0  0  0  0
    7.7988   57.2582   18.2294 C   0  0  0  0  0  0
    6.3264   56.8726   17.9386 C   0  0  1  0  0  0
    6.3061   55.6826   16.9442 C   0  0  0  0  0  0
    5.6235   56.4547   19.2611 C   0  0  0  0  0  0
    7.0246   55.0876   27.6459 H   0  0  0  0  0  0
    6.5092   53.9131   28.8339 H   0  0  0  0  0  0
    7.3016   53.3771   27.3669 H   0  0  0  0  0  0
    2.0881   53.9638   29.2763 H   0  0  0  0  0  0
   -0.0346   53.0214   30.0971 H   0  0  0  0  0  0
   -0.6981   51.1512   26.3029 H   0  0  0  0  0  0
    1.4093   52.0607   25.4608 H   0  0  0  0  0  0
    2.9813   54.8562   23.6790 H   0  0  0  0  0  0
    2.5603   53.1639   23.8291 H   0  0  0  0  0  0
    1.6301   54.4002   24.6703 H   0  0  0  0  0  0
    4.8507   53.6407   23.2182 H   0  0  0  0  0  0
    7.3042   54.5942   22.3772 H   0  0  0  0  0  0
    6.7045   53.1452   19.2815 H   0  0  0  0  0  0
    5.2550   53.8161   18.6412 H   0  0  0  0  0  0
    7.0073   53.6245   16.8778 H   0  0  0  0  0  0
    9.0339   55.0831   16.9724 H   0  0  0  0  0  0
    9.0238   53.9891   18.3293 H   0  0  0  0  0  0
    9.5733   56.3253   19.0688 H   0  0  0  0  0  0
    7.8730   56.4962   20.8842 H   0  0  0  0  0  0
    8.4020   54.8646   20.6615 H   0  0  0  0  0  0
    7.8391   58.1271   18.8862 H   0  0  0  0  0  0
    8.2968   57.5594   17.3078 H   0  0  0  0  0  0
    5.8038   57.7243   17.5017 H   0  0  0  0  0  0
    6.7858   55.9622   16.0045 H   0  0  0  0  0  0
    5.2775   55.4224   16.6871 H   0  0  0  0  0  0
    4.5865   56.2034   19.0321 H   0  0  0  0  0  0
    5.5970   57.2961   19.9502 H   0  0  0  0  0  0
  1  2  1  0  0  0
  1 31  1  0  0  0
  1 32  1  0  0  0
  1 33  1  0  0  0
  2  6  2  0  0  0
  2  3  1  0  0  0
  3  4  2  0  0  0
  3 15  1  0  0  0
  4  5  1  0  0  0
  4 14  1  0  0  0
  5  6  1  0  0  0
  5  7  1  0  0  0
  7 12  2  0  0  0
  7  8  1  0  0  0
  8  9  2  0  0  0
  8 34  1  0  0  0
  9 10  1  0  0  0
  9 35  1  0  0  0
 10 11  2  0  0  0
 10 13  1  0  0  0
 11 12  1  0  0  0
 11 36  1  0  0  0
 12 37  1  0  0  0
 14 38  1  0  0  0
 14 39  1  0  0  0
 14 40  1  0  0  0
 15 16  2  0  0  0
 15 17  1  0  0  0
 17 18  1  0  0  0
 17 41  1  0  0  0
 18 19  1  0  0  0
 18 42  1  0  0  0
 19 20  2  0  0  0
 19 21  1  0  0  0
 21 26  1  0  0  0
 21 30  1  0  0  0
 21 22  1  0  0  0
 22 23  1  0  0  0
 22 43  1  0  0  0
 22 44  1  0  0  0
 23 29  1  0  0  0
 23 24  1  0  0  0
 23 45  1  0  0  0
 24 25  1  0  0  0
 24 46  1  0  0  0
 24 47  1  0  0  0
 25 26  1  0  0  0
 25 27  1  0  0  0
 25 48  1  0  0  0
 26 49  1  0  0  0
 26 50  1  0  0  0
 27 28  1  0  0  0
 27 51  1  0  0  0
 27 52  1  0  0  0
 28 29  1  0  0  0
 28 30  1  0  0  0
 28 53  1  0  0  0
 29 54  1  0  0  0
 29 55  1  0  0  0
 30 56  1  0  0  0
 30 57  1  0  0  0
M  END
> <i_i_glide_confnum>
47

> <i_i_glide_lignum>
4348

> <i_i_glide_posenum>
218

> <i_i_glide_rotatable_bonds>
6

> <i_m_Source_File_Index>
886

> <b_m_subgroup_collapsed>
0

> <r_i_docking_score>
-5.76383

> <r_i_glide_ecoul>
-0.10626

> <r_i_glide_eff_state_penalty>
0

> <r_i_glide_einternal>
9.89036

> <r_i_glide_emodel>
-60.9846

> <r_i_glide_energy>
-49.1956

> <r_i_glide_erotb>
0.454803

> <r_i_glide_esite>
0

> <r_i_glide_evdw>
-49.0894

> <r_i_glide_gscore>
-5.76383

> <r_i_glide_hbond>
-0.130242

> <r_i_glide_ligand_efficiency>
-0.192128

> <r_i_glide_ligand_efficiency_ln>
-1.30961

> <r_i_glide_ligand_efficiency_sa>
-0.596985

> <r_i_glide_lipo>
-2.47096

> <r_i_glide_metal>
0

> <r_i_glide_rewards>
-1.14703

> <s_i_glide_gridfile>
wee1_glide-grid

> <s_m_Source_File>
wee1_decoys_glide_SP.sdf

> <s_m_Source_Path>
/Users/zhangxujun/Desktop

> <s_m_entry_id>
1161

> <s_m_entry_name>
wee1_decoys_glide_SP.886

> <s_m_subgroup_title>
wee1_decoys_glide_SP

> <s_m_subgroupid>
wee1_decoys_glide_SP


$$$$
