ZINC03960083_3452
                    3D
 Schrodinger Suite 2024-2.
 54 58  0  0  1  0            999 V2000
    6.5454   54.7860   26.7090 C   0  0  0  0  0  0
    5.3053   54.5724   27.2921 C   0  0  0  0  0  0
    4.1997   54.2551   26.5096 C   0  0  0  0  0  0
    4.3248   54.0967   25.0944 C   0  0  0  0  0  0
    5.6132   54.2978   24.5096 C   0  0  0  0  0  0
    6.7044   54.6668   25.3324 C   0  0  0  0  0  0
    5.7884   54.0967   23.1237 C   0  0  0  0  0  0
    4.7387   53.6539   22.3298 C   0  0  0  0  0  0
    3.4600   53.4228   22.8817 C   0  0  0  0  0  0
    3.2345   53.6967   24.2654 C   0  0  0  0  0  0
    1.9142   53.5279   24.7671 C   0  0  0  0  0  0
    0.8970   53.0546   23.9496 C   0  0  0  0  0  0
    1.1330   52.6810   22.6251 C   0  0  0  0  0  0
    2.4062   52.8967   22.0907 C   0  0  0  0  0  0
    0.0534   52.1191   21.7377 C   0  0  0  0  0  0
   -0.0205   52.0967   20.3498 C   0  0  0  0  0  0
   -1.2753   51.5885   19.9992 C   0  0  0  0  0  0
   -1.9436   51.2557   21.0787 N   0  0  0  0  0  0
   -1.1505   51.5493   22.1225 N   0  0  0  0  0  0
   -1.6313   51.2723   23.4151 C   0  0  0  0  0  0
   -0.9306   50.3922   24.2432 C   0  0  0  0  0  0
   -1.3809   50.1651   25.5402 C   0  0  0  0  0  0
   -2.5271   50.8108   26.0127 C   0  0  0  0  0  0
   -3.2310   51.6874   25.1720 C   0  0  0  0  0  0
   -2.7846   51.9134   23.8745 C   0  0  0  0  0  0
   -2.8956   50.4967   27.3322 N   0  0  0  0  0  0
   -3.9746   50.8812   28.0511 C   0  0  0  0  0  0
   -4.8162   51.6967   27.6817 O   0  0  0  0  0  0
   -4.1575   50.2385   29.4328 C   0  0  0  0  0  0
   -1.9070   51.4402   18.6266 C   0  0  0  0  0  0
   -1.0042   51.5827   17.6564 F   0  0  0  0  0  0
   -2.4769   50.2442   18.4744 F   0  0  0  0  0  0
   -2.8481   52.3676   18.4421 F   0  0  0  0  0  0
    7.3866   55.0370   27.3386 H   0  0  0  0  0  0
    5.1993   54.6669   28.3632 H   0  0  0  0  0  0
    3.2608   54.0953   27.0128 H   0  0  0  0  0  0
    7.6732   54.8207   24.8817 H   0  0  0  0  0  0
    6.7640   54.2535   22.6854 H   0  0  0  0  0  0
    4.9039   53.4650   21.2782 H   0  0  0  0  0  0
    1.6667   53.7641   25.7885 H   0  0  0  0  0  0
   -0.0855   52.9831   24.3851 H   0  0  0  0  0  0
    2.6092   52.6639   21.0552 H   0  0  0  0  0  0
    0.7271   52.4680   19.6623 H   0  0  0  0  0  0
   -0.0351   49.8969   23.8931 H   0  0  0  0  0  0
   -0.8321   49.4808   26.1746 H   0  0  0  0  0  0
   -4.1202   52.2057   25.4920 H   0  0  0  0  0  0
   -3.3246   52.6007   23.2399 H   0  0  0  0  0  0
   -2.2706   49.8231   27.7718 H   0  0  0  0  0  0
   -5.1305   50.4611   29.8738 H   0  0  0  0  0  0
   -3.3565   50.4996   30.1282 H   0  0  0  0  0  0
   -4.2618   48.2950   30.1636 H   0  0  0  0  0  0
   -3.1428   48.4886   29.0157 H   0  0  0  0  0  0
   -4.0956   48.7580   29.2817 N   0  3  0  0  0  0
   -4.7455   48.3984   28.5981 H   0  0  0  0  0  0
  1  6  2  0  0  0
  1  2  1  0  0  0
  1 34  1  0  0  0
  2  3  2  0  0  0
  2 35  1  0  0  0
  3  4  1  0  0  0
  3 36  1  0  0  0
  4 10  2  0  0  0
  4  5  1  0  0  0
  5  6  1  0  0  0
  5  7  2  0  0  0
  6 37  1  0  0  0
  7  8  1  0  0  0
  7 38  1  0  0  0
  8  9  2  0  0  0
  8 39  1  0  0  0
  9 14  1  0  0  0
  9 10  1  0  0  0
 10 11  1  0  0  0
 11 12  2  0  0  0
 11 40  1  0  0  0
 12 13  1  0  0  0
 12 41  1  0  0  0
 13 14  2  0  0  0
 13 15  1  0  0  0
 14 42  1  0  0  0
 15 19  1  0  0  0
 15 16  2  0  0  0
 16 17  1  0  0  0
 16 43  1  0  0  0
 17 18  2  0  0  0
 17 30  1  0  0  0
 18 19  1  0  0  0
 19 20  1  0  0  0
 20 25  2  0  0  0
 20 21  1  0  0  0
 21 22  2  0  0  0
 21 44  1  0  0  0
 22 23  1  0  0  0
 22 45  1  0  0  0
 23 24  2  0  0  0
 23 26  1  0  0  0
 24 25  1  0  0  0
 24 46  1  0  0  0
 25 47  1  0  0  0
 26 27  1  0  0  0
 26 48  1  0  0  0
 27 28  2  0  0  0
 27 29  1  0  0  0
 29 49  1  0  0  0
 29 50  1  0  0  0
 29 53  1  0  0  0
 30 31  1  0  0  0
 30 32  1  0  0  0
 30 33  1  0  0  0
 51 53  1  0  0  0
 52 53  1  0  0  0
 53 54  1  0  0  0
M  CHG  1  53   1
M  END
> <i_i_glide_confnum>
36

> <i_i_glide_lignum>
3453

> <i_i_glide_posenum>
374

> <i_i_glide_rotatable_bonds>
6

> <i_m_Source_File_Index>
5407

> <b_m_subgroup_collapsed>
0

> <r_i_docking_score>
-7.27596

> <r_i_glide_ecoul>
-10.4898

> <r_i_glide_eff_state_penalty>
0

> <r_i_glide_einternal>
6.18665

> <r_i_glide_emodel>
-72.3141

> <r_i_glide_energy>
-48.1883

> <r_i_glide_erotb>
0.378247

> <r_i_glide_esite>
-0.302423

> <r_i_glide_evdw>
-37.6985

> <r_i_glide_gscore>
-7.27596

> <r_i_glide_hbond>
-0.412655

> <r_i_glide_ligand_efficiency>
-0.213999

> <r_i_glide_ligand_efficiency_ln>
-1.60746

> <r_i_glide_ligand_efficiency_sa>
-0.693273

> <r_i_glide_lipo>
-3.11017

> <r_i_glide_metal>
0

> <r_i_glide_rewards>
-0.370565

> <s_i_glide_gridfile>
wee1_glide-grid

> <s_m_Source_File>
wee1_decoys_glide_SP.sdf

> <s_m_Source_Path>
/Users/zhangxujun/Desktop

> <s_m_entry_id>
5682

> <s_m_entry_name>
wee1_decoys_glide_SP.5407

> <s_m_subgroup_title>
wee1_decoys_glide_SP

> <s_m_subgroupid>
wee1_decoys_glide_SP


$$$$
