ZINC53106302_1606
                    3D
 Schrodinger Suite 2024-2.
 48 49  0  0  1  0            999 V2000
    4.6109   52.4160   29.1172 C   0  0  0  0  0  0
    3.2355   52.7378   28.5277 C   0  0  2  0  0  0
    3.1044   52.1881   27.5960 H   0  0  0  0  0  0
    3.0984   54.2484   28.2278 C   0  0  0  0  0  0
    1.6766   54.6136   27.7512 C   0  0  0  0  0  0
    0.6076   54.0840   28.7341 C   0  0  0  0  0  0
    0.6917   52.5399   28.9376 C   0  0  1  0  0  0
    2.1194   52.3415   29.5219 C   0  0  0  0  0  0
   -0.3918   52.0692   29.9589 C   0  0  0  0  0  0
   -0.0956   52.4967   31.2817 O   0  0  0  0  0  0
    0.5415   51.7470   27.6983 N   0  0  0  0  0  0
   -0.4777   51.7607   26.8173 C   0  0  0  0  0  0
   -1.4530   52.4967   26.9483 O   0  0  0  0  0  0
   -0.3450   50.8250   25.5860 C   0  0  2  0  0  0
    0.6559   50.3930   25.6325 H   0  0  0  0  0  0
   -0.4779   51.6773   24.2879 C   0  0  0  0  0  0
   -1.9248   52.0656   23.8992 C   0  0  0  0  0  0
   -2.8958   50.8653   23.9713 C   0  0  0  0  0  0
   -2.7786   50.2791   25.3203 N   0  0  0  0  0  0
   -1.4405   49.7133   25.6116 C   0  0  0  0  0  0
   -3.7995   50.3889   26.2163 C   0  0  0  0  0  0
   -4.8049   51.0697   26.0220 O   0  0  0  0  0  0
   -3.6956   49.6967   27.3527 N   0  0  0  0  0  0
    4.7044   52.9093   30.0817 H   0  0  0  0  0  0
    4.7339   51.3463   29.2817 H   0  0  0  0  0  0
    5.4227   52.7512   28.4703 H   0  0  0  0  0  0
    3.3107   54.8158   29.1361 H   0  0  0  0  0  0
    3.8586   54.5723   27.5154 H   0  0  0  0  0  0
    1.5918   55.6966   27.6817 H   0  0  0  0  0  0
    1.5044   54.2101   26.7524 H   0  0  0  0  0  0
   -0.3783   54.3531   28.3590 H   0  0  0  0  0  0
    0.7047   54.6023   29.6901 H   0  0  0  0  0  0
    2.2571   52.8784   30.4623 H   0  0  0  0  0  0
    2.2523   51.2967   29.7837 H   0  0  0  0  0  0
   -1.3711   52.4358   29.6658 H   0  0  0  0  0  0
   -0.4956   50.9836   29.9633 H   0  0  0  0  0  0
   -0.7340   52.0998   31.9176 H   0  0  0  0  0  0
    1.3037   51.1173   27.5051 H   0  0  0  0  0  0
   -0.0079   51.1116   23.4820 H   0  0  0  0  0  0
    0.1961   52.5362   24.3134 H   0  0  0  0  0  0
   -1.9342   52.4796   22.8907 H   0  0  0  0  0  0
   -2.2914   52.8682   24.5407 H   0  0  0  0  0  0
   -2.5870   50.0958   23.2627 H   0  0  0  0  0  0
   -3.9241   51.1067   23.6961 H   0  0  0  0  0  0
   -1.4065   49.0627   26.4816 H   0  0  0  0  0  0
   -1.2263   49.0113   24.8049 H   0  0  0  0  0  0
   -2.8378   49.2005   27.6094 H   0  0  0  0  0  0
   -4.4432   49.7514   28.0236 H   0  0  0  0  0  0
  1  2  1  0  0  0
  1 24  1  0  0  0
  1 25  1  0  0  0
  1 26  1  0  0  0
  2  3  1  0  0  0
  2  8  1  0  0  0
  2  4  1  0  0  0
  4  5  1  0  0  0
  4 27  1  0  0  0
  4 28  1  0  0  0
  5  6  1  0  0  0
  5 29  1  0  0  0
  5 30  1  0  0  0
  6  7  1  0  0  0
  6 31  1  0  0  0
  6 32  1  0  0  0
  7  8  1  0  0  0
  7  9  1  0  0  0
  7 11  1  0  0  0
  8 33  1  0  0  0
  8 34  1  0  0  0
  9 10  1  0  0  0
  9 35  1  0  0  0
  9 36  1  0  0  0
 10 37  1  0  0  0
 11 12  1  0  0  0
 11 38  1  0  0  0
 12 13  2  0  0  0
 12 14  1  0  0  0
 14 15  1  0  0  0
 14 20  1  0  0  0
 14 16  1  0  0  0
 16 17  1  0  0  0
 16 39  1  0  0  0
 16 40  1  0  0  0
 17 18  1  0  0  0
 17 41  1  0  0  0
 17 42  1  0  0  0
 18 19  1  0  0  0
 18 43  1  0  0  0
 18 44  1  0  0  0
 19 20  1  0  0  0
 19 21  1  0  0  0
 20 45  1  0  0  0
 20 46  1  0  0  0
 21 22  2  0  0  0
 21 23  1  0  0  0
 23 47  1  0  0  0
 23 48  1  0  0  0
M  END
> <i_i_glide_confnum>
29

> <i_i_glide_lignum>
1607

> <i_i_glide_posenum>
244

> <i_i_glide_rotatable_bonds>
6

> <i_m_Source_File_Index>
1869

> <b_m_subgroup_collapsed>
0

> <r_i_docking_score>
-4.75577

> <r_i_glide_ecoul>
-10.1801

> <r_i_glide_eff_state_penalty>
0

> <r_i_glide_einternal>
3.52083

> <r_i_glide_emodel>
-37.3628

> <r_i_glide_energy>
-29.171

> <r_i_glide_erotb>
0.829229

> <r_i_glide_esite>
-0.191258

> <r_i_glide_evdw>
-18.9909

> <r_i_glide_gscore>
-4.75577

> <r_i_glide_hbond>
-0.304

> <r_i_glide_ligand_efficiency>
-0.226465

> <r_i_glide_ligand_efficiency_ln>
-1.17585

> <r_i_glide_ligand_efficiency_sa>
-0.6248

> <r_i_glide_lipo>
-1.23176

> <r_i_glide_metal>
0

> <r_i_glide_rewards>
-1.38141

> <s_i_glide_gridfile>
wee1_glide-grid

> <s_m_Source_File>
wee1_decoys_glide_SP.sdf

> <s_m_Source_Path>
/Users/zhangxujun/Desktop

> <s_m_entry_id>
2144

> <s_m_entry_name>
wee1_decoys_glide_SP.1869

> <s_m_subgroup_title>
wee1_decoys_glide_SP

> <s_m_subgroupid>
wee1_decoys_glide_SP


$$$$
