@<TRIPOS>MOLECULE
ZINC35057802_538
56   59    1
SMALL
USER_CHARGES


@<TRIPOS>ATOM
      1 C1         -4.0788   50.4219   28.5258 C.3       1 UNK         0.0000 
      2 C2         -3.3870   51.1023   27.3515 C.2       1 UNK         0.0000 
      3 O3         -3.8374   52.1463   26.8810 O.2       1 UNK         0.0000 
      4 N4         -2.2905   50.4963   26.8808 N.am      1 UNK         0.0000 
      5 C5         -1.4046   51.0058   25.8332 C.3       1 UNK         0.0000 
      6 H6         -2.0566   51.3457   25.0258 H         1 UNK         0.0000 
      7 C7         -0.4419   49.9584   25.2006 C.3       1 UNK         0.0000 
      8 H8          0.2762   49.6609   25.9647 H         1 UNK         0.0000 
      9 C9          0.3747   50.6027   24.0518 C.3       1 UNK         0.0000 
     10 H10         1.1190   49.8767   23.7164 H         1 UNK         0.0000 
     11 C11         1.0754   51.9112   24.5205 C.3       1 UNK         0.0000 
     12 H12         1.9039   51.6971   25.1878 H         1 UNK         0.0000 
     13 C13         1.6356   52.6676   23.3002 C.3       1 UNK         0.0000 
     14 O14         0.7076   52.7219   22.2142 O.3       1 UNK         0.0000 
     15 C15         0.1990   51.4582   21.8834 C.3       1 UNK         0.0000 
     16 H16         0.9968   50.7704   21.5845 H         1 UNK         0.0000 
     17 O17        -0.5058   50.9308   22.9745 O.3       1 UNK         0.0000 
     18 C18        -0.7339   51.6118   20.6657 C.ar      1 UNK         0.0000 
     19 C19        -2.0923   51.2737   20.7242 C.ar      1 UNK         0.0000 
     20 C20        -2.8982   51.4208   19.5981 C.ar      1 UNK         0.0000 
     21 C21        -2.3508   51.9124   18.4160 C.ar      1 UNK         0.0000 
     22 C22        -1.0010   52.2503   18.3477 C.ar      1 UNK         0.0000 
     23 C23        -0.1949   52.0962   19.4707 C.ar      1 UNK         0.0000 
     24 O24         0.1463   52.7738   25.1834 O.3       1 UNK         0.0000 
     25 C25        -0.5599   52.2184   26.3008 C.3       1 UNK         0.0000 
     26 H26        -1.2318   52.9854   26.6843 H         1 UNK         0.0000 
     27 S27         0.5389   51.7807   27.7049 S.3       1 UNK         0.0000 
     28 C28         1.2185   53.2743   28.3191 C.ar      1 UNK         0.0000 
     29 C29         2.4345   53.7239   27.8125 C.ar      1 UNK         0.0000 
     30 C30         2.9851   54.8973   28.3128 C.ar      1 UNK         0.0000 
     31 C31         2.3070   55.6172   29.2980 C.ar      1 UNK         0.0000 
     32 C32         1.1047   55.1495   29.8219 C.ar      1 UNK         0.0000 
     33 C33         0.5568   53.9686   29.3299 C.ar      1 UNK         0.0000 
     34 O34        -0.9749   48.6595   24.9055 O.3       1 UNK         0.0000 
     35 C35        -2.1119   48.5495   24.0438 C.3       1 UNK         0.0000 
     36 C36        -2.5246   47.0653   23.9160 C.2       1 UNK         0.0000 
     37 O37        -1.8574   46.1672   24.4819 O.co2     1 UNK         0.0000 
     38 O38        -3.5341   46.8324   23.2123 O.co2     1 UNK         0.0000 
     39 H39        -3.6371   50.7579   29.4660 H         1 UNK         0.0000 
     40 H40        -5.1456   50.6537   28.5337 H         1 UNK         0.0000 
     41 H41        -3.9599   49.3370   28.4692 H         1 UNK         0.0000 
     42 H42        -1.9650   49.6625   27.3816 H         1 UNK         0.0000 
     43 H43         1.9342   53.6791   23.5773 H         1 UNK         0.0000 
     44 H44         2.5405   52.1820   22.9288 H         1 UNK         0.0000 
     45 H45        -2.5259   50.8903   21.6360 H         1 UNK         0.0000 
     46 H46        -3.9433   51.1515   19.6441 H         1 UNK         0.0000 
     47 H47        -2.9758   52.0253   17.5419 H         1 UNK         0.0000 
     48 H48        -0.5782   52.6249   17.4270 H         1 UNK         0.0000 
     49 H49         0.8508   52.3627   19.4168 H         1 UNK         0.0000 
     50 H50         2.9469   53.1652   27.0428 H         1 UNK         0.0000 
     51 H51         3.9280   55.2602   27.9308 H         1 UNK         0.0000 
     52 H52         2.7265   56.5397   29.6757 H         1 UNK         0.0000 
     53 H53         0.5987   55.7042   30.5992 H         1 UNK         0.0000 
     54 H54        -0.3759   53.5945   29.7289 H         1 UNK         0.0000 
     55 H55        -2.9497   49.1180   24.4501 H         1 UNK         0.0000 
     56 H56        -1.8696   48.9182   23.0490 H         1 UNK         0.0000 
@<TRIPOS>BOND
     1    1    2 1    
     2    1   39 1    
     3    1   40 1    
     4    1   41 1    
     5    2    3 2    
     6    2    4 am   BACKBONE|DICT|INTERRES
     7    4    5 1    
     8    4   42 1    
     9    5    6 1    
    10    5   25 1    
    11    5    7 1    
    12    7    8 1    
    13    7    9 1    
    14    7   34 1    
    15    9   10 1    
    16    9   17 1    
    17    9   11 1    
    18   11   12 1    
    19   11   13 1    
    20   11   24 1    
    21   13   14 1    
    22   13   43 1    
    23   13   44 1    
    24   14   15 1    
    25   15   16 1    
    26   15   17 1    
    27   15   18 1    
    28   18   23 ar   
    29   18   19 ar   
    30   19   20 ar   
    31   19   45 1    
    32   20   21 ar   
    33   20   46 1    
    34   21   22 ar   
    35   21   47 1    
    36   22   23 ar   
    37   22   48 1    
    38   23   49 1    
    39   24   25 1    
    40   25   26 1    
    41   25   27 1    
    42   27   28 1    
    43   28   33 ar   
    44   28   29 ar   
    45   29   30 ar   
    46   29   50 1    
    47   30   31 ar   
    48   30   51 1    
    49   31   32 ar   
    50   31   52 1    
    51   32   33 ar   
    52   32   53 1    
    53   33   54 1    
    54   34   35 1    
    55   35   36 1    
    56   35   55 1    
    57   35   56 1    
    58   36   37 2    
    59   36   38 1    
@<TRIPOS>SUBSTRUCTURE
     1 UNK         1 GROUP             0       ****    0 ROOT    
