ZINC09064654_53
                    3D
 Schrodinger Suite 2024-2.
 47 49  0  0  1  0            999 V2000
    0.6759   49.6449   24.1493 C   0  0  0  0  0  0
    0.1274   50.4936   23.1884 C   0  0  0  0  0  0
   -0.8119   51.4554   23.5613 C   0  0  0  0  0  0
   -1.1970   51.5819   24.8972 C   0  0  0  0  0  0
   -0.6281   50.7420   25.8652 C   0  0  0  0  0  0
    0.2948   49.7600   25.4865 C   0  0  0  0  0  0
   -0.9629   50.8967   27.2167 N   0  0  0  0  0  0
   -0.2104   51.4745   28.1939 C   0  0  0  0  0  0
   -0.8956   51.6967   29.6817 S   0  0  0  0  0  0
    1.0533   51.8407   27.8401 N   0  0  0  0  0  0
    2.0360   52.4577   28.5318 C   0  0  0  0  0  0
    2.2301   52.3842   29.7498 O   0  0  0  0  0  0
    2.9907   53.1858   27.6427 C   0  0  0  0  0  0
    2.5994   53.6488   26.3761 C   0  0  0  0  0  0
    3.5535   54.0968   25.4793 C   0  0  0  0  0  0
    4.8997   54.0966   25.8368 C   0  0  0  0  0  0
    5.2632   53.8367   27.1673 C   0  0  0  0  0  0
    4.3100   53.3507   28.0563 C   0  0  0  0  0  0
    6.5982   54.1545   27.6695 N   0  3  0  0  0  0
    7.1044   55.1960   27.2816 O   0  0  0  0  0  0
    7.1044   53.3993   28.4816 O   0  5  0  0  0  0
    5.8067   54.2844   24.8152 N   0  0  0  0  0  0
    5.9626   55.5526   24.1704 C   0  0  0  0  0  0
    6.0840   55.2967   22.6400 C   0  0  0  0  0  0
    7.3882   54.6727   22.3631 C   0  0  0  0  0  0
    7.5043   53.4243   23.2817 C   0  0  0  0  0  0
    7.1275   53.7342   24.7435 C   0  0  0  0  0  0
   -2.4987   52.8965   25.3623 Br  0  0  0  0  0  0
    1.3973   48.8966   23.8567 H   0  0  0  0  0  0
    0.4251   50.4004   22.1539 H   0  0  0  0  0  0
   -1.2432   52.1028   22.8123 H   0  0  0  0  0  0
    0.7201   49.0940   26.2262 H   0  0  0  0  0  0
   -1.8791   50.5670   27.4888 H   0  0  0  0  0  0
    1.2013   51.8441   26.8433 H   0  0  0  0  0  0
    1.5739   53.5934   26.0373 H   0  0  0  0  0  0
    3.2553   54.3469   24.4708 H   0  0  0  0  0  0
    4.6102   53.0796   29.0606 H   0  0  0  0  0  0
    6.8052   56.1339   24.5535 H   0  0  0  0  0  0
    5.1043   56.0967   24.4817 H   0  0  0  0  0  0
    6.0899   56.2135   22.0566 H   0  0  0  0  0  0
    5.2526   54.6935   22.2683 H   0  0  0  0  0  0
    7.4335   54.4968   21.2941 H   0  0  0  0  0  0
    8.1503   55.4341   22.4817 H   0  0  0  0  0  0
    6.8644   52.6350   22.8817 H   0  0  0  0  0  0
    8.5180   53.0239   23.2817 H   0  0  0  0  0  0
    7.8534   54.4623   25.1165 H   0  0  0  0  0  0
    7.2323   52.8967   25.4085 H   0  0  0  0  0  0
  1  6  2  0  0  0
  1  2  1  0  0  0
  1 29  1  0  0  0
  2  3  2  0  0  0
  2 30  1  0  0  0
  3  4  1  0  0  0
  3 31  1  0  0  0
  4  5  2  0  0  0
  4 28  1  0  0  0
  5  6  1  0  0  0
  5  7  1  0  0  0
  6 32  1  0  0  0
  7  8  1  0  0  0
  7 33  1  0  0  0
  8  9  2  0  0  0
  8 10  1  0  0  0
 10 11  1  0  0  0
 10 34  1  0  0  0
 11 12  2  0  0  0
 11 13  1  0  0  0
 13 18  2  0  0  0
 13 14  1  0  0  0
 14 15  2  0  0  0
 14 35  1  0  0  0
 15 16  1  0  0  0
 15 36  1  0  0  0
 16 17  2  0  0  0
 16 22  1  0  0  0
 17 18  1  0  0  0
 17 19  1  0  0  0
 18 37  1  0  0  0
 19 20  2  0  0  0
 19 21  1  0  0  0
 22 27  1  0  0  0
 22 23  1  0  0  0
 23 24  1  0  0  0
 23 38  1  0  0  0
 23 39  1  0  0  0
 24 25  1  0  0  0
 24 40  1  0  0  0
 24 41  1  0  0  0
 25 26  1  0  0  0
 25 42  1  0  0  0
 25 43  1  0  0  0
 26 27  1  0  0  0
 26 44  1  0  0  0
 26 45  1  0  0  0
 27 46  1  0  0  0
 27 47  1  0  0  0
M  CHG  2  19   1  21  -1
M  END
> <i_i_glide_confnum>
87

> <i_i_glide_lignum>
54

> <i_i_glide_posenum>
393

> <i_i_glide_rotatable_bonds>
7

> <i_m_Source_File_Index>
2232

> <b_m_subgroup_collapsed>
0

> <r_i_docking_score>
-3.24401

> <r_i_glide_ecoul>
-3.78135

> <r_i_glide_eff_state_penalty>
0

> <r_i_glide_einternal>
8.43253

> <r_i_glide_emodel>
-10.738

> <r_i_glide_energy>
-3.21052

> <r_i_glide_erotb>
0.469299

> <r_i_glide_esite>
-0.220763

> <r_i_glide_evdw>
0.570826

> <r_i_glide_gscore>
-3.24401

> <r_i_glide_hbond>
-0.000721481

> <r_i_glide_ligand_efficiency>
-0.115858

> <r_i_glide_ligand_efficiency_ln>
-0.748813

> <r_i_glide_ligand_efficiency_sa>
-0.351812

> <r_i_glide_lipo>
-1.91477

> <r_i_glide_metal>
0

> <r_i_glide_rewards>
-1.0384

> <s_i_glide_gridfile>
wee1_glide-grid

> <s_m_Source_File>
wee1_decoys_glide_SP.sdf

> <s_m_Source_Path>
/Users/zhangxujun/Desktop

> <s_m_entry_id>
2507

> <s_m_entry_name>
wee1_decoys_glide_SP.2232

> <s_m_subgroup_title>
wee1_decoys_glide_SP

> <s_m_subgroupid>
wee1_decoys_glide_SP


$$$$
