@<TRIPOS>MOLECULE
ZINC02880205_2030
39   41    1
SMALL
USER_CHARGES


@<TRIPOS>ATOM
      1 C1          6.6074   54.5837   23.2197 C.ar      1 UNK         0.0000 
      2 C2          5.4251   53.8473   23.2217 C.ar      1 UNK         0.0000 
      3 C3          4.6146   53.8083   22.0840 C.ar      1 UNK         0.0000 
      4 C4          5.0163   54.4969   20.9360 C.ar      1 UNK         0.0000 
      5 C5          6.1984   55.2539   20.9215 C.ar      1 UNK         0.0000 
      6 C6          6.9868   55.2919   22.0822 C.ar      1 UNK         0.0000 
      7 N7          6.6092   55.9843   19.7015 N.pl3     1 UNK         0.0000 
      8 O8          5.8214   56.0497   18.7644 O.co2     1 UNK         0.0000 
      9 O9          7.7213   56.5009   19.6810 O.co2     1 UNK         0.0000 
     10 C10         3.3275   53.0619   22.0758 C.2       1 UNK         0.0000 
     11 C11         2.5704   52.4885   21.0652 C.2       1 UNK         0.0000 
     12 C12         1.4239   51.9627   21.6595 C.2       1 UNK         0.0000 
     13 C13         1.5191   52.2240   23.0202 C.2       1 UNK         0.0000 
     14 O14         2.6841   52.8944   23.2651 O.3       1 UNK         0.0000 
     15 C15         0.6006   51.9298   24.0917 C.2       1 UNK         0.0000 
     16 O16        -0.5076   51.4492   23.8424 O.2       1 UNK         0.0000 
     17 N17         1.0814   52.2527   25.3166 N.am      1 UNK         0.0000 
     18 C18         0.5179   52.2642   26.5706 C.2       1 UNK         0.0000 
     19 S19        -0.9878   51.6971   27.0214 S.2       1 UNK         0.0000 
     20 N20         1.2828   52.7935   27.5708 N.pl3     1 UNK         0.0000 
     21 C21         2.6011   53.2864   27.5306 C.ar      1 UNK         0.0000 
     22 C22         3.0447   54.1360   26.5083 C.ar      1 UNK         0.0000 
     23 C23         4.3747   54.5369   26.4517 C.ar      1 UNK         0.0000 
     24 C24         5.2737   54.0958   27.4175 C.ar      1 UNK         0.0000 
     25 C25         4.8315   53.2931   28.4679 C.ar      1 UNK         0.0000 
     26 C26         3.4980   52.8874   28.5298 C.ar      1 UNK         0.0000 
     27 F27         3.0958   52.0896   29.5491 F         1 UNK         0.0000 
     28 Br28        7.1045   54.5733   27.2804 Br        1 UNK         0.0000 
     29 H29         7.2351   54.6036   24.0982 H         1 UNK         0.0000 
     30 H30         5.1446   53.2985   24.1087 H         1 UNK         0.0000 
     31 H31         4.3858   54.4595   20.0573 H         1 UNK         0.0000 
     32 H32         7.9056   55.8587   22.1075 H         1 UNK         0.0000 
     33 H33         2.8127   52.4594   20.0135 H         1 UNK         0.0000 
     34 H34         0.6145   51.4532   21.1580 H         1 UNK         0.0000 
     35 H35         2.0400   52.5666   25.2935 H         1 UNK         0.0000 
     36 H36         0.8677   52.7581   28.4915 H         1 UNK         0.0000 
     37 H37         2.3648   54.4940   25.7472 H         1 UNK         0.0000 
     38 H38         4.7095   55.1831   25.6534 H         1 UNK         0.0000 
     39 H39         5.5221   52.9600   29.2251 H         1 UNK         0.0000 
@<TRIPOS>BOND
     1    1    6 ar   
     2    1    2 ar   
     3    1   29 1    
     4    2    3 ar   
     5    2   30 1    
     6    3    4 ar   
     7    3   10 1    
     8    4    5 ar   
     9    4   31 1    
    10    5    6 ar   
    11    5    7 1    
    12    6   32 1    
    13    7    8 2    
    14    7    9 1    
    15   10   14 1    
    16   10   11 2    
    17   11   12 1    
    18   11   33 1    
    19   12   13 2    
    20   12   34 1    
    21   13   14 1    
    22   13   15 1    
    23   15   16 2    
    24   15   17 am   BACKBONE|DICT|INTERRES
    25   17   18 am   BACKBONE|DICT|INTERRES
    26   17   35 1    
    27   18   19 2    
    28   18   20 1    
    29   20   21 1    
    30   20   36 1    
    31   21   26 ar   
    32   21   22 ar   
    33   22   23 ar   
    34   22   37 1    
    35   23   24 ar   
    36   23   38 1    
    37   24   25 ar   
    38   24   28 1    
    39   25   26 ar   
    40   25   39 1    
    41   26   27 1    
@<TRIPOS>SUBSTRUCTURE
     1 UNK         1 GROUP             0       ****    0 ROOT    
