ZINC09851026_5878
                    3D
 Schrodinger Suite 2024-2.
 50 53  0  0  1  0            999 V2000
    9.0967   54.4344   17.6817 C   0  0  0  0  0  0
    8.2999   55.2584   18.4804 C   0  0  0  0  0  0
    6.9842   54.8173   18.6288 C   0  0  0  0  0  0
    6.7399   53.3735   17.6817 S   0  0  0  0  0  0
    8.3932   53.3593   17.1696 C   0  0  0  0  0  0
    5.8422   55.4363   19.4143 C   0  0  0  0  0  0
    5.7491   54.9004   20.7902 N   0  0  0  0  0  0
    6.6486   55.2967   21.7236 C   0  0  0  0  0  0
    7.5619   56.0967   21.5461 O   0  0  0  0  0  0
    6.4493   54.5663   23.0439 C   0  0  2  0  0  0
    7.2425   53.8173   23.0889 H   0  0  0  0  0  0
    4.8956   53.6967   22.8817 S   0  0  0  0  0  0
    4.7719   54.0065   21.1144 C   0  0  0  0  0  0
    3.9045   53.4430   20.3578 N   0  0  0  0  0  0
    2.9564   52.4967   20.7846 C   0  0  0  0  0  0
    2.0459   52.7277   21.8296 C   0  0  0  0  0  0
    1.1211   51.7560   22.2049 C   0  0  0  0  0  0
    1.0763   50.5475   21.5167 C   0  0  0  0  0  0
    1.9359   50.3150   20.4483 C   0  0  0  0  0  0
    2.8563   51.2927   20.0799 C   0  0  0  0  0  0
    0.1822   49.5998   21.8777 F   0  0  0  0  0  0
    6.5526   55.4777   24.3026 C   0  0  0  0  0  0
    6.2558   54.7186   25.5997 C   0  0  0  0  0  0
    7.1044   53.9623   26.0375 O   0  0  0  0  0  0
    5.0505   54.8967   26.1621 N   0  0  0  0  0  0
    4.5040   54.2523   27.2868 C   0  0  0  0  0  0
    3.1856   54.5825   27.5590 C   0  0  0  0  0  0
    2.5106   54.0192   28.6336 C   0  0  0  0  0  0
    3.1610   53.0974   29.4619 C   0  0  0  0  0  0
    4.4909   52.7582   29.1839 C   0  0  0  0  0  0
    5.1644   53.3310   28.1117 C   0  0  0  0  0  0
    2.4571   52.4967   30.6362 C   0  0  0  0  0  0
    1.2852   52.8645   30.8703 O   0  0  0  0  0  0
   10.1437   54.6179   17.4876 H   0  0  0  0  0  0
    8.6795   56.1461   18.9653 H   0  0  0  0  0  0
    8.7576   52.5704   16.5281 H   0  0  0  0  0  0
    4.8967   55.3120   18.8823 H   0  0  0  0  0  0
    5.9804   56.5173   19.4711 H   0  0  0  0  0  0
    2.0615   53.6714   22.3539 H   0  0  0  0  0  0
    0.4403   51.9379   23.0229 H   0  0  0  0  0  0
    1.8883   49.3844   19.9026 H   0  0  0  0  0  0
    3.5044   51.1067   19.2360 H   0  0  0  0  0  0
    5.9044   56.3435   24.2443 H   0  0  0  0  0  0
    7.5546   55.8922   24.3875 H   0  0  0  0  0  0
    4.4198   55.5236   25.6890 H   0  0  0  0  0  0
    2.7043   55.2967   26.9242 H   0  0  0  0  0  0
    1.4844   54.3051   28.8200 H   0  0  0  0  0  0
    5.0207   52.0490   29.8037 H   0  0  0  0  0  0
    6.1871   53.0304   27.9557 H   0  0  0  0  0  0
    3.1045   51.6968   31.3485 O   0  5  0  0  0  0
  1  5  2  0  0  0
  1  2  1  0  0  0
  1 34  1  0  0  0
  2  3  2  0  0  0
  2 35  1  0  0  0
  3  4  1  0  0  0
  3  6  1  0  0  0
  4  5  1  0  0  0
  5 36  1  0  0  0
  6  7  1  0  0  0
  6 37  1  0  0  0
  6 38  1  0  0  0
  7 13  1  0  0  0
  7  8  1  0  0  0
  8  9  2  0  0  0
  8 10  1  0  0  0
 10 11  1  0  0  0
 10 12  1  0  0  0
 10 22  1  0  0  0
 12 13  1  0  0  0
 13 14  2  0  0  0
 14 15  1  0  0  0
 15 20  2  0  0  0
 15 16  1  0  0  0
 16 17  2  0  0  0
 16 39  1  0  0  0
 17 18  1  0  0  0
 17 40  1  0  0  0
 18 19  2  0  0  0
 18 21  1  0  0  0
 19 20  1  0  0  0
 19 41  1  0  0  0
 20 42  1  0  0  0
 22 23  1  0  0  0
 22 43  1  0  0  0
 22 44  1  0  0  0
 23 24  2  0  0  0
 23 25  1  0  0  0
 25 26  1  0  0  0
 25 45  1  0  0  0
 26 31  2  0  0  0
 26 27  1  0  0  0
 27 28  2  0  0  0
 27 46  1  0  0  0
 28 29  1  0  0  0
 28 47  1  0  0  0
 29 30  2  0  0  0
 29 32  1  0  0  0
 30 31  1  0  0  0
 30 48  1  0  0  0
 31 49  1  0  0  0
 32 33  2  0  0  0
 32 50  1  0  0  0
M  CHG  1  50  -1
M  END
> <i_i_glide_confnum>
107

> <i_i_glide_lignum>
5879

> <i_i_glide_posenum>
58

> <i_i_glide_rotatable_bonds>
8

> <i_m_Source_File_Index>
4037

> <b_m_subgroup_collapsed>
0

> <r_i_docking_score>
-6.696

> <r_i_glide_ecoul>
-3.29698

> <r_i_glide_eff_state_penalty>
0

> <r_i_glide_einternal>
2.43474

> <r_i_glide_emodel>
-74.0917

> <r_i_glide_energy>
-50.7477

> <r_i_glide_erotb>
0.522969

> <r_i_glide_esite>
-0.0353626

> <r_i_glide_evdw>
-47.4508

> <r_i_glide_gscore>
-6.696

> <r_i_glide_hbond>
-0.28083

> <r_i_glide_ligand_efficiency>
-0.202909

> <r_i_glide_ligand_efficiency_ln>
-1.48916

> <r_i_glide_ligand_efficiency_sa>
-0.650838

> <r_i_glide_lipo>
-2.78234

> <r_i_glide_metal>
0

> <r_i_glide_rewards>
-1.25335

> <s_i_glide_gridfile>
wee1_glide-grid

> <s_m_Source_File>
wee1_decoys_glide_SP.sdf

> <s_m_Source_Path>
/Users/zhangxujun/Desktop

> <s_m_entry_id>
4312

> <s_m_entry_name>
wee1_decoys_glide_SP.4037

> <s_m_subgroup_title>
wee1_decoys_glide_SP

> <s_m_subgroupid>
wee1_decoys_glide_SP


$$$$
