ZINC35573885_4552
                    3D
 Schrodinger Suite 2024-2.
 50 54  0  0  1  0            999 V2000
    7.6512   55.8683   20.0603 C   0  0  0  0  0  0
    7.0254   55.6271   21.2831 C   0  0  0  0  0  0
    5.9058   54.7738   21.3711 C   0  0  0  0  0  0
    5.4392   54.1777   20.1850 C   0  0  0  0  0  0
    6.0529   54.4402   18.9603 C   0  0  0  0  0  0
    7.1583   55.2833   18.8978 C   0  0  0  0  0  0
    5.5847   53.8611   17.8331 F   0  0  0  0  0  0
    5.3058   54.4962   22.6424 N   0  0  0  0  0  0
    4.0180   54.0481   22.9442 C   0  0  0  0  0  0
    3.9062   54.0274   24.3634 C   0  0  0  0  0  0
    2.9663   53.6989   25.3727 C   0  0  0  0  0  0
    3.3341   53.8295   26.6748 N   0  0  0  0  0  0
    4.6044   54.1994   26.9754 C   0  0  0  0  0  0
    5.5710   54.5069   26.0770 N   0  0  0  0  0  0
    5.2061   54.4378   24.7946 C   0  0  0  0  0  0
    6.0410   54.7263   23.7593 N   0  0  0  0  0  0
    5.0173   54.2300   28.3181 N   0  0  0  0  0  0
    4.1357   54.6444   29.4159 C   0  0  0  0  0  0
    2.8244   53.8789   29.5686 C   0  0  0  0  0  0
    1.6486   54.5948   29.8208 C   0  0  0  0  0  0
    0.4295   53.9277   29.8942 C   0  0  0  0  0  0
    0.3835   52.5526   29.6948 C   0  0  0  0  0  0
    1.5523   51.8357   29.4592 C   0  0  0  0  0  0
    2.7784   52.4908   29.4169 C   0  0  0  0  0  0
   -0.8061   51.9126   29.7089 F   0  0  0  0  0  0
    1.5965   53.1196   25.1516 C   0  0  0  0  0  0
    0.7665   53.5339   24.1010 C   0  0  0  0  0  0
   -0.4870   52.9494   23.9110 C   0  0  0  0  0  0
   -0.9408   51.9651   24.7807 C   0  0  0  0  0  0
   -0.1477   51.5533   25.8437 C   0  0  0  0  0  0
    1.1047   52.1307   26.0210 C   0  0  0  0  0  0
   -2.5009   51.2659   24.5449 Cl  0  0  0  0  0  0
    3.0486   53.6967   22.0481 N   0  0  0  0  0  0
    8.5267   56.4996   20.0127 H   0  0  0  0  0  0
    7.4424   56.0935   22.1652 H   0  0  0  0  0  0
    4.6259   53.4713   20.1738 H   0  0  0  0  0  0
    7.6387   55.4696   17.9486 H   0  0  0  0  0  0
    5.9870   54.4869   28.4401 H   0  0  0  0  0  0
    3.9028   55.6967   29.2807 H   0  0  0  0  0  0
    4.6947   54.5617   30.3475 H   0  0  0  0  0  0
    1.6720   55.6685   29.9431 H   0  0  0  0  0  0
   -0.4834   54.4706   30.0818 H   0  0  0  0  0  0
    1.4990   50.7750   29.2811 H   0  0  0  0  0  0
    3.6800   51.9349   29.2049 H   0  0  0  0  0  0
    1.0692   54.3409   23.4520 H   0  0  0  0  0  0
   -1.1271   53.2752   23.1072 H   0  0  0  0  0  0
   -0.4963   50.7890   26.5254 H   0  0  0  0  0  0
    1.7141   51.7840   26.8401 H   0  0  0  0  0  0
    2.2353   53.1750   22.3418 H   0  0  0  0  0  0
    3.0396   54.0222   21.0893 H   0  0  0  0  0  0
  1  6  2  0  0  0
  1  2  1  0  0  0
  1 34  1  0  0  0
  2  3  2  0  0  0
  2 35  1  0  0  0
  3  4  1  0  0  0
  3  8  1  0  0  0
  4  5  2  0  0  0
  4 36  1  0  0  0
  5  6  1  0  0  0
  5  7  1  0  0  0
  6 37  1  0  0  0
  8 16  1  0  0  0
  8  9  1  0  0  0
  9 10  2  0  0  0
  9 33  1  0  0  0
 10 15  1  0  0  0
 10 11  1  0  0  0
 11 12  2  0  0  0
 11 26  1  0  0  0
 12 13  1  0  0  0
 13 14  2  0  0  0
 13 17  1  0  0  0
 14 15  1  0  0  0
 15 16  2  0  0  0
 17 18  1  0  0  0
 17 38  1  0  0  0
 18 19  1  0  0  0
 18 39  1  0  0  0
 18 40  1  0  0  0
 19 24  2  0  0  0
 19 20  1  0  0  0
 20 21  2  0  0  0
 20 41  1  0  0  0
 21 22  1  0  0  0
 21 42  1  0  0  0
 22 23  2  0  0  0
 22 25  1  0  0  0
 23 24  1  0  0  0
 23 43  1  0  0  0
 24 44  1  0  0  0
 26 31  2  0  0  0
 26 27  1  0  0  0
 27 28  2  0  0  0
 27 45  1  0  0  0
 28 29  1  0  0  0
 28 46  1  0  0  0
 29 30  2  0  0  0
 29 32  1  0  0  0
 30 31  1  0  0  0
 30 47  1  0  0  0
 31 48  1  0  0  0
 33 49  1  0  0  0
 33 50  1  0  0  0
M  END
> <i_i_glide_confnum>
278

> <i_i_glide_lignum>
4553

> <i_i_glide_posenum>
6

> <i_i_glide_rotatable_bonds>
5

> <i_m_Source_File_Index>
924

> <b_m_subgroup_collapsed>
0

> <r_i_docking_score>
-6.07361

> <r_i_glide_ecoul>
-0.930697

> <r_i_glide_eff_state_penalty>
0

> <r_i_glide_einternal>
4.34221

> <r_i_glide_emodel>
-64.0968

> <r_i_glide_energy>
-48.7022

> <r_i_glide_erotb>
0.470164

> <r_i_glide_esite>
-0.0908808

> <r_i_glide_evdw>
-47.7715

> <r_i_glide_gscore>
-6.07361

> <r_i_glide_hbond>
-0.0692129

> <r_i_glide_ligand_efficiency>
-0.184049

> <r_i_glide_ligand_efficiency_ln>
-1.35074

> <r_i_glide_ligand_efficiency_sa>
-0.590343

> <r_i_glide_lipo>
-2.79421

> <r_i_glide_metal>
0

> <r_i_glide_rewards>
-1.06129

> <s_i_glide_gridfile>
wee1_glide-grid

> <s_m_Source_File>
wee1_decoys_glide_SP.sdf

> <s_m_Source_Path>
/Users/zhangxujun/Desktop

> <s_m_entry_id>
1199

> <s_m_entry_name>
wee1_decoys_glide_SP.924

> <s_m_subgroup_title>
wee1_decoys_glide_SP

> <s_m_subgroupid>
wee1_decoys_glide_SP


$$$$
