ZINC00135843_6135
                    3D
 Schrodinger Suite 2024-2.
 30 33  0  0  1  0            999 V2000
    4.8539   54.4727   19.4232 C   0  0  0  0  0  0
    4.2149   53.3134   19.8865 C   0  0  0  0  0  0
    4.4176   52.8691   21.1974 C   0  0  0  0  0  0
    5.2695   53.6123   22.0082 C   0  0  0  0  0  0
    5.9041   54.7502   21.5697 C   0  0  0  0  0  0
    5.7075   55.1986   20.2648 C   0  0  0  0  0  0
    6.7044   55.2228   22.6007 N   0  0  0  0  0  0
    6.5887   54.2744   23.6774 C   0  0  2  0  0  0
    7.5396   53.7592   23.8293 H   0  0  0  0  0  0
    5.6492   53.3119   23.2793 O   0  0  0  0  0  0
    6.1349   54.9734   24.9774 C   0  0  2  0  0  0
    6.4190   56.0272   24.9509 H   0  0  0  0  0  0
    6.7003   54.3395   26.1384 N   0  0  0  0  0  0
    5.6430   54.0623   26.9903 C   0  0  0  0  0  0
    5.6019   53.5367   28.2795 C   0  0  0  0  0  0
    4.3564   53.3161   28.8815 C   0  0  0  0  0  0
    3.1724   53.6211   28.1956 C   0  0  0  0  0  0
    3.2225   54.1579   26.9052 C   0  0  0  0  0  0
    4.4750   54.3750   26.3386 C   0  0  0  0  0  0
    4.7379   54.9028   25.1114 O   0  0  0  0  0  0
    4.6907   54.8032   18.4080 H   0  0  0  0  0  0
    3.5696   52.7539   19.2240 H   0  0  0  0  0  0
    3.9385   51.9688   21.5520 H   0  0  0  0  0  0
    6.2030   56.0834   19.8953 H   0  0  0  0  0  0
    7.4506   55.9017   22.6338 H   0  0  0  0  0  0
    7.6967   54.2253   26.2262 H   0  0  0  0  0  0
    6.5117   53.2970   28.8085 H   0  0  0  0  0  0
    4.3069   52.9019   29.8773 H   0  0  0  0  0  0
    2.2159   53.4410   28.6648 H   0  0  0  0  0  0
    2.3135   54.3938   26.3737 H   0  0  0  0  0  0
  1  6  2  0  0  0
  1  2  1  0  0  0
  1 21  1  0  0  0
  2  3  2  0  0  0
  2 22  1  0  0  0
  3  4  1  0  0  0
  3 23  1  0  0  0
  4 10  1  0  0  0
  4  5  2  0  0  0
  5  6  1  0  0  0
  5  7  1  0  0  0
  6 24  1  0  0  0
  7  8  1  0  0  0
  7 25  1  0  0  0
  8  9  1  0  0  0
  8 10  1  0  0  0
  8 11  1  0  0  0
 11 12  1  0  0  0
 11 20  1  0  0  0
 11 13  1  0  0  0
 13 14  1  0  0  0
 13 26  1  0  0  0
 14 19  2  0  0  0
 14 15  1  0  0  0
 15 16  2  0  0  0
 15 27  1  0  0  0
 16 17  1  0  0  0
 16 28  1  0  0  0
 17 18  2  0  0  0
 17 29  1  0  0  0
 18 19  1  0  0  0
 18 30  1  0  0  0
 19 20  1  0  0  0
M  END
> <i_i_glide_confnum>
1

> <i_i_glide_lignum>
6136

> <i_i_glide_posenum>
331

> <i_i_glide_rotatable_bonds>
1

> <i_m_Source_File_Index>
594

> <b_m_subgroup_collapsed>
0

> <r_i_docking_score>
-6.06747

> <r_i_glide_ecoul>
0.908721

> <r_i_glide_eff_state_penalty>
0

> <r_i_glide_einternal>
5.08973

> <r_i_glide_emodel>
-40.0838

> <r_i_glide_energy>
-30.9768

> <r_i_glide_erotb>
0.299697

> <r_i_glide_esite>
0

> <r_i_glide_evdw>
-31.8855

> <r_i_glide_gscore>
-6.06747

> <r_i_glide_hbond>
0

> <r_i_glide_ligand_efficiency>
-0.337082

> <r_i_glide_ligand_efficiency_ln>
-1.55961

> <r_i_glide_ligand_efficiency_sa>
-0.883404

> <r_i_glide_lipo>
-2.19656

> <r_i_glide_metal>
0

> <r_i_glide_rewards>
-2.71264

> <s_i_glide_gridfile>
wee1_glide-grid

> <s_m_Source_File>
wee1_decoys_glide_SP.sdf

> <s_m_Source_Path>
/Users/zhangxujun/Desktop

> <s_m_entry_id>
869

> <s_m_entry_name>
wee1_decoys_glide_SP.594

> <s_m_subgroup_title>
wee1_decoys_glide_SP

> <s_m_subgroupid>
wee1_decoys_glide_SP


$$$$
