@<TRIPOS>MOLECULE
ZINC41629223_1745
34   36    1
SMALL
USER_CHARGES


@<TRIPOS>ATOM
      1 C1          7.0607   54.0646   27.6092 C.3       1 UNK         0.0000 
      2 C2          5.9452   54.0969   26.5747 C.ar      1 UNK         0.0000 
      3 C3          6.2626   54.2884   25.2247 C.ar      1 UNK         0.0000 
      4 C4          5.2627   54.3103   24.2410 C.ar      1 UNK         0.0000 
      5 C5          3.9315   54.1643   24.6488 C.ar      1 UNK         0.0000 
      6 C6          3.5922   53.9534   25.9839 C.ar      1 UNK         0.0000 
      7 C7          4.6031   53.9388   26.9496 C.ar      1 UNK         0.0000 
      8 N8          4.2505   53.7894   28.2946 N.am      1 UNK         0.0000 
      9 C9          3.0431   53.9476   28.8664 C.2       1 UNK         0.0000 
     10 O10         2.8939   53.9023   30.0817 O.2       1 UNK         0.0000 
     11 C11         1.9036   54.2617   27.8648 C.3       1 UNK         0.0000 
     12 C12         2.1650   53.6932   26.4419 C.3       1 UNK         0.0000 
     13 C13         5.5885   54.4957   22.7826 C.2       1 UNK         0.0000 
     14 C14         4.8115   54.0542   21.6850 C.2       1 UNK         0.0000 
     15 S15         5.5506   54.6477   20.2216 S.3       1 UNK         0.0000 
     16 C16         6.8334   55.2967   21.1675 C.2       1 UNK         0.0000 
     17 N17         6.7026   55.1366   22.4538 N.2       1 UNK         0.0000 
     18 N18         7.9053   55.8766   20.5587 N.pl3     1 UNK         0.0000 
     19 C19         3.5472   53.2262   21.6078 C.3       1 UNK         0.0000 
     20 H20         6.7373   54.4954   28.5564 H         1 UNK         0.0000 
     21 H21         7.3957   53.0417   27.7846 H         1 UNK         0.0000 
     22 H22         7.9043   54.6645   27.2856 H         1 UNK         0.0000 
     23 H23         7.2972   54.4017   24.9322 H         1 UNK         0.0000 
     24 H24         3.1319   54.2090   23.9277 H         1 UNK         0.0000 
     25 H25         4.9904   53.6504   28.9643 H         1 UNK         0.0000 
     26 H26         0.9693   53.8705   28.2685 H         1 UNK         0.0000 
     27 H27         1.8245   55.3476   27.8187 H         1 UNK         0.0000 
     28 H28         1.4532   54.0967   25.7238 H         1 UNK         0.0000 
     29 H29         1.9944   52.6152   26.4527 H         1 UNK         0.0000 
     30 H30         8.7020   56.1884   21.0978 H         1 UNK         0.0000 
     31 H31         8.0377   55.8184   19.5585 H         1 UNK         0.0000 
     32 H32         2.6560   53.8500   21.6676 H         1 UNK         0.0000 
     33 H33         3.4849   52.6628   20.6766 H         1 UNK         0.0000 
     34 H34         3.4867   52.4935   22.4114 H         1 UNK         0.0000 
@<TRIPOS>BOND
     1    1    2 1    
     2    1   20 1    
     3    1   21 1    
     4    1   22 1    
     5    2    7 ar   
     6    2    3 ar   
     7    3    4 ar   
     8    3   23 1    
     9    4    5 ar   
    10    4   13 1    
    11    5    6 ar   
    12    5   24 1    
    13    6   12 1    
    14    6    7 ar   
    15    7    8 1    
    16    8    9 am   BACKBONE|DICT|INTERRES
    17    8   25 1    
    18    9   10 2    
    19    9   11 1    
    20   11   12 1    
    21   11   26 1    
    22   11   27 1    
    23   12   28 1    
    24   12   29 1    
    25   13   17 1    
    26   13   14 2    
    27   14   15 1    
    28   14   19 1    
    29   15   16 1    
    30   16   17 2    
    31   16   18 1    
    32   18   30 1    
    33   18   31 1    
    34   19   32 1    
    35   19   33 1    
    36   19   34 1    
@<TRIPOS>SUBSTRUCTURE
     1 UNK         1 GROUP             0       ****    0 ROOT    
