@<TRIPOS>MOLECULE
ZINC24143723_3124
64   67    1
SMALL
USER_CHARGES


@<TRIPOS>ATOM
      1 C1          7.2003   55.6693   21.6766 C.3       1 UNK         0.0000 
      2 C2          5.8870   55.1805   21.0246 C.3       1 UNK         0.0000 
      3 C3          6.1322   54.9850   19.5070 C.3       1 UNK         0.0000 
      4 C4          5.2001   53.9402   21.7002 C.3       1 UNK         0.0000 
      5 H5          5.9013   53.1156   21.6380 H         1 UNK         0.0000 
      6 C6          4.9285   54.0968   23.2097 C.ar      1 UNK         0.0000 
      7 C7          3.6252   54.1806   23.7287 C.ar      1 UNK         0.0000 
      8 C8          3.4053   54.2717   25.1051 C.ar      1 UNK         0.0000 
      9 C9          4.4886   54.2810   25.9813 C.ar      1 UNK         0.0000 
     10 C10         5.7953   54.2077   25.4776 C.ar      1 UNK         0.0000 
     11 C11         6.0090   54.0967   24.1068 C.ar      1 UNK         0.0000 
     12 O12         6.9028   54.1388   26.2989 O.3       1 UNK         0.0000 
     13 C13         6.6563   54.5435   27.6464 C.3       1 UNK         0.0000 
     14 C14         5.3116   53.9772   28.1655 C.3       1 UNK         0.0000 
     15 O15         4.2314   54.4104   27.3311 O.3       1 UNK         0.0000 
     16 N16         4.0552   53.4901   20.8920 N.am      1 UNK         0.0000 
     17 C17         3.4885   52.2739   20.9008 C.2       1 UNK         0.0000 
     18 O18         3.8211   51.3810   21.6798 O.2       1 UNK         0.0000 
     19 C19         2.3921   52.0658   19.8517 C.3       1 UNK         0.0000 
     20 S20         1.4779   50.4916   19.9393 S.3       1 UNK         0.0000 
     21 C21         0.1775   51.0541   20.9829 C.ar      1 UNK         0.0000 
     22 N22        -1.0095   51.3862   20.5432 N.2       1 UNK         0.0000 
     23 N23        -1.7879   51.6966   21.6509 N.2       1 UNK         0.0000 
     24 C24        -1.0666   51.4745   22.7277 C.ar      1 UNK         0.0000 
     25 N25         0.2078   51.0761   22.3610 N.pl3     1 UNK         0.0000 
     26 N26         1.2845   50.7482   23.1724 N.3       1 UNK         0.0000 
     27 C27        -1.6271   51.5784   24.1173 C.ar      1 UNK         0.0000 
     28 C28        -1.1697   50.7582   25.1522 C.ar      1 UNK         0.0000 
     29 C29        -1.7710   50.7943   26.4058 C.ar      1 UNK         0.0000 
     30 C30        -2.8566   51.6447   26.6591 C.ar      1 UNK         0.0000 
     31 C31        -3.3118   52.4946   25.6384 C.ar      1 UNK         0.0000 
     32 C32        -2.6873   52.4535   24.3794 C.ar      1 UNK         0.0000 
     33 O33        -4.3850   53.3185   25.9339 O.3       1 UNK         0.0000 
     34 C34        -5.0251   54.0317   24.8834 C.3       1 UNK         0.0000 
     35 O35        -3.5349   51.6770   27.8655 O.3       1 UNK         0.0000 
     36 C36        -3.1819   50.7563   28.8957 C.3       1 UNK         0.0000 
     37 H37         7.9538   54.8854   21.7244 H         1 UNK         0.0000 
     38 H38         7.6414   56.4919   21.1125 H         1 UNK         0.0000 
     39 H39         7.0423   56.0507   22.6845 H         1 UNK         0.0000 
     40 H40         5.1834   56.0055   21.1130 H         1 UNK         0.0000 
     41 H41         6.7827   54.1299   19.3151 H         1 UNK         0.0000 
     42 H42         5.2066   54.8161   18.9565 H         1 UNK         0.0000 
     43 H43         6.5986   55.8628   19.0559 H         1 UNK         0.0000 
     44 H44         2.7705   54.1813   23.0673 H         1 UNK         0.0000 
     45 H45         2.3986   54.3313   25.4886 H         1 UNK         0.0000 
     46 H46         7.0236   53.9816   23.7557 H         1 UNK         0.0000 
     47 H47         7.4818   54.2025   28.2726 H         1 UNK         0.0000 
     48 H48         6.6279   55.6338   27.6805 H         1 UNK         0.0000 
     49 H49         5.3588   52.8858   28.1606 H         1 UNK         0.0000 
     50 H50         5.1281   54.3003   29.1905 H         1 UNK         0.0000 
     51 H51         3.6864   54.1682   20.2399 H         1 UNK         0.0000 
     52 H52         1.6869   52.8964   19.8795 H         1 UNK         0.0000 
     53 H53         2.8779   52.0937   18.8724 H         1 UNK         0.0000 
     54 H54         1.5140   49.7664   23.1211 H         1 UNK         0.0000 
     55 H55         2.0872   51.3299   22.9820 H         1 UNK         0.0000 
     56 H56        -0.3709   50.0488   24.9896 H         1 UNK         0.0000 
     57 H57        -1.4040   50.1168   27.1640 H         1 UNK         0.0000 
     58 H58        -3.0355   53.0886   23.5812 H         1 UNK         0.0000 
     59 H59        -5.9270   54.4976   25.2762 H         1 UNK         0.0000 
     60 H60        -4.3855   54.8166   24.4769 H         1 UNK         0.0000 
     61 H61        -5.3388   53.3622   24.0812 H         1 UNK         0.0000 
     62 H62        -3.8398   50.8976   29.7504 H         1 UNK         0.0000 
     63 H63        -3.3006   49.7226   28.5674 H         1 UNK         0.0000 
     64 H64        -2.1570   50.9029   29.2385 H         1 UNK         0.0000 
@<TRIPOS>BOND
     1    1    2 1    
     2    1   37 1    
     3    1   38 1    
     4    1   39 1    
     5    2    3 1    
     6    2    4 1    
     7    2   40 1    
     8    3   41 1    
     9    3   42 1    
    10    3   43 1    
    11    4    5 1    
    12    4    6 1    
    13    4   16 1    
    14    6   11 ar   
    15    6    7 ar   
    16    7    8 ar   
    17    7   44 1    
    18    8    9 ar   
    19    8   45 1    
    20    9   15 1    
    21    9   10 ar   
    22   10   11 ar   
    23   10   12 1    
    24   11   46 1    
    25   12   13 1    
    26   13   14 1    
    27   13   47 1    
    28   13   48 1    
    29   14   15 1    
    30   14   49 1    
    31   14   50 1    
    32   16   17 am   BACKBONE|DICT|INTERRES
    33   16   51 1    
    34   17   18 2    
    35   17   19 1    
    36   19   20 1    
    37   19   52 1    
    38   19   53 1    
    39   20   21 1    
    40   21   25 ar   
    41   21   22 ar   
    42   22   23 ar   
    43   23   24 ar   
    44   24   25 ar   
    45   24   27 1    
    46   25   26 1    
    47   26   54 1    
    48   26   55 1    
    49   27   32 ar   
    50   27   28 ar   
    51   28   29 ar   
    52   28   56 1    
    53   29   30 ar   
    54   29   57 1    
    55   30   31 ar   
    56   30   35 1    
    57   31   32 ar   
    58   31   33 1    
    59   32   58 1    
    60   33   34 1    
    61   34   59 1    
    62   34   60 1    
    63   34   61 1    
    64   35   36 1    
    65   36   62 1    
    66   36   63 1    
    67   36   64 1    
@<TRIPOS>SUBSTRUCTURE
     1 UNK         1 GROUP             0       ****    0 ROOT    
