@<TRIPOS>MOLECULE
ZINC04722332_4669
38   39    1
SMALL
USER_CHARGES


@<TRIPOS>ATOM
      1 C1          6.4639   54.5029   26.8827 C.ar      1 UNK         0.0000 
      2 C2          5.1824   54.2058   27.3401 C.ar      1 UNK         0.0000 
      3 C3          4.1322   54.0130   26.4352 C.ar      1 UNK         0.0000 
      4 C4          4.3878   54.1093   25.0571 C.ar      1 UNK         0.0000 
      5 C5          5.6823   54.3957   24.5875 C.ar      1 UNK         0.0000 
      6 C6          6.7048   54.6029   25.5125 C.ar      1 UNK         0.0000 
      7 N7          6.0400   54.5414   23.2343 N.am      1 UNK         0.0000 
      8 C8          5.3191   54.2803   22.1210 C.2       1 UNK         0.0000 
      9 O9          4.3419   53.5310   22.1302 O.2       1 UNK         0.0000 
     10 N10         5.7678   54.8938   20.9839 N.am      1 UNK         0.0000 
     11 C11         6.7046   56.0445   20.9723 C.3       1 UNK         0.0000 
     12 C12         7.8561   55.6894   20.0112 C.3       1 UNK         0.0000 
     13 C13         7.3504   55.3623   18.5929 C.3       1 UNK         0.0000 
     14 C14         6.2275   54.2902   18.6524 C.3       1 UNK         0.0000 
     15 H15         6.6837   53.3308   18.9044 H         1 UNK         0.0000 
     16 C16         5.1135   54.6225   19.6825 C.3       1 UNK         0.0000 
     17 C17         5.5699   54.1226   17.2692 C.2       1 UNK         0.0000 
     18 O18         5.3727   55.0850   16.5308 O.2       1 UNK         0.0000 
     19 N19         5.2131   52.8967   16.8930 N.am      1 UNK         0.0000 
     20 C20         2.7376   53.6967   26.9739 C.3       1 UNK         0.0000 
     21 F21         2.2911   54.7345   27.6813 F         1 UNK         0.0000 
     22 F22         1.8656   53.4445   25.9973 F         1 UNK         0.0000 
     23 F23         2.7840   52.6324   27.7776 F         1 UNK         0.0000 
     24 H24         7.2636   54.6612   27.5942 H         1 UNK         0.0000 
     25 H25         5.0062   54.1385   28.4051 H         1 UNK         0.0000 
     26 H26         3.5719   53.9648   24.3651 H         1 UNK         0.0000 
     27 H27         7.7000   54.8345   25.1627 H         1 UNK         0.0000 
     28 H28         6.9198   55.0107   23.0883 H         1 UNK         0.0000 
     29 H29         7.0891   56.3184   21.9570 H         1 UNK         0.0000 
     30 H30         6.1578   56.9069   20.5886 H         1 UNK         0.0000 
     31 H31         8.4362   54.8612   20.4147 H         1 UNK         0.0000 
     32 H32         8.5631   56.5162   19.9579 H         1 UNK         0.0000 
     33 H33         8.2017   55.0211   18.0036 H         1 UNK         0.0000 
     34 H34         6.9631   56.3121   18.2141 H         1 UNK         0.0000 
     35 H35         4.5789   55.5241   19.3786 H         1 UNK         0.0000 
     36 H36         4.4070   53.7945   19.7415 H         1 UNK         0.0000 
     37 H37         5.3402   52.0877   17.4985 H         1 UNK         0.0000 
     38 H38         4.7781   52.7682   15.9934 H         1 UNK         0.0000 
@<TRIPOS>BOND
     1    1    6 ar   
     2    1    2 ar   
     3    1   24 1    
     4    2    3 ar   
     5    2   25 1    
     6    3    4 ar   
     7    3   20 1    
     8    4    5 ar   
     9    4   26 1    
    10    5    6 ar   
    11    5    7 1    
    12    6   27 1    
    13    7    8 am   BACKBONE|DICT|INTERRES
    14    7   28 1    
    15    8    9 2    
    16    8   10 am   BACKBONE|DICT|INTERRES
    17   10   16 1    
    18   10   11 1    
    19   11   12 1    
    20   11   29 1    
    21   11   30 1    
    22   12   13 1    
    23   12   31 1    
    24   12   32 1    
    25   13   14 1    
    26   13   33 1    
    27   13   34 1    
    28   14   15 1    
    29   14   16 1    
    30   14   17 1    
    31   16   35 1    
    32   16   36 1    
    33   17   18 2    
    34   17   19 am   BACKBONE|DICT|INTERRES
    35   19   37 1    
    36   19   38 1    
    37   20   21 1    
    38   20   22 1    
    39   20   23 1    
@<TRIPOS>SUBSTRUCTURE
     1 UNK         1 GROUP             0       ****    0 ROOT    
