@<TRIPOS>MOLECULE
ZINC09215856_4871
64   67    1
SMALL
USER_CHARGES


@<TRIPOS>ATOM
      1 C1          2.4295   55.6640   28.8806 C.3       1 UNK         0.0000 
      2 O2          3.2637   54.7436   28.1864 O.3       1 UNK         0.0000 
      3 C3          2.6157   53.9176   27.2977 C.ar      1 UNK         0.0000 
      4 C4          2.8530   54.0960   25.9391 C.ar      1 UNK         0.0000 
      5 C5          2.1954   53.3149   24.9929 C.ar      1 UNK         0.0000 
      6 C6          1.3612   52.2462   25.3685 C.ar      1 UNK         0.0000 
      7 C7          1.1668   52.0723   26.7508 C.ar      1 UNK         0.0000 
      8 C8          1.7447   52.9082   27.7206 C.ar      1 UNK         0.0000 
      9 O9          1.5284   52.7717   29.0805 O.3       1 UNK         0.0000 
     10 C10         0.3993   52.0259   29.5269 C.3       1 UNK         0.0000 
     11 C11         0.7958   51.1777   24.3635 C.3       1 UNK         0.0000 
     12 H12         1.3952   50.2812   24.5339 H         1 UNK         0.0000 
     13 C13        -0.7181   50.7536   24.4469 C.3       1 UNK         0.0000 
     14 H14        -0.7927   49.9441   23.7154 H         1 UNK         0.0000 
     15 C15        -1.2129   50.0622   25.7481 C.3       1 UNK         0.0000 
     16 C16        -2.5902   49.4138   25.5517 C.3       1 UNK         0.0000 
     17 C17        -3.6228   50.4652   25.1149 C.3       1 UNK         0.0000 
     18 C18        -3.1761   51.2551   23.8639 C.3       1 UNK         0.0000 
     19 C19        -1.7309   51.8286   23.9095 C.3       1 UNK         0.0000 
     20 C20        -1.2692   52.4060   22.5499 C.3       1 UNK         0.0000 
     21 C21         0.2426   52.7063   22.3986 C.3       1 UNK         0.0000 
     22 C22         2.5154   51.3264   22.3687 C.3       1 UNK         0.0000 
     23 C23         2.7456   51.5339   20.8617 C.2       1 UNK         0.0000 
     24 O24         3.8084   52.0521   20.5303 O.2       1 UNK         0.0000 
     25 N25         1.7738   51.1448   20.0064 N.am      1 UNK         0.0000 
     26 C26         1.6721   51.3547   18.6177 C.ar      1 UNK         0.0000 
     27 C27         0.4387   51.0318   18.0447 C.ar      1 UNK         0.0000 
     28 C28         0.2235   51.2241   16.6822 C.ar      1 UNK         0.0000 
     29 C29         1.2452   51.7366   15.8863 C.ar      1 UNK         0.0000 
     30 C30         2.4808   52.0562   16.4433 C.ar      1 UNK         0.0000 
     31 C31         2.7002   51.8629   17.8044 C.ar      1 UNK         0.0000 
     32 Cl32        0.9792   51.9696   14.1975 Cl        1 UNK         0.0000 
     33 O33        -1.6445   52.8458   24.8841 O.3       1 UNK         0.0000 
     34 H34         3.0457   56.4581   29.3022 H         1 UNK         0.0000 
     35 H35         1.6906   56.1269   28.2255 H         1 UNK         0.0000 
     36 H36         1.9047   55.1858   29.7072 H         1 UNK         0.0000 
     37 H37         3.5168   54.8844   25.6161 H         1 UNK         0.0000 
     38 H38         2.3983   53.5746   23.9717 H         1 UNK         0.0000 
     39 H39         0.6314   51.2139   27.1019 H         1 UNK         0.0000 
     40 H40         0.3092   52.1128   30.6103 H         1 UNK         0.0000 
     41 H41        -0.5298   52.3970   29.0878 H         1 UNK         0.0000 
     42 H42         0.4976   50.9643   29.2917 H         1 UNK         0.0000 
     43 H43        -0.5135   49.2718   26.0310 H         1 UNK         0.0000 
     44 H44        -1.2555   50.7359   26.5994 H         1 UNK         0.0000 
     45 H45        -2.5281   48.6176   24.8080 H         1 UNK         0.0000 
     46 H46        -2.9057   48.9348   26.4808 H         1 UNK         0.0000 
     47 H47        -4.5834   49.9840   24.9261 H         1 UNK         0.0000 
     48 H48        -3.7978   51.1594   25.9379 H         1 UNK         0.0000 
     49 H49        -3.8843   52.0567   23.6504 H         1 UNK         0.0000 
     50 H50        -3.2606   50.5988   22.9970 H         1 UNK         0.0000 
     51 H51        -1.8688   53.2943   22.3506 H         1 UNK         0.0000 
     52 H52        -1.5579   51.7131   21.7587 H         1 UNK         0.0000 
     53 H53         0.5547   53.5633   22.9887 H         1 UNK         0.0000 
     54 H54         0.4512   52.9069   21.3489 H         1 UNK         0.0000 
     55 H55         2.8642   50.3329   22.6547 H         1 UNK         0.0000 
     56 H56         3.0992   52.0695   22.8890 H         1 UNK         0.0000 
     57 H57         0.9768   50.6797   20.4074 H         1 UNK         0.0000 
     58 H58        -0.3661   50.6369   18.6485 H         1 UNK         0.0000 
     59 H59        -0.7303   50.9723   16.2432 H         1 UNK         0.0000 
     60 H60         3.2797   52.4310   15.8205 H         1 UNK         0.0000 
     61 H61         3.6819   52.0915   18.1853 H         1 UNK         0.0000 
     62 H62        -1.8218   52.4498   25.7417 H         1 UNK         0.0000 
     63 N63         1.0270   51.4466   22.8409 N.4       1 UNK         0.0000 
     64 H64         0.5783   50.6860   22.3515 H         1 UNK         0.0000 
@<TRIPOS>BOND
     1    1    2 1    
     2    1   34 1    
     3    1   35 1    
     4    1   36 1    
     5    2    3 1    
     6    3    8 ar   
     7    3    4 ar   
     8    4    5 ar   
     9    4   37 1    
    10    5    6 ar   
    11    5   38 1    
    12    6    7 ar   
    13    6   11 1    
    14    7    8 ar   
    15    7   39 1    
    16    8    9 1    
    17    9   10 1    
    18   10   40 1    
    19   10   41 1    
    20   10   42 1    
    21   11   12 1    
    22   11   13 1    
    23   11   63 1    
    24   13   14 1    
    25   13   19 1    
    26   13   15 1    
    27   15   16 1    
    28   15   43 1    
    29   15   44 1    
    30   16   17 1    
    31   16   45 1    
    32   16   46 1    
    33   17   18 1    
    34   17   47 1    
    35   17   48 1    
    36   18   19 1    
    37   18   49 1    
    38   18   50 1    
    39   19   20 1    
    40   19   33 1    
    41   20   21 1    
    42   20   51 1    
    43   20   52 1    
    44   21   53 1    
    45   21   54 1    
    46   21   63 1    
    47   22   23 1    
    48   22   55 1    
    49   22   56 1    
    50   22   63 1    
    51   23   24 2    
    52   23   25 am   BACKBONE|DICT|INTERRES
    53   25   26 1    
    54   25   57 1    
    55   26   31 ar   
    56   26   27 ar   
    57   27   28 ar   
    58   27   58 1    
    59   28   29 ar   
    60   28   59 1    
    61   29   30 ar   
    62   29   32 1    
    63   30   31 ar   
    64   30   60 1    
    65   31   61 1    
    66   33   62 1    
    67   63   64 1    
@<TRIPOS>SUBSTRUCTURE
     1 UNK         1 GROUP             0       ****    0 ROOT    
