@<TRIPOS>MOLECULE
ZINC33492032_4493
63   66    1
SMALL
USER_CHARGES


@<TRIPOS>ATOM
      1 C1         -0.2464   48.5239   24.8980 C.3       1 UNK         0.0000 
      2 C2         -0.6280   49.8416   25.5957 C.3       1 UNK         0.0000 
      3 H3         -0.5990   49.6602   26.6751 H         1 UNK         0.0000 
      4 C4         -2.0450   50.2678   25.2109 C.ar      1 UNK         0.0000 
      5 C5         -2.2800   50.8367   23.9556 C.ar      1 UNK         0.0000 
      6 C6         -3.5573   51.2541   23.6107 C.ar      1 UNK         0.0000 
      7 C7         -4.6052   51.1056   24.5184 C.ar      1 UNK         0.0000 
      8 C8         -4.3793   50.5372   25.7723 C.ar      1 UNK         0.0000 
      9 C9         -3.0972   50.1177   26.1199 C.ar      1 UNK         0.0000 
     10 N10         0.3798   50.8674   25.3163 N.am      1 UNK         0.0000 
     11 C11         0.4563   52.0726   25.9059 C.2       1 UNK         0.0000 
     12 O12        -0.3507   52.4815   26.7437 O.2       1 UNK         0.0000 
     13 C13         1.6486   52.8982   25.4877 C.ar      1 UNK         0.0000 
     14 C14         1.9178   53.0192   24.1148 C.ar      1 UNK         0.0000 
     15 C15         2.9784   53.7871   23.6484 C.ar      1 UNK         0.0000 
     16 C16         3.7644   54.4962   24.5689 C.ar      1 UNK         0.0000 
     17 C17         3.4850   54.4183   25.9306 C.ar      1 UNK         0.0000 
     18 C18         2.4406   53.6210   26.4143 C.ar      1 UNK         0.0000 
     19 N19         2.2510   53.5859   27.8041 N.pl3     1 UNK         0.0000 
     20 C20         1.8493   54.7348   28.6144 C.3       1 UNK         0.0000 
     21 C21         1.8954   54.2902   30.0691 C.3       1 UNK         0.0000 
     22 C22         1.6029   52.8048   29.9827 C.3       1 UNK         0.0000 
     23 C23         2.2763   52.4018   28.6724 C.3       1 UNK         0.0000 
     24 N24         3.1839   53.8071   22.2562 N.am      1 UNK         0.0000 
     25 C25         4.3409   54.0025   21.5976 C.2       1 UNK         0.0000 
     26 O26         5.4267   54.2145   22.1396 O.2       1 UNK         0.0000 
     27 N27         4.1467   53.9001   20.2686 N.am      1 UNK         0.0000 
     28 C28         5.0784   54.0828   19.2280 C.ar      1 UNK         0.0000 
     29 C29         4.7359   53.5629   17.9758 C.ar      1 UNK         0.0000 
     30 C30         5.6085   53.6952   16.8958 C.ar      1 UNK         0.0000 
     31 C31         6.8280   54.3504   17.0576 C.ar      1 UNK         0.0000 
     32 C32         7.1809   54.8899   18.2983 C.ar      1 UNK         0.0000 
     33 C33         6.2972   54.7641   19.3767 C.ar      1 UNK         0.0000 
     34 C34         8.5225   55.5991   18.4588 C.3       1 UNK         0.0000 
     35 F35         8.5359   56.7003   17.7058 F         1 UNK         0.0000 
     36 F36         8.7453   55.9534   19.7253 F         1 UNK         0.0000 
     37 F37         9.5082   54.7901   18.0664 F         1 UNK         0.0000 
     38 H38        -0.9501   47.7294   25.1480 H         1 UNK         0.0000 
     39 H39        -0.2301   48.6303   23.8126 H         1 UNK         0.0000 
     40 H40         0.7401   48.1871   25.2155 H         1 UNK         0.0000 
     41 H41        -1.4682   50.9590   23.2540 H         1 UNK         0.0000 
     42 H42        -3.7145   51.6937   22.6408 H         1 UNK         0.0000 
     43 H43        -5.5994   51.4358   24.2505 H         1 UNK         0.0000 
     44 H44        -5.1909   50.4240   26.4760 H         1 UNK         0.0000 
     45 H45        -2.9176   49.6893   27.0960 H         1 UNK         0.0000 
     46 H46         1.1105   50.6017   24.6704 H         1 UNK         0.0000 
     47 H47         1.2948   52.5041   23.3924 H         1 UNK         0.0000 
     48 H48         4.5848   55.1189   24.2454 H         1 UNK         0.0000 
     49 H49         4.1031   54.9712   26.6220 H         1 UNK         0.0000 
     50 H50         2.5435   55.5593   28.4509 H         1 UNK         0.0000 
     51 H51         0.8524   55.0722   28.3289 H         1 UNK         0.0000 
     52 H52         2.8847   54.4871   30.4797 H         1 UNK         0.0000 
     53 H53         1.1673   54.8189   30.6850 H         1 UNK         0.0000 
     54 H54         0.5318   52.6009   29.9384 H         1 UNK         0.0000 
     55 H55         2.0004   52.2618   30.8409 H         1 UNK         0.0000 
     56 H56         1.7088   51.5828   28.2307 H         1 UNK         0.0000 
     57 H57         3.3001   52.0696   28.8513 H         1 UNK         0.0000 
     58 H58         2.3841   53.5561   21.6940 H         1 UNK         0.0000 
     59 H59         3.2248   53.6240   19.9617 H         1 UNK         0.0000 
     60 H60         3.8029   53.0350   17.8338 H         1 UNK         0.0000 
     61 H61         5.3444   53.2797   15.9366 H         1 UNK         0.0000 
     62 H62         7.5024   54.4422   16.2152 H         1 UNK         0.0000 
     63 H63         6.5701   55.2008   20.3216 H         1 UNK         0.0000 
@<TRIPOS>BOND
     1    1    2 1    
     2    1   38 1    
     3    1   39 1    
     4    1   40 1    
     5    2    3 1    
     6    2    4 1    
     7    2   10 1    
     8    4    9 ar   
     9    4    5 ar   
    10    5    6 ar   
    11    5   41 1    
    12    6    7 ar   
    13    6   42 1    
    14    7    8 ar   
    15    7   43 1    
    16    8    9 ar   
    17    8   44 1    
    18    9   45 1    
    19   10   11 am   BACKBONE|DICT|INTERRES
    20   10   46 1    
    21   11   12 2    
    22   11   13 1    
    23   13   18 ar   
    24   13   14 ar   
    25   14   15 ar   
    26   14   47 1    
    27   15   16 ar   
    28   15   24 1    
    29   16   17 ar   
    30   16   48 1    
    31   17   18 ar   
    32   17   49 1    
    33   18   19 1    
    34   19   23 1    
    35   19   20 1    
    36   20   21 1    
    37   20   50 1    
    38   20   51 1    
    39   21   22 1    
    40   21   52 1    
    41   21   53 1    
    42   22   23 1    
    43   22   54 1    
    44   22   55 1    
    45   23   56 1    
    46   23   57 1    
    47   24   25 am   BACKBONE|DICT|INTERRES
    48   24   58 1    
    49   25   26 2    
    50   25   27 am   BACKBONE|DICT|INTERRES
    51   27   28 1    
    52   27   59 1    
    53   28   33 ar   
    54   28   29 ar   
    55   29   30 ar   
    56   29   60 1    
    57   30   31 ar   
    58   30   61 1    
    59   31   32 ar   
    60   31   62 1    
    61   32   33 ar   
    62   32   34 1    
    63   33   63 1    
    64   34   35 1    
    65   34   36 1    
    66   34   37 1    
@<TRIPOS>SUBSTRUCTURE
     1 UNK         1 GROUP             0       ****    0 ROOT    
