@<TRIPOS>MOLECULE
ZINC50654115_4702
28   29    1
SMALL
USER_CHARGES


@<TRIPOS>ATOM
      1 C1          5.7188   54.1101   23.9711 C.ar      1 UNK         0.0000 
      2 C2          6.4277   54.2358   25.1622 C.ar      1 UNK         0.0000 
      3 C3          5.7530   54.3335   26.3808 C.ar      1 UNK         0.0000 
      4 C4          4.3434   54.3028   26.4274 C.ar      1 UNK         0.0000 
      5 C5          3.6541   54.2051   25.2125 C.ar      1 UNK         0.0000 
      6 C6          4.3277   54.0967   23.9966 C.ar      1 UNK         0.0000 
      7 Cl7         3.4389   53.9635   22.5246 Cl        1 UNK         0.0000 
      8 N8          3.5985   54.4967   27.5617 N.2       1 UNK         0.0000 
      9 S9          3.8178   53.6750   28.8748 S.o2      1 UNK         0.0000 
     10 O10         4.7044   52.5121   28.7728 O.2       1 UNK         0.0000 
     11 O11         3.9033   54.4967   30.0817 O.2       1 UNK         0.0000 
     12 C12         2.1882   52.9697   28.9589 C.ar      1 UNK         0.0000 
     13 C13         1.1714   53.6001   29.6817 C.ar      1 UNK         0.0000 
     14 C14        -0.1070   53.0410   29.6782 C.ar      1 UNK         0.0000 
     15 C15        -0.3540   51.8837   28.9364 C.ar      1 UNK         0.0000 
     16 N16         0.6530   51.3065   28.2602 N.pl3     1 UNK         0.0000 
     17 C17         1.9044   51.8014   28.2544 C.ar      1 UNK         0.0000 
     18 N18        -1.6248   51.2967   28.8821 N.pl3     1 UNK         0.0000 
     19 F19         6.4896   54.4965   27.5055 F         1 UNK         0.0000 
     20 H20         6.2475   54.0345   23.0320 H         1 UNK         0.0000 
     21 H21         7.5044   54.2653   25.1368 H         1 UNK         0.0000 
     22 H22         2.5737   54.2134   25.2105 H         1 UNK         0.0000 
     23 H23         1.3625   54.5141   30.2267 H         1 UNK         0.0000 
     24 H24        -0.8956   53.5117   30.2396 H         1 UNK         0.0000 
     25 H25         2.6436   51.2719   27.6817 H         1 UNK         0.0000 
     26 H26        -2.3833   51.6761   29.4249 H         1 UNK         0.0000 
     27 H27        -1.7175   50.3396   28.5381 H         1 UNK         0.0000 
     28 H28         0.4513   50.4628   27.7417 H         1 UNK         0.0000 
@<TRIPOS>BOND
     1    1    6 ar   
     2    1    2 ar   
     3    1   20 1    
     4    2    3 ar   
     5    2   21 1    
     6    3    4 ar   
     7    3   19 1    
     8    4    5 ar   
     9    4    8 1    
    10    5    6 ar   
    11    5   22 1    
    12    6    7 1    
    13    8    9 1    
    14    9   10 2    
    15    9   11 2    
    16    9   12 1    
    17   12   17 ar   
    18   12   13 ar   
    19   13   14 ar   
    20   13   23 1    
    21   14   15 ar   
    22   14   24 1    
    23   15   16 ar   
    24   15   18 1    
    25   16   17 ar   
    26   16   28 1    
    27   17   25 1    
    28   18   26 1    
    29   18   27 1    
@<TRIPOS>SUBSTRUCTURE
     1 UNK         1 GROUP             0       ****    0 ROOT    
