@<TRIPOS>MOLECULE
ZINC59271865_4349
52   55    1
SMALL
USER_CHARGES


@<TRIPOS>ATOM
      1 C1          6.9059   55.5620   20.7227 C.ar      1 UNK         0.0000 
      2 C2          6.0162   54.9958   19.8186 C.ar      1 UNK         0.0000 
      3 C3          5.0061   54.1555   20.2755 C.ar      1 UNK         0.0000 
      4 C4          4.8566   53.8652   21.6398 C.ar      1 UNK         0.0000 
      5 C5          5.7588   54.4543   22.5657 C.ar      1 UNK         0.0000 
      6 C6          6.7780   55.2968   22.0829 C.ar      1 UNK         0.0000 
      7 N7          5.5885   54.1888   23.9474 N.am      1 UNK         0.0000 
      8 C8          6.0602   54.8496   25.0308 C.2       1 UNK         0.0000 
      9 O9          6.9521   55.6967   25.0071 O.2       1 UNK         0.0000 
     10 C10         5.4204   54.4951   26.3539 C.ar      1 UNK         0.0000 
     11 C11         6.1021   54.7515   27.5488 C.ar      1 UNK         0.0000 
     12 C12         5.5026   54.4963   28.7785 C.ar      1 UNK         0.0000 
     13 C13         4.2302   53.9342   28.8444 C.ar      1 UNK         0.0000 
     14 C14         3.5344   53.6540   27.6620 C.ar      1 UNK         0.0000 
     15 C15         4.1247   53.9625   26.4352 C.ar      1 UNK         0.0000 
     16 N16         2.2467   53.0986   27.6029 N.am      1 UNK         0.0000 
     17 C17         1.5548   52.4269   28.5463 C.2       1 UNK         0.0000 
     18 O18         1.9410   52.1821   29.6909 O.2       1 UNK         0.0000 
     19 C19         0.2611   52.0069   28.0747 C.2       1 UNK         0.0000 
     20 C20        -0.2128   51.7199   26.7934 C.2       1 UNK         0.0000 
     21 C21        -1.5334   51.2969   26.9364 C.2       1 UNK         0.0000 
     22 C22        -1.8019   51.2968   28.2933 C.2       1 UNK         0.0000 
     23 O23        -0.7039   51.7028   28.9852 O.3       1 UNK         0.0000 
     24 Br24       -3.3626   50.8380   29.2790 Br        1 UNK         0.0000 
     25 N25         3.8261   53.0002   22.0143 N.pl3     1 UNK         0.0000 
     26 C26         2.8477   53.2672   23.0829 C.3       1 UNK         0.0000 
     27 C27         1.3767   53.1945   22.6313 C.3       1 UNK         0.0000 
     28 C28         1.0539   51.9357   21.8149 C.3       1 UNK         0.0000 
     29 C29         2.0960   51.7553   20.7032 C.3       1 UNK         0.0000 
     30 C30         3.5223   51.7567   21.2830 C.3       1 UNK         0.0000 
     31 H31         7.7041   56.1967   20.3667 H         1 UNK         0.0000 
     32 H32         6.1123   55.1992   18.7619 H         1 UNK         0.0000 
     33 H33         4.3259   53.7288   19.5522 H         1 UNK         0.0000 
     34 H34         7.5037   55.7484   22.7385 H         1 UNK         0.0000 
     35 H35         4.8885   53.4875   24.1327 H         1 UNK         0.0000 
     36 H36         7.0938   55.1827   27.5433 H         1 UNK         0.0000 
     37 H37         6.0316   54.7498   29.6816 H         1 UNK         0.0000 
     38 H38         3.7984   53.7436   29.8137 H         1 UNK         0.0000 
     39 H39         3.5560   53.7821   25.5425 H         1 UNK         0.0000 
     40 H40         1.7913   53.1837   26.7088 H         1 UNK         0.0000 
     41 H41         0.3293   51.8023   25.8629 H         1 UNK         0.0000 
     42 H42        -2.2106   50.9960   26.1512 H         1 UNK         0.0000 
     43 H43         3.0123   52.5533   23.8890 H         1 UNK         0.0000 
     44 H44         3.0181   54.2701   23.4757 H         1 UNK         0.0000 
     45 H45         0.7345   53.2257   23.5119 H         1 UNK         0.0000 
     46 H46         1.1212   54.0972   22.0819 H         1 UNK         0.0000 
     47 H47         0.0514   52.0036   21.3909 H         1 UNK         0.0000 
     48 H48         1.0595   51.0609   22.4674 H         1 UNK         0.0000 
     49 H49         2.0004   52.5398   19.9504 H         1 UNK         0.0000 
     50 H50         1.9184   50.8174   20.1759 H         1 UNK         0.0000 
     51 H51         4.2546   51.5688   20.4960 H         1 UNK         0.0000 
     52 H52         3.6248   50.9291   21.9861 H         1 UNK         0.0000 
@<TRIPOS>BOND
     1    1    6 ar   
     2    1    2 ar   
     3    1   31 1    
     4    2    3 ar   
     5    2   32 1    
     6    3    4 ar   
     7    3   33 1    
     8    4    5 ar   
     9    4   25 1    
    10    5    6 ar   
    11    5    7 1    
    12    6   34 1    
    13    7    8 am   BACKBONE|DICT|INTERRES
    14    7   35 1    
    15    8    9 2    
    16    8   10 1    
    17   10   15 ar   
    18   10   11 ar   
    19   11   12 ar   
    20   11   36 1    
    21   12   13 ar   
    22   12   37 1    
    23   13   14 ar   
    24   13   38 1    
    25   14   15 ar   
    26   14   16 1    
    27   15   39 1    
    28   16   17 am   BACKBONE|DICT|INTERRES
    29   16   40 1    
    30   17   18 2    
    31   17   19 1    
    32   19   23 1    
    33   19   20 2    
    34   20   21 1    
    35   20   41 1    
    36   21   22 2    
    37   21   42 1    
    38   22   23 1    
    39   22   24 1    
    40   25   30 1    
    41   25   26 1    
    42   26   27 1    
    43   26   43 1    
    44   26   44 1    
    45   27   28 1    
    46   27   45 1    
    47   27   46 1    
    48   28   29 1    
    49   28   47 1    
    50   28   48 1    
    51   29   30 1    
    52   29   49 1    
    53   29   50 1    
    54   30   51 1    
    55   30   52 1    
@<TRIPOS>SUBSTRUCTURE
     1 UNK         1 GROUP             0       ****    0 ROOT    
