@<TRIPOS>MOLECULE
ZINC13166758_1961
52   54    1
SMALL
USER_CHARGES


@<TRIPOS>ATOM
      1 C1          2.3489   51.4321   29.2380 C.3       1 UNK         0.0000 
      2 N2          1.6744   52.4300   28.3989 N.pl3     1 UNK         0.0000 
      3 C3          1.0064   51.9449   27.1462 C.3       1 UNK         0.0000 
      4 C4         -0.5068   52.2260   27.2591 C.3       1 UNK         0.0000 
      5 C5         -1.2334   51.6085   26.0452 C.3       1 UNK         0.0000 
      6 C6         -0.6453   52.1112   24.7019 C.3       1 UNK         0.0000 
      7 C7          0.8945   51.9732   24.6265 C.3       1 UNK         0.0000 
      8 C8          1.5653   52.6039   25.8625 C.3       1 UNK         0.0000 
      9 S9          2.1996   54.1008   28.6402 S.o2      1 UNK         0.0000 
     10 O10         2.3029   54.3221   30.0834 O.2       1 UNK         0.0000 
     11 O11         1.3505   54.9698   27.8360 O.2       1 UNK         0.0000 
     12 C12         3.8780   54.1611   28.0100 C.ar      1 UNK         0.0000 
     13 C13         4.9209   53.8451   28.8814 C.ar      1 UNK         0.0000 
     14 C14         6.2419   53.8848   28.4466 C.ar      1 UNK         0.0000 
     15 C15         6.5251   54.2155   27.1274 C.ar      1 UNK         0.0000 
     16 C16         5.4902   54.5065   26.2332 C.ar      1 UNK         0.0000 
     17 C17         4.1638   54.4956   26.6842 C.ar      1 UNK         0.0000 
     18 C18         5.8312   54.8558   24.8170 C.2       1 UNK         0.0000 
     19 O19         6.7042   55.6936   24.6032 O.2       1 UNK         0.0000 
     20 N20         5.1400   54.1697   23.8807 N.am      1 UNK         0.0000 
     21 C21         5.2202   54.2529   22.4777 C.ar      1 UNK         0.0000 
     22 C22         6.2555   54.8982   21.7856 C.ar      1 UNK         0.0000 
     23 C23         6.2316   54.9598   20.3948 C.ar      1 UNK         0.0000 
     24 C24         5.1856   54.3732   19.6691 C.ar      1 UNK         0.0000 
     25 C25         4.1676   53.7100   20.3701 C.ar      1 UNK         0.0000 
     26 C26         4.1852   53.6495   21.7617 C.ar      1 UNK         0.0000 
     27 C27         5.1485   54.4651   18.1702 C.2       1 UNK         0.0000 
     28 O28         6.1585   54.9304   17.5891 O.co2     1 UNK         0.0000 
     29 O29         4.1080   54.0905   17.5834 O.co2     1 UNK         0.0000 
     30 H30         1.8077   50.4970   29.1851 H         1 UNK         0.0000 
     31 H31         3.3666   51.2952   28.8801 H         1 UNK         0.0000 
     32 H32         2.3944   51.7776   30.2685 H         1 UNK         0.0000 
     33 H33         1.1177   50.8638   27.0519 H         1 UNK         0.0000 
     34 H34        -0.9026   51.7961   28.1805 H         1 UNK         0.0000 
     35 H35        -0.7030   53.2959   27.3100 H         1 UNK         0.0000 
     36 H36        -1.1547   50.5211   26.0909 H         1 UNK         0.0000 
     37 H37        -2.2983   51.8375   26.0931 H         1 UNK         0.0000 
     38 H38        -1.1063   51.5757   23.8715 H         1 UNK         0.0000 
     39 H39        -0.9144   53.1612   24.5667 H         1 UNK         0.0000 
     40 H40         1.1653   50.9188   24.5461 H         1 UNK         0.0000 
     41 H41         1.2648   52.4483   23.7178 H         1 UNK         0.0000 
     42 H42         1.3595   53.6705   25.8320 H         1 UNK         0.0000 
     43 H43         2.6494   52.4992   25.8027 H         1 UNK         0.0000 
     44 H44         4.7039   53.5847   29.9051 H         1 UNK         0.0000 
     45 H45         7.0527   53.6789   29.1320 H         1 UNK         0.0000 
     46 H46         7.5544   54.2343   26.8067 H         1 UNK         0.0000 
     47 H47         3.3552   54.7592   26.0163 H         1 UNK         0.0000 
     48 H48         4.4494   53.5237   24.2265 H         1 UNK         0.0000 
     49 H49         7.0926   55.3488   22.2948 H         1 UNK         0.0000 
     50 H50         7.0361   55.4689   19.8804 H         1 UNK         0.0000 
     51 H51         3.3477   53.2516   19.8373 H         1 UNK         0.0000 
     52 H52         3.3816   53.1384   22.2708 H         1 UNK         0.0000 
@<TRIPOS>BOND
     1    1    2 1    
     2    1   30 1    
     3    1   31 1    
     4    1   32 1    
     5    2    3 1    
     6    2    9 1    
     7    3    8 1    
     8    3    4 1    
     9    3   33 1    
    10    4    5 1    
    11    4   34 1    
    12    4   35 1    
    13    5    6 1    
    14    5   36 1    
    15    5   37 1    
    16    6    7 1    
    17    6   38 1    
    18    6   39 1    
    19    7    8 1    
    20    7   40 1    
    21    7   41 1    
    22    8   42 1    
    23    8   43 1    
    24    9   10 2    
    25    9   11 2    
    26    9   12 1    
    27   12   17 ar   
    28   12   13 ar   
    29   13   14 ar   
    30   13   44 1    
    31   14   15 ar   
    32   14   45 1    
    33   15   16 ar   
    34   15   46 1    
    35   16   17 ar   
    36   16   18 1    
    37   17   47 1    
    38   18   19 2    
    39   18   20 am   BACKBONE|DICT|INTERRES
    40   20   21 1    
    41   20   48 1    
    42   21   26 ar   
    43   21   22 ar   
    44   22   23 ar   
    45   22   49 1    
    46   23   24 ar   
    47   23   50 1    
    48   24   25 ar   
    49   24   27 1    
    50   25   26 ar   
    51   25   51 1    
    52   26   52 1    
    53   27   28 2    
    54   27   29 1    
@<TRIPOS>SUBSTRUCTURE
     1 UNK         1 GROUP             0       ****    0 ROOT    
