@<TRIPOS>MOLECULE
ZINC22635342_5529
74   77    1
SMALL
USER_CHARGES


@<TRIPOS>ATOM
      1 C1          6.2620   55.9036   17.1212 C.3       1 UNK         0.0000 
      2 C2          6.6799   54.4909   17.6041 C.3       1 UNK         0.0000 
      3 C3          6.2401   53.4566   16.5342 C.3       1 UNK         0.0000 
      4 C4          8.2292   54.4422   17.6714 C.3       1 UNK         0.0000 
      5 C5          6.0498   54.1247   19.0027 C.3       1 UNK         0.0000 
      6 H6          6.3211   53.0809   19.1810 H         1 UNK         0.0000 
      7 C7          4.5043   54.2178   19.0486 C.3       1 UNK         0.0000 
      8 C8          3.9212   53.5106   20.2885 C.3       1 UNK         0.0000 
      9 C9          4.6513   53.9594   21.5689 C.2       1 UNK         0.0000 
     10 C10         5.9043   54.5865   21.4689 C.2       1 UNK         0.0000 
     11 S11         6.6296   54.8965   22.9983 S.3       1 UNK         0.0000 
     12 C12         5.2186   54.3010   23.8224 C.2       1 UNK         0.0000 
     13 C13         4.2015   53.8765   22.9286 C.2       1 UNK         0.0000 
     14 C14         2.8699   53.4569   23.3962 C.2       1 UNK         0.0000 
     15 O15         2.5193   53.6687   24.5601 O.2       1 UNK         0.0000 
     16 N16         2.0975   52.8275   22.4873 N.am      1 UNK         0.0000 
     17 C17         0.7678   52.3754   22.5766 C.ar      1 UNK         0.0000 
     18 C18        -0.0623   52.5348   23.6989 C.ar      1 UNK         0.0000 
     19 C19        -1.3736   52.0685   23.6666 C.ar      1 UNK         0.0000 
     20 C20        -1.8602   51.4446   22.5207 C.ar      1 UNK         0.0000 
     21 C21        -1.0432   51.2787   21.4049 C.ar      1 UNK         0.0000 
     22 C22         0.2689   51.7442   21.4339 C.ar      1 UNK         0.0000 
     23 Cl23       -3.4865   50.8680   22.4851 Cl        1 UNK         0.0000 
     24 N24         5.1417   54.2456   25.2141 N.am      1 UNK         0.0000 
     25 C25         6.0241   54.6297   26.1642 C.2       1 UNK         0.0000 
     26 O26         7.0996   55.1767   25.9350 O.2       1 UNK         0.0000 
     27 C27         5.6595   54.3746   27.6451 C.3       1 UNK         0.0000 
     28 N28         4.3177   53.6055   27.8362 N.4       1 UNK         0.0000 
     29 C29         4.2517   52.9461   29.2333 C.3       1 UNK         0.0000 
     30 C30         2.9378   52.1426   29.3498 C.3       1 UNK         0.0000 
     31 N31         1.7620   52.9849   29.0968 N.3       1 UNK         0.0000 
     32 C32         1.8141   53.6772   27.8029 C.3       1 UNK         0.0000 
     33 C33         3.0882   54.5391   27.7000 C.3       1 UNK         0.0000 
     34 C34         0.5378   52.1803   29.2420 C.3       1 UNK         0.0000 
     35 C35        -0.3115   52.6189   30.4448 C.3       1 UNK         0.0000 
     36 O36         0.3045   52.3289   31.6817 O.3       1 UNK         0.0000 
     37 C37         6.6001   54.9879   20.1735 C.3       1 UNK         0.0000 
     38 H38         6.5687   56.6832   17.8188 H         1 UNK         0.0000 
     39 H39         6.7165   56.1455   16.1595 H         1 UNK         0.0000 
     40 H40         5.1838   55.9887   16.9880 H         1 UNK         0.0000 
     41 H41         6.4410   52.4344   16.8596 H         1 UNK         0.0000 
     42 H42         5.1773   53.5200   16.3022 H         1 UNK         0.0000 
     43 H43         6.7668   53.6034   15.5899 H         1 UNK         0.0000 
     44 H44         8.5849   53.4952   18.0793 H         1 UNK         0.0000 
     45 H45         8.6796   54.5563   16.6844 H         1 UNK         0.0000 
     46 H46         8.6435   55.2417   18.2857 H         1 UNK         0.0000 
     47 H47         4.1612   55.2501   18.9569 H         1 UNK         0.0000 
     48 H48         4.0736   53.7151   18.1839 H         1 UNK         0.0000 
     49 H49         4.0357   52.4311   20.1698 H         1 UNK         0.0000 
     50 H50         2.8519   53.6965   20.2983 H         1 UNK         0.0000 
     51 H51         2.5185   52.6910   21.5804 H         1 UNK         0.0000 
     52 H52         0.2714   53.0184   24.6017 H         1 UNK         0.0000 
     53 H53        -2.0113   52.1915   24.5304 H         1 UNK         0.0000 
     54 H54        -1.4239   50.7889   20.5204 H         1 UNK         0.0000 
     55 H55         0.8896   51.6104   20.5592 H         1 UNK         0.0000 
     56 H56         4.2596   53.8699   25.5305 H         1 UNK         0.0000 
     57 H57         6.4397   53.7518   28.0868 H         1 UNK         0.0000 
     58 H58         5.6058   55.2957   28.2281 H         1 UNK         0.0000 
     59 H59         5.1044   52.2692   29.2979 H         1 UNK         0.0000 
     60 H60         4.3238   53.7342   29.9857 H         1 UNK         0.0000 
     61 H61         2.9469   51.3549   28.5937 H         1 UNK         0.0000 
     62 H62         2.8740   51.6974   30.3432 H         1 UNK         0.0000 
     63 H63         0.9394   54.3186   27.6823 H         1 UNK         0.0000 
     64 H64         1.8232   52.9285   27.0073 H         1 UNK         0.0000 
     65 H65         3.1469   55.3032   28.4788 H         1 UNK         0.0000 
     66 H66         3.1305   55.0209   26.7246 H         1 UNK         0.0000 
     67 H67        -0.0968   52.3450   28.3691 H         1 UNK         0.0000 
     68 H68         0.6659   51.0965   29.2158 H         1 UNK         0.0000 
     69 H69        -0.5349   53.6839   30.3888 H         1 UNK         0.0000 
     70 H70        -1.2657   52.0931   30.4137 H         1 UNK         0.0000 
     71 H71        -0.4024   52.0967   32.3245 H         1 UNK         0.0000 
     72 H72         6.4083   56.0459   19.9912 H         1 UNK         0.0000 
     73 H73         7.6807   54.8948   20.2813 H         1 UNK         0.0000 
     74 H74         4.2708   52.8641   27.1463 H         1 UNK         0.0000 
@<TRIPOS>BOND
     1    1    2 1    
     2    1   38 1    
     3    1   39 1    
     4    1   40 1    
     5    2    3 1    
     6    2    4 1    
     7    2    5 1    
     8    3   41 1    
     9    3   42 1    
    10    3   43 1    
    11    4   44 1    
    12    4   45 1    
    13    4   46 1    
    14    5    6 1    
    15    5   37 1    
    16    5    7 1    
    17    7    8 1    
    18    7   47 1    
    19    7   48 1    
    20    8    9 1    
    21    8   49 1    
    22    8   50 1    
    23    9   13 1    
    24    9   10 2    
    25   10   11 1    
    26   10   37 1    
    27   11   12 1    
    28   12   13 2    
    29   12   24 am   BACKBONE|DICT|INTERRES
    30   13   14 1    
    31   14   15 2    
    32   14   16 am   BACKBONE|DICT|INTERRES
    33   16   17 1    
    34   16   51 1    
    35   17   22 ar   
    36   17   18 ar   
    37   18   19 ar   
    38   18   52 1    
    39   19   20 ar   
    40   19   53 1    
    41   20   21 ar   
    42   20   23 1    
    43   21   22 ar   
    44   21   54 1    
    45   22   55 1    
    46   24   25 am   BACKBONE|DICT|INTERRES
    47   24   56 1    
    48   25   26 2    
    49   25   27 1    
    50   27   28 1    
    51   27   57 1    
    52   27   58 1    
    53   28   33 1    
    54   28   29 1    
    55   28   74 1    
    56   29   30 1    
    57   29   59 1    
    58   29   60 1    
    59   30   31 1    
    60   30   61 1    
    61   30   62 1    
    62   31   32 1    
    63   31   34 1    
    64   32   33 1    
    65   32   63 1    
    66   32   64 1    
    67   33   65 1    
    68   33   66 1    
    69   34   35 1    
    70   34   67 1    
    71   34   68 1    
    72   35   36 1    
    73   35   69 1    
    74   35   70 1    
    75   36   71 1    
    76   37   72 1    
    77   37   73 1    
@<TRIPOS>SUBSTRUCTURE
     1 UNK         1 GROUP             0       ****    0 ROOT    
