ZINC31056713_5091
                    3D
 Schrodinger Suite 2024-2.
 67 71  0  0  1  0            999 V2000
    1.6682   51.0126   27.8985 C   0  0  0  0  0  0
    0.3613   51.6435   28.4106 C   0  0  1  0  0  0
    0.0176   50.9773   29.2064 H   0  0  0  0  0  0
    0.5838   53.0276   29.0301 C   0  0  0  0  0  0
    0.1893   53.2629   30.3511 C   0  0  0  0  0  0
    0.4387   54.4962   30.9450 C   0  0  0  0  0  0
    1.1044   55.4907   30.2315 C   0  0  0  0  0  0
    1.5064   55.2683   28.9201 C   0  0  0  0  0  0
    1.2465   54.0383   28.3192 C   0  0  0  0  0  0
   -0.7445   51.5930   27.4528 N   0  0  0  0  0  0
   -0.7785   52.0376   26.1835 C   0  0  0  0  0  0
    0.2025   52.4829   25.5859 O   0  0  0  0  0  0
   -2.1249   51.9232   25.4949 C   0  0  0  0  0  0
   -3.2872   52.1874   26.2421 C   0  0  0  0  0  0
   -4.5515   52.0890   25.6741 C   0  0  0  0  0  0
   -4.6844   51.7103   24.3461 C   0  0  0  0  0  0
   -3.5506   51.4445   23.5832 C   0  0  0  0  0  0
   -2.2622   51.5649   24.1294 C   0  0  0  0  0  0
   -1.1176   51.2530   23.3587 N   0  0  0  0  0  0
   -0.9629   51.2976   22.0165 C   0  0  0  0  0  0
   -1.7920   51.7802   21.2394 O   0  0  0  0  0  0
    0.3529   50.7115   21.4566 C   0  0  1  0  0  0
    1.0480   50.6495   22.2978 H   0  0  0  0  0  0
    0.0593   49.2844   20.9136 C   0  0  0  0  0  0
    1.3233   48.6857   20.2605 C   0  0  0  0  0  0
    1.9049   49.5931   19.1577 C   0  0  0  0  0  0
    2.1970   50.9777   19.7846 N   0  3  2  0  0  0
    0.9228   51.6465   20.3621 C   0  0  0  0  0  0
    2.9039   51.9231   18.7777 C   0  0  0  0  0  0
    3.7751   52.8992   19.5461 C   0  0  0  0  0  0
    3.9527   52.9794   20.8385 N   0  0  0  0  0  0
    4.8344   53.9498   20.9376 C   0  0  0  0  0  0
    5.2240   54.4996   19.8043 N   0  0  0  0  0  0
    4.5065   53.7925   18.8407 O   0  0  0  0  0  0
    5.3517   54.3567   22.2357 C   0  0  0  0  0  0
    4.8331   54.0854   23.5040 C   0  0  0  0  0  0
    5.6010   54.6010   24.5509 C   0  0  0  0  0  0
    6.7042   55.2961   24.0914 C   0  0  0  0  0  0
    6.8088   55.2954   22.3638 S   0  0  0  0  0  0
    2.3063   50.7292   28.7344 H   0  0  0  0  0  0
    1.4811   50.1169   27.2990 H   0  0  0  0  0  0
    2.2339   51.7077   27.2799 H   0  0  0  0  0  0
   -0.3114   52.4963   30.9274 H   0  0  0  0  0  0
    0.1335   54.6698   31.9654 H   0  0  0  0  0  0
    1.3051   56.4454   30.6995 H   0  0  0  0  0  0
    2.0121   56.0448   28.3634 H   0  0  0  0  0  0
    1.5600   53.8777   27.2997 H   0  0  0  0  0  0
   -1.5797   51.1386   27.7979 H   0  0  0  0  0  0
   -3.2239   52.4788   27.2813 H   0  0  0  0  0  0
   -5.4288   52.2960   26.2692 H   0  0  0  0  0  0
   -5.6636   51.6163   23.9056 H   0  0  0  0  0  0
   -3.7007   51.1234   22.5652 H   0  0  0  0  0  0
   -0.2936   51.0584   23.9078 H   0  0  0  0  0  0
   -0.2424   48.6024   21.7136 H   0  0  0  0  0  0
   -0.6910   49.3148   20.1185 H   0  0  0  0  0  0
    2.0865   48.5053   21.0207 H   0  0  0  0  0  0
    1.0901   47.7083   19.8336 H   0  0  0  0  0  0
    2.8616   49.1955   18.8068 H   0  0  0  0  0  0
    1.2326   49.7437   18.3086 H   0  0  0  0  0  0
    0.2488   51.7875   19.5131 H   0  0  0  0  0  0
    1.2251   52.6121   20.7785 H   0  0  0  0  0  0
    3.5025   51.2969   18.1169 H   0  0  0  0  0  0
    2.1299   52.3980   18.1745 H   0  0  0  0  0  0
    3.9285   53.5177   23.6630 H   0  0  0  0  0  0
    5.3564   54.4754   25.5962 H   0  0  0  0  0  0
    7.4679   55.8063   24.6594 H   0  0  0  0  0  0
    2.8560   50.8271   20.5410 H   0  0  0  0  0  0
  1  2  1  0  0  0
  1 40  1  0  0  0
  1 41  1  0  0  0
  1 42  1  0  0  0
  2  3  1  0  0  0
  2  4  1  0  0  0
  2 10  1  0  0  0
  4  9  2  0  0  0
  4  5  1  0  0  0
  5  6  2  0  0  0
  5 43  1  0  0  0
  6  7  1  0  0  0
  6 44  1  0  0  0
  7  8  2  0  0  0
  7 45  1  0  0  0
  8  9  1  0  0  0
  8 46  1  0  0  0
  9 47  1  0  0  0
 10 11  1  0  0  0
 10 48  1  0  0  0
 11 12  2  0  0  0
 11 13  1  0  0  0
 13 18  2  0  0  0
 13 14  1  0  0  0
 14 15  2  0  0  0
 14 49  1  0  0  0
 15 16  1  0  0  0
 15 50  1  0  0  0
 16 17  2  0  0  0
 16 51  1  0  0  0
 17 18  1  0  0  0
 17 52  1  0  0  0
 18 19  1  0  0  0
 19 20  1  0  0  0
 19 53  1  0  0  0
 20 21  2  0  0  0
 20 22  1  0  0  0
 22 23  1  0  0  0
 22 28  1  0  0  0
 22 24  1  0  0  0
 24 25  1  0  0  0
 24 54  1  0  0  0
 24 55  1  0  0  0
 25 26  1  0  0  0
 25 56  1  0  0  0
 25 57  1  0  0  0
 26 27  1  0  0  0
 26 58  1  0  0  0
 26 59  1  0  0  0
 27 28  1  0  0  0
 27 29  1  0  0  0
 27 67  1  0  0  0
 28 60  1  0  0  0
 28 61  1  0  0  0
 29 30  1  0  0  0
 29 62  1  0  0  0
 29 63  1  0  0  0
 30 34  1  0  0  0
 30 31  2  0  0  0
 31 32  1  0  0  0
 32 33  2  0  0  0
 32 35  1  0  0  0
 33 34  1  0  0  0
 35 39  1  0  0  0
 35 36  2  0  0  0
 36 37  1  0  0  0
 36 64  1  0  0  0
 37 38  2  0  0  0
 37 65  1  0  0  0
 38 39  1  0  0  0
 38 66  1  0  0  0
M  CHG  1  27   1
M  END
> <i_i_glide_confnum>
100

> <i_i_glide_lignum>
5092

> <i_i_glide_posenum>
125

> <i_i_glide_rotatable_bonds>
10

> <i_m_Source_File_Index>
4484

> <b_m_subgroup_collapsed>
0

> <r_i_docking_score>
-5.28954

> <r_i_glide_ecoul>
-4.79444

> <r_i_glide_eff_state_penalty>
0

> <r_i_glide_einternal>
5.1332

> <r_i_glide_emodel>
-71.5536

> <r_i_glide_energy>
-52.8754

> <r_i_glide_erotb>
0.692143

> <r_i_glide_esite>
-0.13483

> <r_i_glide_evdw>
-48.0809

> <r_i_glide_gscore>
-5.28954

> <r_i_glide_hbond>
0

> <r_i_glide_ligand_efficiency>
-0.14296

> <r_i_glide_ligand_efficiency_ln>
-1.14718

> <r_i_glide_ligand_efficiency_sa>
-0.476376

> <r_i_glide_lipo>
-2.53494

> <r_i_glide_metal>
0

> <r_i_glide_rewards>
-0.188701

> <s_i_glide_gridfile>
wee1_glide-grid

> <s_m_Source_File>
wee1_decoys_glide_SP.sdf

> <s_m_Source_Path>
/Users/zhangxujun/Desktop

> <s_m_entry_id>
4759

> <s_m_entry_name>
wee1_decoys_glide_SP.4484

> <s_m_subgroup_title>
wee1_decoys_glide_SP

> <s_m_subgroupid>
wee1_decoys_glide_SP


$$$$
