@<TRIPOS>MOLECULE
ZINC09346028_5677
69   71    1
SMALL
USER_CHARGES


@<TRIPOS>ATOM
      1 C1          6.0987   54.1113   22.5225 C.3       1 UNK         0.0000 
      2 C2          5.0484   53.9108   21.4135 C.3       1 UNK         0.0000 
      3 O3          4.0142   53.0188   21.8191 O.3       1 UNK         0.0000 
      4 C4          3.0273   53.4195   22.6617 C.2       1 UNK         0.0000 
      5 O5          2.9105   54.5519   23.1193 O.2       1 UNK         0.0000 
      6 C6          2.1464   52.3136   23.0395 C.2       1 UNK         0.0000 
      7 C7          1.6023   52.0997   24.3519 C.2       1 UNK         0.0000 
      8 C8          0.7706   50.9723   24.3638 C.2       1 UNK         0.0000 
      9 S9          0.7324   50.0897   22.8880 S.3       1 UNK         0.0000 
     10 C10         1.7034   51.3161   22.1417 C.2       1 UNK         0.0000 
     11 N11         2.0142   51.1974   20.7834 N.pl3     1 UNK         0.0000 
     12 C12         1.1549   51.4212   19.7346 C.2       1 UNK         0.0000 
     13 S13        -0.5066   51.6948   19.9124 S.2       1 UNK         0.0000 
     14 N14         1.8380   51.4130   18.5370 N.am      1 UNK         0.0000 
     15 C15         1.5170   51.8994   17.3058 C.2       1 UNK         0.0000 
     16 O16         0.4976   52.5390   17.0391 O.2       1 UNK         0.0000 
     17 C17         2.5019   51.6615   16.1504 C.3       1 UNK         0.0000 
     18 C18         4.1886   53.6190   16.4787 C.3       1 UNK         0.0000 
     19 C19         3.7123   54.2735   17.7986 C.3       1 UNK         0.0000 
     20 C20         4.0852   55.7536   18.0168 C.3       1 UNK         0.0000 
     21 C21         5.5799   56.0032   18.2805 C.3       1 UNK         0.0000 
     22 C22         6.4684   56.1323   17.0291 C.3       1 UNK         0.0000 
     23 C23         6.1142   55.2454   15.8181 C.3       1 UNK         0.0000 
     24 C24         5.6876   53.7946   16.1309 C.3       1 UNK         0.0000 
     25 C25         1.8631   52.8788   25.6353 C.ar      1 UNK         0.0000 
     26 C26         0.8905   52.8966   26.6434 C.ar      1 UNK         0.0000 
     27 C27         1.1047   53.5727   27.8439 C.ar      1 UNK         0.0000 
     28 C28         2.3203   54.2279   28.0871 C.ar      1 UNK         0.0000 
     29 C29         3.3386   54.1526   27.1284 C.ar      1 UNK         0.0000 
     30 C30         3.0922   53.4941   25.9106 C.ar      1 UNK         0.0000 
     31 O31         4.5460   54.7485   27.4481 O.3       1 UNK         0.0000 
     32 C32         5.6156   54.7333   26.5124 C.3       1 UNK         0.0000 
     33 O33         2.5806   54.9456   29.2406 O.3       1 UNK         0.0000 
     34 C34         1.5065   55.2754   30.1130 C.3       1 UNK         0.0000 
     35 H35         6.9447   54.6999   22.1611 H         1 UNK         0.0000 
     36 H36         5.6743   54.6417   23.3760 H         1 UNK         0.0000 
     37 H37         6.4857   53.1539   22.8819 H         1 UNK         0.0000 
     38 H38         5.5319   53.4757   20.5391 H         1 UNK         0.0000 
     39 H39         4.6349   54.8725   21.0958 H         1 UNK         0.0000 
     40 H40         0.2437   50.5599   25.2112 H         1 UNK         0.0000 
     41 H41         2.9966   51.2960   20.5755 H         1 UNK         0.0000 
     42 H42         2.7153   50.9149   18.5619 H         1 UNK         0.0000 
     43 H43         2.2151   52.1760   15.2338 H         1 UNK         0.0000 
     44 H44         2.5765   50.5936   15.9407 H         1 UNK         0.0000 
     45 H45         3.5951   54.0081   15.6468 H         1 UNK         0.0000 
     46 H46         4.0734   53.6914   18.6465 H         1 UNK         0.0000 
     47 H47         2.6280   54.2279   17.8614 H         1 UNK         0.0000 
     48 H48         3.5213   56.0984   18.8816 H         1 UNK         0.0000 
     49 H49         3.7324   56.3657   17.1857 H         1 UNK         0.0000 
     50 H50         5.9714   55.2091   18.9158 H         1 UNK         0.0000 
     51 H51         5.6869   56.9150   18.8691 H         1 UNK         0.0000 
     52 H52         7.5015   55.9390   17.3201 H         1 UNK         0.0000 
     53 H53         6.4577   57.1722   16.6965 H         1 UNK         0.0000 
     54 H54         6.9812   55.2212   15.1556 H         1 UNK         0.0000 
     55 H55         5.3312   55.7295   15.2325 H         1 UNK         0.0000 
     56 H56         5.9193   53.1846   15.2567 H         1 UNK         0.0000 
     57 H57         6.3136   53.3879   16.9271 H         1 UNK         0.0000 
     58 H58        -0.0666   52.4198   26.4953 H         1 UNK         0.0000 
     59 H59         0.3089   53.5829   28.5706 H         1 UNK         0.0000 
     60 H60         3.8857   53.4150   25.1882 H         1 UNK         0.0000 
     61 H61         6.4801   55.2317   26.9526 H         1 UNK         0.0000 
     62 H62         5.9155   53.7162   26.2573 H         1 UNK         0.0000 
     63 H63         5.3487   55.2716   25.6030 H         1 UNK         0.0000 
     64 H64         1.8692   55.9575   30.8815 H         1 UNK         0.0000 
     65 H65         0.7048   55.7870   29.5831 H         1 UNK         0.0000 
     66 H66         1.1068   54.3906   30.6099 H         1 UNK         0.0000 
     67 N67         3.8995   52.0971   16.4838 N.4       1 UNK         0.0000 
     68 H68         4.4903   51.7181   15.7589 H         1 UNK         0.0000 
     69 H69         4.2607   51.6453   17.3233 H         1 UNK         0.0000 
@<TRIPOS>BOND
     1    1    2 1    
     2    1   35 1    
     3    1   36 1    
     4    1   37 1    
     5    2    3 1    
     6    2   38 1    
     7    2   39 1    
     8    3    4 1    
     9    4    5 2    
    10    4    6 1    
    11    6   10 2    
    12    6    7 1    
    13    7    8 2    
    14    7   25 1    
    15    8    9 1    
    16    8   40 1    
    17    9   10 1    
    18   10   11 1    
    19   11   12 1    
    20   11   41 1    
    21   12   13 2    
    22   12   14 am   BACKBONE|DICT|INTERRES
    23   14   15 am   BACKBONE|DICT|INTERRES
    24   14   42 1    
    25   15   16 2    
    26   15   17 1    
    27   17   43 1    
    28   17   44 1    
    29   17   67 1    
    30   18   24 1    
    31   18   19 1    
    32   18   45 1    
    33   18   67 1    
    34   19   20 1    
    35   19   46 1    
    36   19   47 1    
    37   20   21 1    
    38   20   48 1    
    39   20   49 1    
    40   21   22 1    
    41   21   50 1    
    42   21   51 1    
    43   22   23 1    
    44   22   52 1    
    45   22   53 1    
    46   23   24 1    
    47   23   54 1    
    48   23   55 1    
    49   24   56 1    
    50   24   57 1    
    51   25   30 ar   
    52   25   26 ar   
    53   26   27 ar   
    54   26   58 1    
    55   27   28 ar   
    56   27   59 1    
    57   28   29 ar   
    58   28   33 1    
    59   29   30 ar   
    60   29   31 1    
    61   30   60 1    
    62   31   32 1    
    63   32   61 1    
    64   32   62 1    
    65   32   63 1    
    66   33   34 1    
    67   34   64 1    
    68   34   65 1    
    69   34   66 1    
    70   67   68 1    
    71   67   69 1    
@<TRIPOS>SUBSTRUCTURE
     1 UNK         1 GROUP             0       ****    0 ROOT    
