@<TRIPOS>MOLECULE
ZINC12694707_2804
55   59    1
SMALL
USER_CHARGES


@<TRIPOS>ATOM
      1 C1          8.4355   57.3544   17.9504 C.ar      1 UNK         0.0000 
      2 C2          7.0469   57.4526   17.9612 C.ar      1 UNK         0.0000 
      3 C3          6.3151   56.7441   18.9106 C.ar      1 UNK         0.0000 
      4 C4          6.9779   55.9563   19.8613 C.ar      1 UNK         0.0000 
      5 C5          8.3727   55.8736   19.8541 C.ar      1 UNK         0.0000 
      6 C6          9.1013   56.5669   18.8881 C.ar      1 UNK         0.0000 
      7 N7          6.2218   55.2244   20.7990 N.pl3     1 UNK         0.0000 
      8 C8          5.0894   54.5042   20.5473 C.ar      1 UNK         0.0000 
      9 C9          4.6447   53.9889   21.7503 C.ar      1 UNK         0.0000 
     10 C10         5.5718   54.4968   22.6878 C.ar      1 UNK         0.0000 
     11 N11         6.5457   55.1759   22.1002 N.2       1 UNK         0.0000 
     12 C12         5.5040   54.3960   24.1800 C.ar      1 UNK         0.0000 
     13 C13         4.2575   54.4952   24.8092 C.ar      1 UNK         0.0000 
     14 C14         4.1564   54.4072   26.1923 C.ar      1 UNK         0.0000 
     15 C15         5.3033   54.2238   26.9564 C.ar      1 UNK         0.0000 
     16 C16         6.5538   54.1434   26.3468 C.ar      1 UNK         0.0000 
     17 C17         6.6519   54.2353   24.9589 C.ar      1 UNK         0.0000 
     18 Cl18        5.1609   54.1005   28.6698 Cl        1 UNK         0.0000 
     19 C19         3.4424   53.0871   21.9651 C.3       1 UNK         0.0000 
     20 C20         3.4839   51.8592   21.0376 C.2       1 UNK         0.0000 
     21 O21         4.5741   51.3002   20.8841 O.2       1 UNK         0.0000 
     22 N22         2.3577   51.4279   20.4012 N.am      1 UNK         0.0000 
     23 C23         2.6056   51.0499   18.9903 C.3       1 UNK         0.0000 
     24 C24         1.3700   50.3565   18.3666 C.3       1 UNK         0.0000 
     25 H25         1.4854   50.2881   17.2830 H         1 UNK         0.0000 
     26 O26         0.1494   51.0645   18.6642 O.3       1 UNK         0.0000 
     27 C27        -0.0433   51.3777   19.9953 C.ar      1 UNK         0.0000 
     28 C28         1.0257   51.5579   20.8940 C.ar      1 UNK         0.0000 
     29 C29         0.6985   51.7220   22.2545 C.ar      1 UNK         0.0000 
     30 C30        -0.6298   51.8000   22.6748 C.ar      1 UNK         0.0000 
     31 C31        -1.6660   51.6867   21.7527 C.ar      1 UNK         0.0000 
     32 C32        -1.3712   51.4671   20.4098 C.ar      1 UNK         0.0000 
     33 C33         1.2833   48.8729   18.8213 C.2       1 UNK         0.0000 
     34 O34         0.3316   48.4179   19.4517 O.2       1 UNK         0.0000 
     35 N35         2.3057   48.0916   18.4809 N.am      1 UNK         0.0000 
     36 H36         9.0046   57.8980   17.2111 H         1 UNK         0.0000 
     37 H37         6.5377   58.0688   17.2314 H         1 UNK         0.0000 
     38 H38         5.2382   56.8196   18.9026 H         1 UNK         0.0000 
     39 H39         8.8989   55.2719   20.5819 H         1 UNK         0.0000 
     40 H40        10.1788   56.5024   18.8800 H         1 UNK         0.0000 
     41 H41         4.7032   54.4097   19.5436 H         1 UNK         0.0000 
     42 H42         3.3611   54.6572   24.2300 H         1 UNK         0.0000 
     43 H43         3.1897   54.4770   26.6683 H         1 UNK         0.0000 
     44 H44         7.4384   53.9917   26.9479 H         1 UNK         0.0000 
     45 H45         7.6135   54.1638   24.4795 H         1 UNK         0.0000 
     46 H46         2.5339   53.6652   21.7916 H         1 UNK         0.0000 
     47 H47         3.4189   52.7124   22.9842 H         1 UNK         0.0000 
     48 H48         3.5006   50.4326   18.8837 H         1 UNK         0.0000 
     49 H49         2.8371   51.9621   18.4381 H         1 UNK         0.0000 
     50 H50         1.4606   51.7604   23.0143 H         1 UNK         0.0000 
     51 H51        -0.8554   51.9282   23.7225 H         1 UNK         0.0000 
     52 H52        -2.6929   51.7319   22.0832 H         1 UNK         0.0000 
     53 H53        -2.1661   51.3255   19.6949 H         1 UNK         0.0000 
     54 H54         3.0546   48.4566   17.8885 H         1 UNK         0.0000 
     55 H55         2.3084   47.1266   18.7619 H         1 UNK         0.0000 
@<TRIPOS>BOND
     1    1    6 ar   
     2    1    2 ar   
     3    1   36 1    
     4    2    3 ar   
     5    2   37 1    
     6    3    4 ar   
     7    3   38 1    
     8    4    5 ar   
     9    4    7 1    
    10    5    6 ar   
    11    5   39 1    
    12    6   40 1    
    13    7   11 ar   
    14    7    8 ar   
    15    8    9 ar   
    16    8   41 1    
    17    9   10 ar   
    18    9   19 1    
    19   10   11 ar   
    20   10   12 1    
    21   12   17 ar   
    22   12   13 ar   
    23   13   14 ar   
    24   13   42 1    
    25   14   15 ar   
    26   14   43 1    
    27   15   16 ar   
    28   15   18 1    
    29   16   17 ar   
    30   16   44 1    
    31   17   45 1    
    32   19   20 1    
    33   19   46 1    
    34   19   47 1    
    35   20   21 2    
    36   20   22 am   BACKBONE|DICT|INTERRES
    37   22   28 1    
    38   22   23 1    
    39   23   24 1    
    40   23   48 1    
    41   23   49 1    
    42   24   25 1    
    43   24   26 1    
    44   24   33 1    
    45   26   27 1    
    46   27   32 ar   
    47   27   28 ar   
    48   28   29 ar   
    49   29   30 ar   
    50   29   50 1    
    51   30   31 ar   
    52   30   51 1    
    53   31   32 ar   
    54   31   52 1    
    55   32   53 1    
    56   33   34 2    
    57   33   35 am   BACKBONE|DICT|INTERRES
    58   35   54 1    
    59   35   55 1    
@<TRIPOS>SUBSTRUCTURE
     1 UNK         1 GROUP             0       ****    0 ROOT    
