@<TRIPOS>MOLECULE
ZINC00659974_2031
51   53    1
SMALL
USER_CHARGES


@<TRIPOS>ATOM
      1 C1          5.0914   54.2512   28.8909 C.3       1 UNK         0.0000 
      2 C2          4.0918   53.9078   27.7870 C.ar      1 UNK         0.0000 
      3 C3          2.8546   53.3687   28.1572 C.ar      1 UNK         0.0000 
      4 C4          1.9195   53.0736   27.1657 C.ar      1 UNK         0.0000 
      5 N5          2.1534   53.2983   25.8527 N.ar      1 UNK         0.0000 
      6 C6          3.3540   53.8117   25.4822 C.ar      1 UNK         0.0000 
      7 C7          4.3663   54.1262   26.4184 C.ar      1 UNK         0.0000 
      8 C8          5.6641   54.6694   26.0026 C.1       1 UNK         0.0000 
      9 N9          6.6906   55.1011   25.6813 N.1       1 UNK         0.0000 
     10 S10         3.5564   54.0964   23.7359 S.3       1 UNK         0.0000 
     11 C11         1.9257   53.9952   22.9286 C.3       1 UNK         0.0000 
     12 C12         1.5052   52.6210   22.3815 C.2       1 UNK         0.0000 
     13 C13         0.3341   51.9237   22.5129 C.2       1 UNK         0.0000 
     14 C14         0.1555   50.5308   21.8408 C.3       1 UNK         0.0000 
     15 H15        -0.6811   50.6659   21.1504 H         1 UNK         0.0000 
     16 C16         1.3641   50.1808   20.9748 C.2       1 UNK         0.0000 
     17 C17         2.4113   51.0213   20.8909 C.2       1 UNK         0.0000 
     18 O18         2.5163   52.1800   21.5845 O.3       1 UNK         0.0000 
     19 N19         3.5042   50.9014   20.0830 N.pl3     1 UNK         0.0000 
     20 C20         1.3544   48.9550   20.2410 C.1       1 UNK         0.0000 
     21 N21         1.3266   47.9443   19.6799 N.1       1 UNK         0.0000 
     22 C22        -0.3328   49.3973   22.7544 C.ar      1 UNK         0.0000 
     23 C23        -1.2874   48.4879   22.2833 C.ar      1 UNK         0.0000 
     24 C24        -1.8660   47.5712   23.1554 C.ar      1 UNK         0.0000 
     25 C25        -1.4878   47.5601   24.4964 C.ar      1 UNK         0.0000 
     26 C26        -0.4984   48.4221   24.9621 C.ar      1 UNK         0.0000 
     27 C27         0.0858   49.3336   24.0895 C.ar      1 UNK         0.0000 
     28 Cl28       -2.2794   46.4963   25.5959 Cl        1 UNK         0.0000 
     29 C29        -0.8307   52.4348   23.2806 C.2       1 UNK         0.0000 
     30 O30        -0.7649   53.3560   24.0823 O.2       1 UNK         0.0000 
     31 O31        -1.9985   51.8005   23.0043 O.3       1 UNK         0.0000 
     32 C32        -3.1991   52.1431   23.6826 C.3       1 UNK         0.0000 
     33 C33         0.5745   52.4566   27.4975 C.3       1 UNK         0.0000 
     34 H34         4.6397   54.2042   29.8817 H         1 UNK         0.0000 
     35 H35         5.9457   53.5748   28.8621 H         1 UNK         0.0000 
     36 H36         5.4733   55.2665   28.7694 H         1 UNK         0.0000 
     37 H37         2.6204   53.1776   29.1935 H         1 UNK         0.0000 
     38 H38         1.2002   54.4641   23.5831 H         1 UNK         0.0000 
     39 H39         2.0025   54.6599   22.0818 H         1 UNK         0.0000 
     40 H40         3.5761   50.1560   19.4031 H         1 UNK         0.0000 
     41 H41         4.0648   51.7160   19.8747 H         1 UNK         0.0000 
     42 H42        -1.6172   48.5220   21.2557 H         1 UNK         0.0000 
     43 H43        -2.6312   46.8986   22.8002 H         1 UNK         0.0000 
     44 H44        -0.2126   48.4020   26.0059 H         1 UNK         0.0000 
     45 H45         0.8276   50.0222   24.4701 H         1 UNK         0.0000 
     46 H46        -4.0196   51.5226   23.3213 H         1 UNK         0.0000 
     47 H47        -3.0977   51.9834   24.7569 H         1 UNK         0.0000 
     48 H48        -3.4616   53.1879   23.5114 H         1 UNK         0.0000 
     49 H49         0.3141   52.6043   28.5455 H         1 UNK         0.0000 
     50 H50        -0.2191   52.8958   26.8918 H         1 UNK         0.0000 
     51 H51         0.5951   51.3841   27.2996 H         1 UNK         0.0000 
@<TRIPOS>BOND
     1    1    2 1    
     2    1   34 1    
     3    1   35 1    
     4    1   36 1    
     5    2    7 ar   
     6    2    3 ar   
     7    3    4 ar   
     8    3   37 1    
     9    4    5 ar   
    10    4   33 1    
    11    5    6 ar   
    12    6    7 ar   
    13    6   10 1    
    14    7    8 1    
    15    8    9 3    
    16   10   11 1    
    17   11   12 1    
    18   11   38 1    
    19   11   39 1    
    20   12   18 1    
    21   12   13 2    
    22   13   14 1    
    23   13   29 1    
    24   14   15 1    
    25   14   16 1    
    26   14   22 1    
    27   16   17 2    
    28   16   20 1    
    29   17   18 1    
    30   17   19 1    
    31   19   40 1    
    32   19   41 1    
    33   20   21 3    
    34   22   27 ar   
    35   22   23 ar   
    36   23   24 ar   
    37   23   42 1    
    38   24   25 ar   
    39   24   43 1    
    40   25   26 ar   
    41   25   28 1    
    42   26   27 ar   
    43   26   44 1    
    44   27   45 1    
    45   29   30 2    
    46   29   31 1    
    47   31   32 1    
    48   32   46 1    
    49   32   47 1    
    50   32   48 1    
    51   33   49 1    
    52   33   50 1    
    53   33   51 1    
@<TRIPOS>SUBSTRUCTURE
     1 UNK         1 GROUP             0       ****    0 ROOT    
