@<TRIPOS>MOLECULE
ZINC36073363_5697
77   80    1
SMALL
USER_CHARGES


@<TRIPOS>ATOM
      1 C1          4.7467   60.7384   13.7199 C.3       1 UNK         0.0000 
      2 C2          5.5033   59.4021   13.7672 C.3       1 UNK         0.0000 
      3 O3          5.4097   58.7515   15.0333 O.3       1 UNK         0.0000 
      4 C4          4.2957   58.0681   15.4040 C.2       1 UNK         0.0000 
      5 O5          3.2706   57.9781   14.7226 O.2       1 UNK         0.0000 
      6 C6          4.4465   57.2954   16.7401 C.3       1 UNK         0.0000 
      7 H7          4.0926   58.0050   17.4880 H         1 UNK         0.0000 
      8 C8          3.4907   56.0615   16.7824 C.3       1 UNK         0.0000 
      9 C9          3.8114   55.0790   17.9257 C.3       1 UNK         0.0000 
     10 C10         5.3186   54.7862   17.9971 C.3       1 UNK         0.0000 
     11 N11         5.9598   56.0854   18.2621 N.am      1 UNK         0.0000 
     12 C12         5.9367   56.9922   17.0976 C.3       1 UNK         0.0000 
     13 C13         6.4844   56.4962   19.4555 C.2       1 UNK         0.0000 
     14 O14         7.0303   57.5907   19.5997 O.2       1 UNK         0.0000 
     15 C15         6.4224   55.6172   20.6055 C.2       1 UNK         0.0000 
     16 C16         7.3538   55.5952   21.6421 C.2       1 UNK         0.0000 
     17 O17         6.9491   54.6862   22.5563 O.3       1 UNK         0.0000 
     18 C18         5.7743   54.2447   22.0541 C.2       1 UNK         0.0000 
     19 N19         5.4142   54.8222   20.9353 N.2       1 UNK         0.0000 
     20 C20         5.0310   53.1712   22.8101 C.3       1 UNK         0.0000 
     21 N21         3.6138   53.6958   23.1634 N.4       1 UNK         0.0000 
     22 C22         3.6530   54.6466   24.3867 C.3       1 UNK         0.0000 
     23 C23         3.9857   54.0966   25.7751 C.ar      1 UNK         0.0000 
     24 C24         2.9514   53.6974   26.6321 C.ar      1 UNK         0.0000 
     25 C25         3.2199   53.2849   27.9493 C.ar      1 UNK         0.0000 
     26 C26         4.5388   53.2968   28.4012 C.ar      1 UNK         0.0000 
     27 C27         5.5766   53.6964   27.5635 C.ar      1 UNK         0.0000 
     28 C28         5.3082   54.0977   26.2550 C.ar      1 UNK         0.0000 
     29 O29         6.3595   54.4651   25.4532 O.3       1 UNK         0.0000 
     30 C30         6.7058   55.8389   25.5229 C.3       1 UNK         0.0000 
     31 O31         2.2672   52.8532   28.8515 O.3       1 UNK         0.0000 
     32 C32         0.9098   52.7462   28.4337 C.3       1 UNK         0.0000 
     33 C33         2.4639   52.6510   23.1740 C.3       1 UNK         0.0000 
     34 H34         2.6415   52.0881   24.0925 H         1 UNK         0.0000 
     35 C35         1.1228   53.4029   23.2480 C.3       1 UNK         0.0000 
     36 C36         2.4604   51.7154   21.9629 C.ar      1 UNK         0.0000 
     37 C37         2.3025   50.3387   22.1513 C.ar      1 UNK         0.0000 
     38 C38         2.3043   49.4822   21.0539 C.ar      1 UNK         0.0000 
     39 C39         2.4785   49.9989   19.7716 C.ar      1 UNK         0.0000 
     40 C40         2.6331   51.3677   19.5745 C.ar      1 UNK         0.0000 
     41 C41         2.6104   52.2285   20.6675 C.ar      1 UNK         0.0000 
     42 H42         4.8661   61.2220   12.7507 H         1 UNK         0.0000 
     43 H43         5.1180   61.4252   14.4813 H         1 UNK         0.0000 
     44 H44         3.6796   60.5985   13.8936 H         1 UNK         0.0000 
     45 H45         5.1528   58.7384   12.9734 H         1 UNK         0.0000 
     46 H46         6.5592   59.5866   13.5685 H         1 UNK         0.0000 
     47 H47         2.4484   56.3820   16.8466 H         1 UNK         0.0000 
     48 H48         3.5829   55.4980   15.8502 H         1 UNK         0.0000 
     49 H49         3.4702   55.4769   18.8809 H         1 UNK         0.0000 
     50 H50         3.2604   54.1500   17.7729 H         1 UNK         0.0000 
     51 H51         5.6299   53.9766   18.6553 H         1 UNK         0.0000 
     52 H52         5.6817   54.4375   17.0288 H         1 UNK         0.0000 
     53 H53         6.4176   56.4674   16.2705 H         1 UNK         0.0000 
     54 H54         6.5274   57.8977   17.2528 H         1 UNK         0.0000 
     55 H55         8.2933   56.0962   21.8335 H         1 UNK         0.0000 
     56 H56         4.9386   52.2713   22.2025 H         1 UNK         0.0000 
     57 H57         5.5102   52.8969   23.7443 H         1 UNK         0.0000 
     58 H58         4.4529   55.2969   24.0821 H         1 UNK         0.0000 
     59 H59         2.7229   55.2137   24.3801 H         1 UNK         0.0000 
     60 H60         1.9354   53.7180   26.2717 H         1 UNK         0.0000 
     61 H61         4.7562   52.9782   29.4086 H         1 UNK         0.0000 
     62 H62         6.5941   53.6878   27.9259 H         1 UNK         0.0000 
     63 H63         7.5026   56.0490   24.8096 H         1 UNK         0.0000 
     64 H64         5.8717   56.4971   25.2820 H         1 UNK         0.0000 
     65 H65         7.0699   56.0966   26.5137 H         1 UNK         0.0000 
     66 H66         0.3078   52.3647   29.2582 H         1 UNK         0.0000 
     67 H67         0.4998   53.7159   28.1465 H         1 UNK         0.0000 
     68 H68         0.8006   52.0493   27.6011 H         1 UNK         0.0000 
     69 H69         0.2788   52.7329   23.0778 H         1 UNK         0.0000 
     70 H70         0.9524   53.8775   24.2123 H         1 UNK         0.0000 
     71 H71         1.1043   54.1761   22.4797 H         1 UNK         0.0000 
     72 H72         2.1842   49.9245   23.1433 H         1 UNK         0.0000 
     73 H73         2.2010   48.4170   21.1975 H         1 UNK         0.0000 
     74 H74         2.5157   49.3357   18.9179 H         1 UNK         0.0000 
     75 H75         2.7818   51.7500   18.5744 H         1 UNK         0.0000 
     76 H76         2.7218   53.2904   20.5007 H         1 UNK         0.0000 
     77 H77         3.3753   54.2752   22.3699 H         1 UNK         0.0000 
@<TRIPOS>BOND
     1    1    2 1    
     2    1   42 1    
     3    1   43 1    
     4    1   44 1    
     5    2    3 1    
     6    2   45 1    
     7    2   46 1    
     8    3    4 1    
     9    4    5 2    
    10    4    6 1    
    11    6    7 1    
    12    6   12 1    
    13    6    8 1    
    14    8    9 1    
    15    8   47 1    
    16    8   48 1    
    17    9   10 1    
    18    9   49 1    
    19    9   50 1    
    20   10   11 1    
    21   10   51 1    
    22   10   52 1    
    23   11   12 1    
    24   11   13 am   BACKBONE|DICT|INTERRES
    25   12   53 1    
    26   12   54 1    
    27   13   14 2    
    28   13   15 1    
    29   15   19 1    
    30   15   16 2    
    31   16   17 1    
    32   16   55 1    
    33   17   18 1    
    34   18   19 2    
    35   18   20 1    
    36   20   21 1    
    37   20   56 1    
    38   20   57 1    
    39   21   22 1    
    40   21   33 1    
    41   21   77 1    
    42   22   23 1    
    43   22   58 1    
    44   22   59 1    
    45   23   28 ar   
    46   23   24 ar   
    47   24   25 ar   
    48   24   60 1    
    49   25   26 ar   
    50   25   31 1    
    51   26   27 ar   
    52   26   61 1    
    53   27   28 ar   
    54   27   62 1    
    55   28   29 1    
    56   29   30 1    
    57   30   63 1    
    58   30   64 1    
    59   30   65 1    
    60   31   32 1    
    61   32   66 1    
    62   32   67 1    
    63   32   68 1    
    64   33   34 1    
    65   33   35 1    
    66   33   36 1    
    67   35   69 1    
    68   35   70 1    
    69   35   71 1    
    70   36   41 ar   
    71   36   37 ar   
    72   37   38 ar   
    73   37   72 1    
    74   38   39 ar   
    75   38   73 1    
    76   39   40 ar   
    77   39   74 1    
    78   40   41 ar   
    79   40   75 1    
    80   41   76 1    
@<TRIPOS>SUBSTRUCTURE
     1 UNK         1 GROUP             0       ****    0 ROOT    
