ZINC07041666_1879
                    3D
 Schrodinger Suite 2024-2.
 59 62  0  0  1  0            999 V2000
    3.9043   52.0250   31.6809 C   0  0  0  0  0  0
    3.5169   52.1733   30.2015 C   0  0  1  0  0  0
    3.2410   51.1977   29.8132 H   0  0  0  0  0  0
    2.3415   53.1752   29.9572 C   0  0  2  0  0  0
    2.5915   54.0944   30.4816 H   0  0  0  0  0  0
    1.0091   52.5772   30.5295 C   0  0  2  0  0  0
    1.2332   51.6969   31.1130 H   0  0  0  0  0  0
    0.2012   52.1038   29.2918 C   0  0  0  0  0  0
    1.1514   52.3157   28.0998 C   0  0  2  0  0  0
    1.8587   51.4850   28.1694 H   0  0  0  0  0  0
    1.9638   53.5755   28.4858 C   0  0  2  0  0  0
    3.0960   53.8671   27.4509 C   0  0  0  0  0  0
    4.1059   54.4943   27.7659 O   0  0  0  0  0  0
    2.9205   53.3392   26.0063 C   0  0  0  0  0  0
    1.4582   53.0354   25.5948 C   0  0  2  0  0  0
    1.1048   54.0524   25.7084 H   0  0  0  0  0  0
    0.6515   52.1982   26.6386 C   0  0  2  0  0  0
    0.8997   51.1718   26.3601 H   0  0  0  0  0  0
   -0.8866   52.2287   26.4102 C   0  0  0  0  0  0
   -1.2751   52.3896   24.9190 C   0  0  0  0  0  0
   -0.1923   51.7799   24.0082 C   0  0  2  0  0  0
    0.0011   50.7795   24.4039 H   0  0  0  0  0  0
    1.1381   52.6301   24.0806 C   0  0  2  0  0  0
    2.1687   51.7115   23.3895 C   0  0  0  0  0  0
    1.8451   51.3124   21.9219 C   0  0  0  0  0  0
    0.4229   50.7215   21.7784 C   0  0  1  0  0  0
    0.4560   49.7533   22.2820 H   0  0  0  0  0  0
   -0.6326   51.5533   22.5401 C   0  0  0  0  0  0
    0.0634   50.5065   20.4310 O   0  0  0  0  0  0
    1.1043   53.9519   23.2907 C   0  0  0  0  0  0
    1.1456   54.9042   28.5774 C   0  0  0  0  0  0
    0.2493   53.4255   31.3683 O   0  0  0  0  0  0
    4.7044   52.4967   29.5335 O   0  0  0  0  0  0
    3.0757   51.7111   32.3135 H   0  0  0  0  0  0
    4.7030   51.2979   31.8018 H   0  0  0  0  0  0
    4.3050   52.9500   32.0858 H   0  0  0  0  0  0
   -0.6690   52.7471   29.1626 H   0  0  0  0  0  0
   -0.1746   51.0810   29.3530 H   0  0  0  0  0  0
    3.5761   52.4968   25.8897 H   0  0  0  0  0  0
    3.3235   54.1071   25.3459 H   0  0  0  0  0  0
   -1.3048   53.0925   26.9264 H   0  0  0  0  0  0
   -1.3565   51.3551   26.8673 H   0  0  0  0  0  0
   -1.5079   53.4092   24.6225 H   0  0  0  0  0  0
   -2.2113   51.8507   24.7680 H   0  0  0  0  0  0
    3.1043   52.2553   23.3705 H   0  0  0  0  0  0
    2.3055   50.8117   23.9901 H   0  0  0  0  0  0
    2.5838   50.5919   21.5674 H   0  0  0  0  0  0
    1.9538   52.1792   21.2705 H   0  0  0  0  0  0
   -1.5811   51.0146   22.5248 H   0  0  0  0  0  0
   -0.8468   52.4992   22.0480 H   0  0  0  0  0  0
    0.8041   50.0950   19.9786 H   0  0  0  0  0  0
    1.9969   54.5576   23.4551 H   0  0  0  0  0  0
    1.0111   53.8202   22.2173 H   0  0  0  0  0  0
    0.2492   54.5089   23.6543 H   0  0  0  0  0  0
    0.3045   54.8396   29.2631 H   0  0  0  0  0  0
    1.7581   55.7322   28.9404 H   0  0  0  0  0  0
    0.7052   55.2237   27.6494 H   0  0  0  0  0  0
   -0.3440   52.8737   31.9011 H   0  0  0  0  0  0
    4.5344   53.2018   28.8938 H   0  0  0  0  0  0
  1  2  1  0  0  0
  1 34  1  0  0  0
  1 35  1  0  0  0
  1 36  1  0  0  0
  2  3  1  0  0  0
  2  4  1  0  0  0
  2 33  1  0  0  0
  4  5  1  0  0  0
  4 11  1  0  0  0
  4  6  1  0  0  0
  6  7  1  0  0  0
  6  8  1  0  0  0
  6 32  1  0  0  0
  8  9  1  0  0  0
  8 37  1  0  0  0
  8 38  1  0  0  0
  9 10  1  0  0  0
  9 17  1  0  0  0
  9 11  1  0  0  0
 11 12  1  0  0  0
 11 31  1  0  0  0
 12 13  2  0  0  0
 12 14  1  0  0  0
 14 15  1  0  0  0
 14 39  1  0  0  0
 14 40  1  0  0  0
 15 16  1  0  0  0
 15 23  1  0  0  0
 15 17  1  0  0  0
 17 18  1  0  0  0
 17 19  1  0  0  0
 19 20  1  0  0  0
 19 41  1  0  0  0
 19 42  1  0  0  0
 20 21  1  0  0  0
 20 43  1  0  0  0
 20 44  1  0  0  0
 21 22  1  0  0  0
 21 28  1  0  0  0
 21 23  1  0  0  0
 23 24  1  0  0  0
 23 30  1  0  0  0
 24 25  1  0  0  0
 24 45  1  0  0  0
 24 46  1  0  0  0
 25 26  1  0  0  0
 25 47  1  0  0  0
 25 48  1  0  0  0
 26 27  1  0  0  0
 26 28  1  0  0  0
 26 29  1  0  0  0
 28 49  1  0  0  0
 28 50  1  0  0  0
 29 51  1  0  0  0
 30 52  1  0  0  0
 30 53  1  0  0  0
 30 54  1  0  0  0
 31 55  1  0  0  0
 31 56  1  0  0  0
 31 57  1  0  0  0
 32 58  1  0  0  0
 33 59  1  0  0  0
M  END
> <i_i_glide_confnum>
2

> <i_i_glide_lignum>
1880

> <i_i_glide_posenum>
11

> <i_i_glide_rotatable_bonds>
4

> <i_m_Source_File_Index>
5381

> <b_m_subgroup_collapsed>
0

> <r_i_docking_score>
-4.90959

> <r_i_glide_ecoul>
-1.38299

> <r_i_glide_eff_state_penalty>
0

> <r_i_glide_einternal>
1.42995

> <r_i_glide_emodel>
-34.3941

> <r_i_glide_energy>
-30.624

> <r_i_glide_erotb>
0.155167

> <r_i_glide_esite>
0

> <r_i_glide_evdw>
-29.241

> <r_i_glide_gscore>
-4.90959

> <r_i_glide_hbond>
-0.13308

> <r_i_glide_ligand_efficiency>
-0.196384

> <r_i_glide_ligand_efficiency_ln>
-1.16372

> <r_i_glide_ligand_efficiency_sa>
-0.574229

> <r_i_glide_lipo>
-1.96404

> <r_i_glide_metal>
0

> <r_i_glide_rewards>
-1.29813

> <s_i_glide_gridfile>
wee1_glide-grid

> <s_m_Source_File>
wee1_decoys_glide_SP.sdf

> <s_m_Source_Path>
/Users/zhangxujun/Desktop

> <s_m_entry_id>
5656

> <s_m_entry_name>
wee1_decoys_glide_SP.5381

> <s_m_subgroup_title>
wee1_decoys_glide_SP

> <s_m_subgroupid>
wee1_decoys_glide_SP


$$$$
