@<TRIPOS>MOLECULE
ZINC32774583_3656
53   56    1
SMALL
USER_CHARGES


@<TRIPOS>ATOM
      1 C1          2.2988   49.0240   20.3765 C.2       1 UNK         0.0000 
      2 C2          2.1143   49.8794   21.4647 C.2       1 UNK         0.0000 
      3 C3          1.7851   51.1904   21.1111 C.2       1 UNK         0.0000 
      4 S4          1.7248   51.3291   19.3732 S.3       1 UNK         0.0000 
      5 C5          2.1623   49.6709   19.1631 C.2       1 UNK         0.0000 
      6 C6          1.5618   52.4085   21.9884 C.3       1 UNK         0.0000 
      7 H7          1.0154   53.1791   21.4394 H         1 UNK         0.0000 
      8 C8          2.8594   53.0276   22.5199 C.2       1 UNK         0.0000 
      9 C9          4.0332   53.2300   21.7730 C.2       1 UNK         0.0000 
     10 C10         5.0628   53.8030   22.5050 C.2       1 UNK         0.0000 
     11 S11         4.6002   54.0968   24.1452 S.3       1 UNK         0.0000 
     12 C12         3.0017   53.4978   23.8293 C.2       1 UNK         0.0000 
     13 C13         1.9389   53.3671   24.8979 C.3       1 UNK         0.0000 
     14 C14         0.5662   53.2302   24.2120 C.3       1 UNK         0.0000 
     15 N15         0.6265   52.0613   23.1912 N.4       1 UNK         0.0000 
     16 C16        -0.8094   51.6810   22.7017 C.3       1 UNK         0.0000 
     17 C17        -1.1507   50.1857   22.9431 C.2       1 UNK         0.0000 
     18 O18        -1.6159   49.5694   21.9836 O.2       1 UNK         0.0000 
     19 N19        -0.9719   49.5910   24.1613 N.am      1 UNK         0.0000 
     20 C20        -1.3517   48.1750   24.3519 C.3       1 UNK         0.0000 
     21 C21        -2.7673   47.9687   24.9542 C.3       1 UNK         0.0000 
     22 C22        -2.9872   46.6151   25.6179 C.2       1 UNK         0.0000 
     23 O23        -3.5300   45.7010   24.9992 O.2       1 UNK         0.0000 
     24 N24        -2.6009   46.4584   26.8791 N.am      1 UNK         0.0000 
     25 C25        -0.8560   50.3490   25.3357 C.ar      1 UNK         0.0000 
     26 C26        -1.9124   51.1605   25.7659 C.ar      1 UNK         0.0000 
     27 C27        -1.7879   51.8761   26.9489 C.ar      1 UNK         0.0000 
     28 C28        -0.6184   51.7791   27.7005 C.ar      1 UNK         0.0000 
     29 C29         0.4263   50.9590   27.2825 C.ar      1 UNK         0.0000 
     30 C30         0.3049   50.2267   26.1046 C.ar      1 UNK         0.0000 
     31 F31        -0.4954   52.4900   28.8436 F         1 UNK         0.0000 
     32 H32         2.5814   47.9850   20.4717 H         1 UNK         0.0000 
     33 H33         2.2264   49.5519   22.4889 H         1 UNK         0.0000 
     34 H34         2.3110   49.2702   18.1679 H         1 UNK         0.0000 
     35 H35         4.1246   52.9600   20.7299 H         1 UNK         0.0000 
     36 H36         6.0568   54.0571   22.1658 H         1 UNK         0.0000 
     37 H37         1.9524   54.2123   25.5837 H         1 UNK         0.0000 
     38 H38         2.1521   52.4850   25.5007 H         1 UNK         0.0000 
     39 H39         0.2626   54.1316   23.6800 H         1 UNK         0.0000 
     40 H40        -0.1869   52.9891   24.9569 H         1 UNK         0.0000 
     41 H41        -0.8693   51.9088   21.6357 H         1 UNK         0.0000 
     42 H42        -1.5440   52.3099   23.2052 H         1 UNK         0.0000 
     43 H43        -1.1897   47.5441   23.4755 H         1 UNK         0.0000 
     44 H44        -0.6246   47.7877   25.0703 H         1 UNK         0.0000 
     45 H45        -2.9568   48.7126   25.7265 H         1 UNK         0.0000 
     46 H46        -3.5366   48.2077   24.2192 H         1 UNK         0.0000 
     47 H47        -2.7733   45.5824   27.3519 H         1 UNK         0.0000 
     48 H48        -2.1492   47.2173   27.4096 H         1 UNK         0.0000 
     49 H49        -2.8271   51.2274   25.1942 H         1 UNK         0.0000 
     50 H50        -2.6042   52.4966   27.2816 H         1 UNK         0.0000 
     51 H51         1.3175   50.8800   27.8880 H         1 UNK         0.0000 
     52 H52         1.0985   49.5624   25.7963 H         1 UNK         0.0000 
     53 H53         0.9957   51.2577   23.6818 H         1 UNK         0.0000 
@<TRIPOS>BOND
     1    1    5 2    
     2    1    2 1    
     3    1   32 1    
     4    2    3 2    
     5    2   33 1    
     6    3    4 1    
     7    3    6 1    
     8    4    5 1    
     9    5   34 1    
    10    6    7 1    
    11    6   15 1    
    12    6    8 1    
    13    8   12 2    
    14    8    9 1    
    15    9   10 2    
    16    9   35 1    
    17   10   11 1    
    18   10   36 1    
    19   11   12 1    
    20   12   13 1    
    21   13   14 1    
    22   13   37 1    
    23   13   38 1    
    24   14   15 1    
    25   14   39 1    
    26   14   40 1    
    27   15   16 1    
    28   15   53 1    
    29   16   17 1    
    30   16   41 1    
    31   16   42 1    
    32   17   18 2    
    33   17   19 am   BACKBONE|DICT|INTERRES
    34   19   20 1    
    35   19   25 1    
    36   20   21 1    
    37   20   43 1    
    38   20   44 1    
    39   21   22 1    
    40   21   45 1    
    41   21   46 1    
    42   22   23 2    
    43   22   24 am   BACKBONE|DICT|INTERRES
    44   24   47 1    
    45   24   48 1    
    46   25   30 ar   
    47   25   26 ar   
    48   26   27 ar   
    49   26   49 1    
    50   27   28 ar   
    51   27   50 1    
    52   28   29 ar   
    53   28   31 1    
    54   29   30 ar   
    55   29   51 1    
    56   30   52 1    
@<TRIPOS>SUBSTRUCTURE
     1 UNK         1 GROUP             0       ****    0 ROOT    
