@<TRIPOS>MOLECULE
ZINC39686586_648
69   72    1
SMALL
USER_CHARGES


@<TRIPOS>ATOM
      1 C1         -4.3187   46.0413   26.7767 C.3       1 UNK         0.0000 
      2 C2         -3.5430   46.5359   25.5665 C.ar      1 UNK         0.0000 
      3 C3         -2.1816   46.8177   25.6823 C.ar      1 UNK         0.0000 
      4 C4         -1.4611   47.2832   24.5862 C.ar      1 UNK         0.0000 
      5 C5         -2.0923   47.4828   23.3508 C.ar      1 UNK         0.0000 
      6 C6         -3.4629   47.1976   23.2325 C.ar      1 UNK         0.0000 
      7 C7         -4.1806   46.7228   24.3341 C.ar      1 UNK         0.0000 
      8 F8         -5.4998   46.4404   24.2036 F         1 UNK         0.0000 
      9 F9         -4.1079   47.3796   22.0548 F         1 UNK         0.0000 
     10 C10        -1.2984   47.9721   22.1647 C.2       1 UNK         0.0000 
     11 O11        -1.2953   47.2859   21.1408 O.2       1 UNK         0.0000 
     12 N12        -0.5753   49.1173   22.2749 N.am      1 UNK         0.0000 
     13 C13        -0.6061   50.0701   23.3863 C.3       1 UNK         0.0000 
     14 C14         0.7677   50.7612   23.2788 C.3       1 UNK         0.0000 
     15 H15         1.5124   50.1326   23.7738 H         1 UNK         0.0000 
     16 C16         1.0588   50.8146   21.7479 C.3       1 UNK         0.0000 
     17 C17         0.4306   49.4757   21.2736 C.3       1 UNK         0.0000 
     18 C18         2.5691   50.9276   21.4350 C.3       1 UNK         0.0000 
     19 C19         2.8493   50.7773   19.9251 C.3       1 UNK         0.0000 
     20 N20         2.1081   51.9087   19.1776 N.4       1 UNK         0.0000 
     21 C21         0.5947   51.9912   19.4885 C.3       1 UNK         0.0000 
     22 C22         0.4021   52.0336   21.0216 C.3       1 UNK         0.0000 
     23 C23         0.6914   52.1268   24.0082 C.2       1 UNK         0.0000 
     24 O24        -0.3213   52.8307   23.9561 O.2       1 UNK         0.0000 
     25 N25         1.7560   52.4514   24.7580 N.am      1 UNK         0.0000 
     26 C26         1.8991   53.6638   25.5652 C.3       1 UNK         0.0000 
     27 H27         1.4047   54.4900   25.0465 H         1 UNK         0.0000 
     28 C28         1.2407   53.4487   26.9428 C.3       1 UNK         0.0000 
     29 C29         3.3810   54.0728   25.7535 C.3       1 UNK         0.0000 
     30 C30         4.2735   54.2450   24.5175 C.ar      1 UNK         0.0000 
     31 C31         3.7857   54.0991   23.2084 C.ar      1 UNK         0.0000 
     32 C32         4.6376   54.2078   22.1092 C.ar      1 UNK         0.0000 
     33 C33         5.9817   54.5001   22.3063 C.ar      1 UNK         0.0000 
     34 C34         6.4722   54.6938   23.5948 C.ar      1 UNK         0.0000 
     35 C35         5.6304   54.5646   24.7025 C.ar      1 UNK         0.0000 
     36 O36         6.1433   54.8204   25.9526 O.3       1 UNK         0.0000 
     37 C37         6.7071   53.6959   26.6103 C.3       1 UNK         0.0000 
     38 H38        -3.6813   45.9199   27.6577 H         1 UNK         0.0000 
     39 H39        -5.1135   46.7483   27.0268 H         1 UNK         0.0000 
     40 H40        -4.7926   45.0809   26.5646 H         1 UNK         0.0000 
     41 H41        -1.6786   46.6955   26.6298 H         1 UNK         0.0000 
     42 H42        -0.4058   47.4841   24.7163 H         1 UNK         0.0000 
     43 H43        -0.7474   49.6573   24.3857 H         1 UNK         0.0000 
     44 H44        -1.4116   50.7736   23.1538 H         1 UNK         0.0000 
     45 H45         0.0924   49.4634   20.2382 H         1 UNK         0.0000 
     46 H46         1.2071   48.7131   21.3570 H         1 UNK         0.0000 
     47 H47         2.9934   51.8469   21.8344 H         1 UNK         0.0000 
     48 H48         3.1043   50.1223   21.9408 H         1 UNK         0.0000 
     49 H49         3.9050   50.9046   19.6826 H         1 UNK         0.0000 
     50 H50         2.5046   49.8320   19.5014 H         1 UNK         0.0000 
     51 H51         2.5322   52.7922   19.4283 H         1 UNK         0.0000 
     52 H52         0.2363   52.9028   19.0051 H         1 UNK         0.0000 
     53 H53         0.1265   51.1378   18.9986 H         1 UNK         0.0000 
     54 H54        -0.6694   52.0409   21.2251 H         1 UNK         0.0000 
     55 H55         0.7734   52.9816   21.4113 H         1 UNK         0.0000 
     56 H56         2.5650   51.8508   24.7270 H         1 UNK         0.0000 
     57 H57         1.2799   54.3596   27.5428 H         1 UNK         0.0000 
     58 H58         0.1951   53.1485   26.8602 H         1 UNK         0.0000 
     59 H59         1.7624   52.6792   27.5126 H         1 UNK         0.0000 
     60 H60         3.8529   53.3087   26.3693 H         1 UNK         0.0000 
     61 H61         3.4333   54.9953   26.3330 H         1 UNK         0.0000 
     62 H62         2.7419   53.9190   23.0088 H         1 UNK         0.0000 
     63 H63         4.2494   54.0903   21.1106 H         1 UNK         0.0000 
     64 H64         6.6427   54.6028   21.4578 H         1 UNK         0.0000 
     65 H65         7.5042   54.9611   23.7416 H         1 UNK         0.0000 
     66 H66         7.2968   54.0328   27.4618 H         1 UNK         0.0000 
     67 H67         5.9427   53.0176   26.9883 H         1 UNK         0.0000 
     68 H68         7.3670   53.1270   25.9562 H         1 UNK         0.0000 
     69 H69         2.2587   51.7975   18.1827 H         1 UNK         0.0000 
@<TRIPOS>BOND
     1    1    2 1    
     2    1   38 1    
     3    1   39 1    
     4    1   40 1    
     5    2    7 ar   
     6    2    3 ar   
     7    3    4 ar   
     8    3   41 1    
     9    4    5 ar   
    10    4   42 1    
    11    5    6 ar   
    12    5   10 1    
    13    6    7 ar   
    14    6    9 1    
    15    7    8 1    
    16   10   11 2    
    17   10   12 am   BACKBONE|DICT|INTERRES
    18   12   17 1    
    19   12   13 1    
    20   13   14 1    
    21   13   43 1    
    22   13   44 1    
    23   14   15 1    
    24   14   16 1    
    25   14   23 1    
    26   16   22 1    
    27   16   17 1    
    28   16   18 1    
    29   17   45 1    
    30   17   46 1    
    31   18   19 1    
    32   18   47 1    
    33   18   48 1    
    34   19   20 1    
    35   19   49 1    
    36   19   50 1    
    37   20   21 1    
    38   20   51 1    
    39   20   69 1    
    40   21   22 1    
    41   21   52 1    
    42   21   53 1    
    43   22   54 1    
    44   22   55 1    
    45   23   24 2    
    46   23   25 am   BACKBONE|DICT|INTERRES
    47   25   26 1    
    48   25   56 1    
    49   26   27 1    
    50   26   28 1    
    51   26   29 1    
    52   28   57 1    
    53   28   58 1    
    54   28   59 1    
    55   29   30 1    
    56   29   60 1    
    57   29   61 1    
    58   30   35 ar   
    59   30   31 ar   
    60   31   32 ar   
    61   31   62 1    
    62   32   33 ar   
    63   32   63 1    
    64   33   34 ar   
    65   33   64 1    
    66   34   35 ar   
    67   34   65 1    
    68   35   36 1    
    69   36   37 1    
    70   37   66 1    
    71   37   67 1    
    72   37   68 1    
@<TRIPOS>SUBSTRUCTURE
     1 UNK         1 GROUP             0       ****    0 ROOT    
