@<TRIPOS>MOLECULE
ZINC33795936_978
51   55    1
SMALL
USER_CHARGES


@<TRIPOS>ATOM
      1 C1         -6.1165   49.4992   26.3987 C.3       1 UNK         0.0000 
      2 O2         -4.9816   49.7734   27.2111 O.3       1 UNK         0.0000 
      3 C3         -4.0393   50.6810   26.7688 C.ar      1 UNK         0.0000 
      4 C4         -4.1285   51.3913   25.5632 C.ar      1 UNK         0.0000 
      5 C5         -3.1362   52.3004   25.2132 C.ar      1 UNK         0.0000 
      6 C6         -2.0470   52.5016   26.0572 C.ar      1 UNK         0.0000 
      7 C7         -1.9030   51.7904   27.2547 C.ar      1 UNK         0.0000 
      8 C8         -2.9338   50.8963   27.5953 C.ar      1 UNK         0.0000 
      9 C9         -0.7676   52.0094   28.2339 C.2       1 UNK         0.0000 
     10 C10         0.5889   52.5267   27.8714 C.2       1 UNK         0.0000 
     11 C11         1.1229   52.7942   26.4753 C.3       1 UNK         0.0000 
     12 H12         0.7044   53.6962   26.0410 H         1 UNK         0.0000 
     13 N13         2.5235   53.2208   26.7045 N.am      1 UNK         0.0000 
     14 C14         2.8309   53.1676   28.0336 C.2       1 UNK         0.0000 
     15 O15         3.9196   53.4299   28.5599 O.2       1 UNK         0.0000 
     16 C16         1.6188   52.7465   28.7099 C.2       1 UNK         0.0000 
     17 O17         1.6876   52.6207   29.9930 O.co2     1 UNK         0.0000 
     18 C18         3.3755   53.6964   25.6795 C.2       1 UNK         0.0000 
     19 N19         3.0261   53.7134   24.4212 N.2       1 UNK         0.0000 
     20 C20         4.0396   54.0950   23.6003 C.ar      1 UNK         0.0000 
     21 C21         3.9719   54.1017   22.1996 C.ar      1 UNK         0.0000 
     22 C22         5.1049   54.4980   21.4828 C.ar      1 UNK         0.0000 
     23 C23         6.2753   54.8966   22.1316 C.ar      1 UNK         0.0000 
     24 C24         6.3668   54.8858   23.5238 C.ar      1 UNK         0.0000 
     25 C25         5.2404   54.4752   24.2522 C.ar      1 UNK         0.0000 
     26 S26         5.0118   54.3104   25.9827 S.3       1 UNK         0.0000 
     27 F27         7.3390   55.2991   21.4009 F         1 UNK         0.0000 
     28 C28         0.8553   51.6662   25.4474 C.ar      1 UNK         0.0000 
     29 C29         0.7042   50.3283   25.8494 C.ar      1 UNK         0.0000 
     30 C30         0.3615   49.3369   24.9349 C.ar      1 UNK         0.0000 
     31 C31         0.1588   49.6660   23.5978 C.ar      1 UNK         0.0000 
     32 C32         0.2772   50.9938   23.1635 C.ar      1 UNK         0.0000 
     33 C33         0.6073   51.9810   24.1047 C.ar      1 UNK         0.0000 
     34 N34         0.0489   51.3509   21.7437 N.pl3     1 UNK         0.0000 
     35 O35        -0.3947   50.4937   20.9857 O.co2     1 UNK         0.0000 
     36 O36         0.3043   52.4952   21.3815 O.co2     1 UNK         0.0000 
     37 O37        -0.9712   51.7194   29.4128 O.2       1 UNK         0.0000 
     38 H38        -6.7444   48.7601   26.8962 H         1 UNK         0.0000 
     39 H39        -6.7213   50.3934   26.2407 H         1 UNK         0.0000 
     40 H40        -5.8254   49.0877   25.4310 H         1 UNK         0.0000 
     41 H41        -4.9637   51.2580   24.8930 H         1 UNK         0.0000 
     42 H42        -3.2162   52.8600   24.2929 H         1 UNK         0.0000 
     43 H43        -1.3357   53.2506   25.7620 H         1 UNK         0.0000 
     44 H44        -2.8833   50.3281   28.5163 H         1 UNK         0.0000 
     45 H45         3.0670   53.8090   21.6850 H         1 UNK         0.0000 
     46 H46         5.0711   54.5130   20.4026 H         1 UNK         0.0000 
     47 H47         7.2838   55.1797   24.0130 H         1 UNK         0.0000 
     48 H48         0.8512   50.0448   26.8817 H         1 UNK         0.0000 
     49 H49         0.2606   48.3134   25.2686 H         1 UNK         0.0000 
     50 H50        -0.0984   48.8804   22.9022 H         1 UNK         0.0000 
     51 H51         0.6607   53.0130   23.7899 H         1 UNK         0.0000 
@<TRIPOS>BOND
     1    1    2 1    
     2    1   38 1    
     3    1   39 1    
     4    1   40 1    
     5    2    3 1    
     6    3    8 ar   
     7    3    4 ar   
     8    4    5 ar   
     9    4   41 1    
    10    5    6 ar   
    11    5   42 1    
    12    6    7 ar   
    13    6   43 1    
    14    7    8 ar   
    15    7    9 1    
    16    8   44 1    
    17    9   10 1    
    18    9   37 2    
    19   10   16 2    
    20   10   11 1    
    21   11   12 1    
    22   11   13 1    
    23   11   28 1    
    24   13   14 am   BACKBONE|DICT|INTERRES
    25   13   18 am   BACKBONE|DICT|INTERRES
    26   14   15 2    
    27   14   16 1    
    28   16   17 1    
    29   18   26 1    
    30   18   19 2    
    31   19   20 1    
    32   20   25 ar   
    33   20   21 ar   
    34   21   22 ar   
    35   21   45 1    
    36   22   23 ar   
    37   22   46 1    
    38   23   24 ar   
    39   23   27 1    
    40   24   25 ar   
    41   24   47 1    
    42   25   26 1    
    43   28   33 ar   
    44   28   29 ar   
    45   29   30 ar   
    46   29   48 1    
    47   30   31 ar   
    48   30   49 1    
    49   31   32 ar   
    50   31   50 1    
    51   32   33 ar   
    52   32   34 1    
    53   33   51 1    
    54   34   35 2    
    55   34   36 1    
@<TRIPOS>SUBSTRUCTURE
     1 UNK         1 GROUP             0       ****    0 ROOT    
