@<TRIPOS>MOLECULE
ZINC26884590_4385
46   48    1
SMALL
USER_CHARGES


@<TRIPOS>ATOM
      1 C1          1.2788   56.0701   30.4810 C.3       1 UNK         0.0000 
      2 C2          0.9989   54.5912   30.2642 C.2       1 UNK         0.0000 
      3 C3          0.3037   53.8023   31.1916 C.2       1 UNK         0.0000 
      4 C4          0.0888   52.4966   30.7829 C.2       1 UNK         0.0000 
      5 S5          0.8611   52.1489   29.2892 S.3       1 UNK         0.0000 
      6 C6          1.4200   53.8028   29.1760 C.2       1 UNK         0.0000 
      7 C7          2.2850   54.1932   28.0952 C.2       1 UNK         0.0000 
      8 O8          3.1041   55.0942   28.2499 O.2       1 UNK         0.0000 
      9 N9          2.0957   53.5053   26.9501 N.am      1 UNK         0.0000 
     10 C10         2.7294   53.6963   25.7176 C.ar      1 UNK         0.0000 
     11 C11         2.0210   53.2976   24.5865 C.ar      1 UNK         0.0000 
     12 C12         2.5500   53.4928   23.3121 C.ar      1 UNK         0.0000 
     13 C13         3.8212   54.0799   23.1656 C.ar      1 UNK         0.0000 
     14 C14         4.5517   54.4560   24.3077 C.ar      1 UNK         0.0000 
     15 C15         4.0061   54.2548   25.5731 C.ar      1 UNK         0.0000 
     16 Cl16        6.1373   55.1512   24.1995 Cl        1 UNK         0.0000 
     17 N17         4.3783   54.3416   21.9081 N.am      1 UNK         0.0000 
     18 C18         4.7811   53.4064   21.0292 C.2       1 UNK         0.0000 
     19 O19         4.6273   52.1940   21.1905 O.2       1 UNK         0.0000 
     20 C20         5.5036   53.9384   19.8182 C.ar      1 UNK         0.0000 
     21 C21         5.3271   53.3130   18.5812 C.ar      1 UNK         0.0000 
     22 C22         6.0711   53.7117   17.4758 C.ar      1 UNK         0.0000 
     23 C23         7.0002   54.7446   17.6054 C.ar      1 UNK         0.0000 
     24 C24         7.1577   55.4057   18.8250 C.ar      1 UNK         0.0000 
     25 C25         6.4089   55.0062   19.9278 C.ar      1 UNK         0.0000 
     26 S26         8.0250   55.1919   16.2107 S.o2      1 UNK         0.0000 
     27 O27         7.2664   54.8941   14.9904 O.2       1 UNK         0.0000 
     28 O28         8.5453   56.5406   16.4551 O.2       1 UNK         0.0000 
     29 C29         9.4528   53.9758   16.3343 C.3       1 UNK         0.0000 
     30 Cl30        1.5736   53.0131   21.9653 Cl        1 UNK         0.0000 
     31 H31         2.3093   56.3233   30.2735 H         1 UNK         0.0000 
     32 H32         0.7040   56.7010   29.8088 H         1 UNK         0.0000 
     33 H33         1.1048   56.3949   31.5064 H         1 UNK         0.0000 
     34 H34        -0.0911   54.1887   32.1212 H         1 UNK         0.0000 
     35 H35        -0.4786   51.7246   31.2816 H         1 UNK         0.0000 
     36 H36         1.3494   52.8249   26.9588 H         1 UNK         0.0000 
     37 H37         1.0388   52.8554   24.6829 H         1 UNK         0.0000 
     38 H38         4.5948   54.5402   26.4315 H         1 UNK         0.0000 
     39 H39         4.5582   55.3056   21.6823 H         1 UNK         0.0000 
     40 H40         4.6292   52.4966   18.4699 H         1 UNK         0.0000 
     41 H41         5.9390   53.1969   16.5339 H         1 UNK         0.0000 
     42 H42         7.8770   56.2050   18.9260 H         1 UNK         0.0000 
     43 H43         6.5792   55.5012   20.8733 H         1 UNK         0.0000 
     44 H44        10.1441   54.1769   15.5165 H         1 UNK         0.0000 
     45 H45         9.9502   54.1175   17.2938 H         1 UNK         0.0000 
     46 H46         9.0567   52.9632   16.2550 H         1 UNK         0.0000 
@<TRIPOS>BOND
     1    1    2 1    
     2    1   31 1    
     3    1   32 1    
     4    1   33 1    
     5    2    6 2    
     6    2    3 1    
     7    3    4 2    
     8    3   34 1    
     9    4    5 1    
    10    4   35 1    
    11    5    6 1    
    12    6    7 1    
    13    7    8 2    
    14    7    9 am   BACKBONE|DICT|INTERRES
    15    9   10 1    
    16    9   36 1    
    17   10   15 ar   
    18   10   11 ar   
    19   11   12 ar   
    20   11   37 1    
    21   12   13 ar   
    22   12   30 1    
    23   13   14 ar   
    24   13   17 1    
    25   14   15 ar   
    26   14   16 1    
    27   15   38 1    
    28   17   18 am   BACKBONE|DICT|INTERRES
    29   17   39 1    
    30   18   19 2    
    31   18   20 1    
    32   20   25 ar   
    33   20   21 ar   
    34   21   22 ar   
    35   21   40 1    
    36   22   23 ar   
    37   22   41 1    
    38   23   24 ar   
    39   23   26 1    
    40   24   25 ar   
    41   24   42 1    
    42   25   43 1    
    43   26   27 2    
    44   26   28 2    
    45   26   29 1    
    46   29   44 1    
    47   29   45 1    
    48   29   46 1    
@<TRIPOS>SUBSTRUCTURE
     1 UNK         1 GROUP             0       ****    0 ROOT    
