@<TRIPOS>MOLECULE
ZINC40091582_5662
65   67    1
SMALL
USER_CHARGES


@<TRIPOS>ATOM
      1 C1         -1.0909   50.8100   15.1726 C.3       1 UNK         0.0000 
      2 C2         -0.6058   52.2058   15.5951 C.3       1 UNK         0.0000 
      3 C3         -0.0864   52.2630   17.0397 C.3       1 UNK         0.0000 
      4 O4         -1.1518   51.9431   17.9329 O.3       1 UNK         0.0000 
      5 C5         -0.8957   51.8313   19.2871 C.ar      1 UNK         0.0000 
      6 C6          0.3544   52.0967   19.8671 C.ar      1 UNK         0.0000 
      7 C7          0.5428   51.9762   21.2419 C.ar      1 UNK         0.0000 
      8 C8         -0.5159   51.5996   22.0769 C.ar      1 UNK         0.0000 
      9 C9         -1.7535   51.2968   21.4945 C.ar      1 UNK         0.0000 
     10 C10        -1.9531   51.4297   20.1163 C.ar      1 UNK         0.0000 
     11 C11        -3.3231   51.1283   19.5262 C.3       1 UNK         0.0000 
     12 C12        -0.2745   51.4218   23.5447 C.2       1 UNK         0.0000 
     13 O13         0.8219   51.0108   23.9282 O.2       1 UNK         0.0000 
     14 C14        -1.2844   51.8237   24.5487 C.2       1 UNK         0.0000 
     15 C15        -2.3735   52.6084   24.4572 C.2       1 UNK         0.0000 
     16 C16        -3.1649   52.6206   25.6759 C.2       1 UNK         0.0000 
     17 O17        -4.2312   53.2021   25.9142 O.2       1 UNK         0.0000 
     18 N18        -2.4875   51.8127   26.5216 N.am      1 UNK         0.0000 
     19 C19        -1.2078   51.3547   25.9826 C.3       1 UNK         0.0000 
     20 H20        -1.1967   50.2629   26.0106 H         1 UNK         0.0000 
     21 C21        -0.0008   51.8455   26.8172 C.ar      1 UNK         0.0000 
     22 C22         0.2048   51.2966   28.0787 C.ar      1 UNK         0.0000 
     23 C23         1.2452   51.7316   28.8853 C.ar      1 UNK         0.0000 
     24 C24         2.1412   52.7110   28.4446 C.ar      1 UNK         0.0000 
     25 C25         1.9396   53.2670   27.1743 C.ar      1 UNK         0.0000 
     26 C26         0.8822   52.8405   26.3735 C.ar      1 UNK         0.0000 
     27 C27         3.3243   53.1768   29.3260 C.3       1 UNK         0.0000 
     28 C28         4.6598   53.1132   28.5415 C.3       1 UNK         0.0000 
     29 C29         3.5021   52.3278   30.6151 C.3       1 UNK         0.0000 
     30 C30         3.0843   54.6271   29.7694 C.3       1 UNK         0.0000 
     31 C31        -3.0950   51.3393   27.7765 C.3       1 UNK         0.0000 
     32 C32        -3.8803   50.0262   27.6029 C.3       1 UNK         0.0000 
     33 O33        -4.0957   49.4026   28.8510 O.3       1 UNK         0.0000 
     34 O34        -2.8112   53.2961   23.4628 O.co2     1 UNK         0.0000 
     35 H35        -1.4352   50.8136   14.1380 H         1 UNK         0.0000 
     36 H36        -0.2911   50.0723   15.2537 H         1 UNK         0.0000 
     37 H37        -1.9204   50.4733   15.7967 H         1 UNK         0.0000 
     38 H38        -1.4160   52.9259   15.4741 H         1 UNK         0.0000 
     39 H39         0.1880   52.5275   14.9186 H         1 UNK         0.0000 
     40 H40         0.2896   53.2646   17.2547 H         1 UNK         0.0000 
     41 H41         0.7446   51.5644   17.1569 H         1 UNK         0.0000 
     42 H42         1.1969   52.4091   19.2688 H         1 UNK         0.0000 
     43 H43         1.5203   52.1886   21.6531 H         1 UNK         0.0000 
     44 H44        -2.5739   50.9641   22.1149 H         1 UNK         0.0000 
     45 H45        -3.6835   51.9848   18.9561 H         1 UNK         0.0000 
     46 H46        -3.2560   50.2862   18.8366 H         1 UNK         0.0000 
     47 H47        -4.0637   50.8962   20.2926 H         1 UNK         0.0000 
     48 H48        -0.4353   50.5052   28.4376 H         1 UNK         0.0000 
     49 H49         1.3303   51.2964   29.8633 H         1 UNK         0.0000 
     50 H50         2.5936   54.0387   26.7989 H         1 UNK         0.0000 
     51 H51         0.7523   53.2974   25.4051 H         1 UNK         0.0000 
     52 H52         5.5004   53.4541   29.1454 H         1 UNK         0.0000 
     53 H53         4.6514   53.7360   27.6471 H         1 UNK         0.0000 
     54 H54         4.8859   52.0967   28.2277 H         1 UNK         0.0000 
     55 H55         2.6122   52.3368   31.2457 H         1 UNK         0.0000 
     56 H56         3.7465   51.2969   30.3715 H         1 UNK         0.0000 
     57 H57         4.3045   52.7033   31.2461 H         1 UNK         0.0000 
     58 H58         2.1182   54.7500   30.2610 H         1 UNK         0.0000 
     59 H59         3.8606   54.8967   30.4801 H         1 UNK         0.0000 
     60 H60         3.1253   55.3324   28.9385 H         1 UNK         0.0000 
     61 H61        -2.3431   51.2352   28.5541 H         1 UNK         0.0000 
     62 H62        -3.7907   52.0956   28.1414 H         1 UNK         0.0000 
     63 H63        -4.7961   50.1783   27.0311 H         1 UNK         0.0000 
     64 H64        -3.2913   49.3244   27.0119 H         1 UNK         0.0000 
     65 H65        -3.2512   48.9968   29.1163 H         1 UNK         0.0000 
@<TRIPOS>BOND
     1    1    2 1    
     2    1   35 1    
     3    1   36 1    
     4    1   37 1    
     5    2    3 1    
     6    2   38 1    
     7    2   39 1    
     8    3    4 1    
     9    3   40 1    
    10    3   41 1    
    11    4    5 1    
    12    5   10 ar   
    13    5    6 ar   
    14    6    7 ar   
    15    6   42 1    
    16    7    8 ar   
    17    7   43 1    
    18    8    9 ar   
    19    8   12 1    
    20    9   10 ar   
    21    9   44 1    
    22   10   11 1    
    23   11   45 1    
    24   11   46 1    
    25   11   47 1    
    26   12   13 2    
    27   12   14 1    
    28   14   19 1    
    29   14   15 2    
    30   15   16 1    
    31   15   34 1    
    32   16   17 2    
    33   16   18 am   BACKBONE|DICT|INTERRES
    34   18   19 1    
    35   18   31 1    
    36   19   20 1    
    37   19   21 1    
    38   21   26 ar   
    39   21   22 ar   
    40   22   23 ar   
    41   22   48 1    
    42   23   24 ar   
    43   23   49 1    
    44   24   25 ar   
    45   24   27 1    
    46   25   26 ar   
    47   25   50 1    
    48   26   51 1    
    49   27   28 1    
    50   27   29 1    
    51   27   30 1    
    52   28   52 1    
    53   28   53 1    
    54   28   54 1    
    55   29   55 1    
    56   29   56 1    
    57   29   57 1    
    58   30   58 1    
    59   30   59 1    
    60   30   60 1    
    61   31   32 1    
    62   31   61 1    
    63   31   62 1    
    64   32   33 1    
    65   32   63 1    
    66   32   64 1    
    67   33   65 1    
@<TRIPOS>SUBSTRUCTURE
     1 UNK         1 GROUP             0       ****    0 ROOT    
