@<TRIPOS>MOLECULE
ZINC59434887_5219
40   42    1
SMALL
USER_CHARGES


@<TRIPOS>ATOM
      1 C1          2.1210   53.8069   29.0131 C.3       1 UNK         0.0000 
      2 C2          3.2969   54.0168   28.0789 C.ar      1 UNK         0.0000 
      3 C3          4.5774   54.1748   28.6232 C.ar      1 UNK         0.0000 
      4 C4          5.6993   54.3479   27.8126 C.ar      1 UNK         0.0000 
      5 C5          5.5166   54.3744   26.4254 C.ar      1 UNK         0.0000 
      6 C6          4.2149   54.2151   25.8884 C.ar      1 UNK         0.0000 
      7 C7          3.0887   54.0270   26.6949 C.ar      1 UNK         0.0000 
      8 N8          4.4112   54.2921   24.5328 N.pl3     1 UNK         0.0000 
      9 C9          5.7572   54.4908   24.3190 C.ar      1 UNK         0.0000 
     10 N10         6.4448   54.5406   25.4345 N.2       1 UNK         0.0000 
     11 S11         6.5190   54.6486   22.7396 S.3       1 UNK         0.0000 
     12 C12         5.0686   54.6131   21.6280 C.3       1 UNK         0.0000 
     13 C13         4.5749   53.2192   21.2268 C.2       1 UNK         0.0000 
     14 O14         5.1043   52.2039   21.6812 O.2       1 UNK         0.0000 
     15 N15         3.5470   53.2231   20.3576 N.am      1 UNK         0.0000 
     16 C16         2.9078   52.1310   19.7474 C.ar      1 UNK         0.0000 
     17 C17         2.8205   50.8639   20.3425 C.ar      1 UNK         0.0000 
     18 C18         2.1910   49.8161   19.6744 C.ar      1 UNK         0.0000 
     19 C19         1.6124   50.0101   18.4171 C.ar      1 UNK         0.0000 
     20 C20         1.6896   51.2830   17.8311 C.ar      1 UNK         0.0000 
     21 C21         2.3324   52.3346   18.4840 C.ar      1 UNK         0.0000 
     22 Br22        2.4183   54.0308   17.6105 Br        1 UNK         0.0000 
     23 O23         1.0038   48.9202   17.8266 O.3       1 UNK         0.0000 
     24 C24         0.5254   49.0290   16.4932 C.3       1 UNK         0.0000 
     25 Br25        2.1505   48.0957   20.4818 Br        1 UNK         0.0000 
     26 H26         1.7121   54.7686   29.3256 H         1 UNK         0.0000 
     27 H27         1.3362   53.2204   28.5322 H         1 UNK         0.0000 
     28 H28         2.4268   53.2517   29.9019 H         1 UNK         0.0000 
     29 H29         4.7041   54.1678   29.6938 H         1 UNK         0.0000 
     30 H30         6.6817   54.4641   28.2452 H         1 UNK         0.0000 
     31 H31         2.1035   53.8970   26.2740 H         1 UNK         0.0000 
     32 H32         5.3646   55.1237   20.7100 H         1 UNK         0.0000 
     33 H33         4.2455   55.1852   22.0538 H         1 UNK         0.0000 
     34 H34         3.2507   54.1265   20.0100 H         1 UNK         0.0000 
     35 H35         3.2378   50.6734   21.3189 H         1 UNK         0.0000 
     36 H36         1.2667   51.4724   16.8571 H         1 UNK         0.0000 
     37 H37         0.1311   48.0631   16.1770 H         1 UNK         0.0000 
     38 H38         1.3275   49.3003   15.8048 H         1 UNK         0.0000 
     39 H39        -0.2825   49.7581   16.4175 H         1 UNK         0.0000 
     40 H40         3.7318   54.2161   23.7901 H         1 UNK         0.0000 
@<TRIPOS>BOND
     1    1    2 1    
     2    1   26 1    
     3    1   27 1    
     4    1   28 1    
     5    2    7 ar   
     6    2    3 ar   
     7    3    4 ar   
     8    3   29 1    
     9    4    5 ar   
    10    4   30 1    
    11    5   10 ar   
    12    5    6 ar   
    13    6    7 ar   
    14    6    8 ar   
    15    7   31 1    
    16    8    9 ar   
    17    8   40 1    
    18    9   10 ar   
    19    9   11 1    
    20   11   12 1    
    21   12   13 1    
    22   12   32 1    
    23   12   33 1    
    24   13   14 2    
    25   13   15 am   BACKBONE|DICT|INTERRES
    26   15   16 1    
    27   15   34 1    
    28   16   21 ar   
    29   16   17 ar   
    30   17   18 ar   
    31   17   35 1    
    32   18   19 ar   
    33   18   25 1    
    34   19   20 ar   
    35   19   23 1    
    36   20   21 ar   
    37   20   36 1    
    38   21   22 1    
    39   23   24 1    
    40   24   37 1    
    41   24   38 1    
    42   24   39 1    
@<TRIPOS>SUBSTRUCTURE
     1 UNK         1 GROUP             0       ****    0 ROOT    
