@<TRIPOS>MOLECULE
ZINC43460889_3781
36   39    1
SMALL
USER_CHARGES


@<TRIPOS>ATOM
      1 C1          6.5196   54.8969   23.8275 C.ar      1 UNK         0.0000 
      2 C2          5.8753   54.7657   22.5965 C.ar      1 UNK         0.0000 
      3 C3          4.5650   54.2755   22.5619 C.ar      1 UNK         0.0000 
      4 N4          3.8491   53.9367   23.6700 N.ar      1 UNK         0.0000 
      5 C5          4.4981   54.0432   24.8351 C.ar      1 UNK         0.0000 
      6 C6          5.8184   54.4918   24.9686 C.ar      1 UNK         0.0000 
      7 N7          6.1659   54.4284   26.2805 N.2       1 UNK         0.0000 
      8 C8          5.1025   53.8812   26.8378 C.ar      1 UNK         0.0000 
      9 N9          4.0494   53.7018   26.0662 N.ar      1 UNK         0.0000 
     10 C10         5.0487   53.6361   28.3430 C.3       1 UNK         0.0000 
     11 H11         6.0604   53.5679   28.7450 H         1 UNK         0.0000 
     12 C12         4.1347   52.4997   28.8728 C.3       1 UNK         0.0000 
     13 C13         3.3067   53.0817   30.0268 C.3       1 UNK         0.0000 
     14 H14         3.9200   53.0816   30.9301 H         1 UNK         0.0000 
     15 C15         1.9631   52.3713   30.3183 C.3       1 UNK         0.0000 
     16 C16         0.8345   52.6731   29.3171 C.3       1 UNK         0.0000 
     17 C17         0.6590   54.1792   29.0878 C.3       1 UNK         0.0000 
     18 C18         1.9682   54.8368   28.6322 C.3       1 UNK         0.0000 
     19 C19         3.1339   54.5518   29.6051 C.3       1 UNK         0.0000 
     20 H20         2.9855   55.1761   30.4816 H         1 UNK         0.0000 
     21 N21         4.5038   54.8967   29.0150 N.4       1 UNK         0.0000 
     22 Br22        6.7251   55.3525   20.9997 Br        1 UNK         0.0000 
     23 H23         7.5046   55.3085   23.8990 H         1 UNK         0.0000 
     24 H24         4.0410   54.1941   21.6201 H         1 UNK         0.0000 
     25 H25         3.4318   52.2362   28.0815 H         1 UNK         0.0000 
     26 H26         4.6706   51.5934   29.1518 H         1 UNK         0.0000 
     27 H27         2.1161   51.2981   30.3499 H         1 UNK         0.0000 
     28 H28         1.6247   52.6466   31.3193 H         1 UNK         0.0000 
     29 H29        -0.1000   52.2368   29.6743 H         1 UNK         0.0000 
     30 H30         1.0478   52.1822   28.3654 H         1 UNK         0.0000 
     31 H31         0.3063   54.6538   30.0047 H         1 UNK         0.0000 
     32 H32        -0.1164   54.3452   28.3387 H         1 UNK         0.0000 
     33 H33         1.8636   55.9080   28.4483 H         1 UNK         0.0000 
     34 H34         2.1966   54.4146   27.6546 H         1 UNK         0.0000 
     35 H35         5.1533   55.1978   29.7267 H         1 UNK         0.0000 
     36 H36         4.4430   55.6428   28.3361 H         1 UNK         0.0000 
@<TRIPOS>BOND
     1    1    2 ar   
     2    1   23 1    
     3    1    6 ar   
     4    2    3 ar   
     5    2   22 1    
     6    3   24 1    
     7    3    4 ar   
     8    4    5 ar   
     9    5    9 ar   
    10    5    6 ar   
    11    6    7 ar   
    12    7    8 ar   
    13    8   10 1    
    14    8    9 ar   
    15   10   11 1    
    16   10   21 1    
    17   10   12 1    
    18   12   13 1    
    19   12   25 1    
    20   12   26 1    
    21   13   14 1    
    22   13   19 1    
    23   13   15 1    
    24   15   16 1    
    25   15   27 1    
    26   15   28 1    
    27   16   17 1    
    28   16   29 1    
    29   16   30 1    
    30   17   18 1    
    31   17   31 1    
    32   17   32 1    
    33   18   19 1    
    34   18   33 1    
    35   18   34 1    
    36   19   20 1    
    37   19   21 1    
    38   21   35 1    
    39   21   36 1    
@<TRIPOS>SUBSTRUCTURE
     1 UNK         1 GROUP             0       ****    0 ROOT    
