ZINC23707280_727
                    3D
 Schrodinger Suite 2024-2.
 59 62  0  0  1  0            999 V2000
    0.3998   44.0675   16.0806 C   0  0  0  0  0  0
    0.2203   44.4201   17.4121 C   0  0  0  0  0  0
    0.7029   45.6384   17.8789 C   0  0  0  0  0  0
    1.3951   46.5239   17.0286 C   0  0  0  0  0  0
    1.5442   46.1735   15.6654 C   0  0  0  0  0  0
    1.0467   44.9412   15.2152 C   0  0  0  0  0  0
    2.2004   47.1124   14.6427 C   0  0  0  0  0  0
    2.0394   46.7001   13.3823 F   0  0  0  0  0  0
    1.7007   48.3455   14.7295 F   0  0  0  0  0  0
    3.5041   47.1510   14.8826 F   0  0  0  0  0  0
    1.9036   47.7755   17.4718 N   0  0  0  0  0  0
    1.9048   48.3209   18.7089 C   0  0  0  0  0  0
    1.6730   47.6933   19.7424 O   0  0  0  0  0  0
    2.2097   49.8356   18.7792 C   0  0  0  0  0  0
    2.4655   50.3029   20.2403 N   0  3  0  0  0  0
    3.2056   51.6599   20.2420 C   0  0  0  0  0  0
    3.5592   52.0581   21.6920 C   0  0  0  0  0  0
    2.3334   52.0400   22.5288 N   0  0  0  0  0  0
    1.5350   50.7941   22.5022 C   0  0  0  0  0  0
    1.1567   50.4904   21.0419 C   0  0  0  0  0  0
    1.8944   53.1056   23.2549 C   0  0  0  0  0  0
    0.8040   53.0959   23.8276 O   0  0  0  0  0  0
    2.7445   54.3924   23.3872 C   0  0  0  0  0  0
    3.9207   54.2077   24.2780 N   0  0  0  0  0  0
    5.1644   54.4998   23.5346 C   0  0  0  0  0  0
    6.2424   55.2458   24.3297 C   0  0  0  0  0  0
    6.7043   54.2721   25.7660 S   0  0  0  0  0  0
    5.0907   54.1710   26.4696 C   0  0  0  0  0  0
    3.9054   54.1276   25.6896 C   0  0  0  0  0  0
    2.6914   54.0150   26.3859 C   0  0  0  0  0  0
    2.6377   53.9398   27.7756 C   0  0  0  0  0  0
    3.8114   53.9773   28.5160 C   0  0  0  0  0  0
    5.0300   54.0940   27.8632 C   0  0  0  0  0  0
    0.0234   43.1231   15.7115 H   0  0  0  0  0  0
   -0.2958   43.7514   18.0839 H   0  0  0  0  0  0
    0.5235   45.8558   18.9192 H   0  0  0  0  0  0
    1.1539   44.6482   14.1810 H   0  0  0  0  0  0
    2.4003   48.3207   16.7716 H   0  0  0  0  0  0
    3.1041   50.0960   18.2131 H   0  0  0  0  0  0
    1.3883   50.4356   18.3876 H   0  0  0  0  0  0
    4.1306   51.5052   19.6830 H   0  0  0  0  0  0
    2.6017   52.4071   19.7189 H   0  0  0  0  0  0
    4.2992   51.3595   22.0811 H   0  0  0  0  0  0
    4.0330   53.0362   21.6525 H   0  0  0  0  0  0
    0.6282   50.8483   23.1082 H   0  0  0  0  0  0
    2.1256   49.9745   22.9174 H   0  0  0  0  0  0
    0.5480   51.2684   20.5754 H   0  0  0  0  0  0
    0.6067   49.5491   21.0122 H   0  0  0  0  0  0
    2.9750   54.7222   22.3748 H   0  0  0  0  0  0
    2.1341   55.2016   23.7824 H   0  0  0  0  0  0
    5.6335   53.5163   23.4422 H   0  0  0  0  0  0
    5.0578   54.8490   22.5060 H   0  0  0  0  0  0
    7.1422   55.3941   23.7283 H   0  0  0  0  0  0
    5.9043   56.2252   24.6674 H   0  0  0  0  0  0
    1.7493   54.0106   25.8668 H   0  0  0  0  0  0
    1.6830   53.8535   28.2698 H   0  0  0  0  0  0
    3.7754   53.9192   29.5940 H   0  0  0  0  0  0
    5.9410   54.1250   28.4473 H   0  0  0  0  0  0
    3.0374   49.5916   20.6788 H   0  0  0  0  0  0
  1  6  2  0  0  0
  1  2  1  0  0  0
  1 34  1  0  0  0
  2  3  2  0  0  0
  2 35  1  0  0  0
  3  4  1  0  0  0
  3 36  1  0  0  0
  4  5  2  0  0  0
  4 11  1  0  0  0
  5  6  1  0  0  0
  5  7  1  0  0  0
  6 37  1  0  0  0
  7  8  1  0  0  0
  7  9  1  0  0  0
  7 10  1  0  0  0
 11 12  1  0  0  0
 11 38  1  0  0  0
 12 13  2  0  0  0
 12 14  1  0  0  0
 14 15  1  0  0  0
 14 39  1  0  0  0
 14 40  1  0  0  0
 15 20  1  0  0  0
 15 16  1  0  0  0
 15 59  1  0  0  0
 16 17  1  0  0  0
 16 41  1  0  0  0
 16 42  1  0  0  0
 17 18  1  0  0  0
 17 43  1  0  0  0
 17 44  1  0  0  0
 18 19  1  0  0  0
 18 21  1  0  0  0
 19 20  1  0  0  0
 19 45  1  0  0  0
 19 46  1  0  0  0
 20 47  1  0  0  0
 20 48  1  0  0  0
 21 22  2  0  0  0
 21 23  1  0  0  0
 23 24  1  0  0  0
 23 49  1  0  0  0
 23 50  1  0  0  0
 24 29  1  0  0  0
 24 25  1  0  0  0
 25 26  1  0  0  0
 25 51  1  0  0  0
 25 52  1  0  0  0
 26 27  1  0  0  0
 26 53  1  0  0  0
 26 54  1  0  0  0
 27 28  1  0  0  0
 28 33  2  0  0  0
 28 29  1  0  0  0
 29 30  2  0  0  0
 30 31  1  0  0  0
 30 55  1  0  0  0
 31 32  2  0  0  0
 31 56  1  0  0  0
 32 33  1  0  0  0
 32 57  1  0  0  0
 33 58  1  0  0  0
M  CHG  1  15   1
M  END
> <i_i_glide_confnum>
206

> <i_i_glide_lignum>
728

> <i_i_glide_posenum>
44

> <i_i_glide_rotatable_bonds>
8

> <i_m_Source_File_Index>
3077

> <b_m_subgroup_collapsed>
0

> <r_i_docking_score>
-6.10906

> <r_i_glide_ecoul>
-6.54847

> <r_i_glide_eff_state_penalty>
0

> <r_i_glide_einternal>
8.00442

> <r_i_glide_emodel>
-60.4969

> <r_i_glide_energy>
-45.1648

> <r_i_glide_erotb>
0.617102

> <r_i_glide_esite>
-0.39425

> <r_i_glide_evdw>
-38.6164

> <r_i_glide_gscore>
-6.10906

> <r_i_glide_hbond>
-0.115289

> <r_i_glide_ligand_efficiency>
-0.185123

> <r_i_glide_ligand_efficiency_ln>
-1.35862

> <r_i_glide_ligand_efficiency_sa>
-0.593789

> <r_i_glide_lipo>
-2.47006

> <r_i_glide_metal>
0

> <r_i_glide_rewards>
-0.833476

> <s_i_glide_gridfile>
wee1_glide-grid

> <s_m_Source_File>
wee1_decoys_glide_SP.sdf

> <s_m_Source_Path>
/Users/zhangxujun/Desktop

> <s_m_entry_id>
3352

> <s_m_entry_name>
wee1_decoys_glide_SP.3077

> <s_m_subgroup_title>
wee1_decoys_glide_SP

> <s_m_subgroupid>
wee1_decoys_glide_SP


$$$$
