@<TRIPOS>MOLECULE
ZINC61856106_4813
39   40    1
SMALL
USER_CHARGES


@<TRIPOS>ATOM
      1 C1          7.8722   55.6951   21.6144 C.3       1 UNK         0.0000 
      2 C2          6.7065   55.0840   22.3682 C.ar      1 UNK         0.0000 
      3 C3          5.6652   54.4949   21.6565 C.ar      1 UNK         0.0000 
      4 C4          4.6380   53.8442   22.3346 C.ar      1 UNK         0.0000 
      5 C5          4.6282   53.8457   23.7288 C.ar      1 UNK         0.0000 
      6 C6          5.6183   54.4973   24.4871 C.ar      1 UNK         0.0000 
      7 C7          6.6748   55.0929   23.7665 C.ar      1 UNK         0.0000 
      8 N8          5.5643   54.5080   25.9182 N.pl3     1 UNK         0.0000 
      9 C9          6.7033   55.1130   26.6259 C.3       1 UNK         0.0000 
     10 C10         4.5294   54.0398   26.7766 C.ar      1 UNK         0.0000 
     11 C11         3.1839   54.2020   26.4312 C.ar      1 UNK         0.0000 
     12 C12         2.1625   53.7012   27.2311 C.ar      1 UNK         0.0000 
     13 C13         2.4406   53.0272   28.4266 C.ar      1 UNK         0.0000 
     14 C14         3.7919   52.8972   28.8108 C.ar      1 UNK         0.0000 
     15 C15         4.8091   53.3961   27.9923 C.ar      1 UNK         0.0000 
     16 Cl16        4.2554   52.0940   30.2750 Cl        1 UNK         0.0000 
     17 C17         1.3223   52.4335   29.1712 C.2       1 UNK         0.0000 
     18 N18         1.0341   52.8612   30.3366 N.2       1 UNK         0.0000 
     19 O19        -0.0954   52.2085   30.8778 O.3       1 UNK         0.0000 
     20 N20         0.7231   51.4428   28.4125 N.pl3     1 UNK         0.0000 
     21 C21         3.5739   53.0876   21.5626 C.3       1 UNK         0.0000 
     22 H22         7.5447   56.1235   20.6672 H         1 UNK         0.0000 
     23 H23         8.3356   56.4965   22.1868 H         1 UNK         0.0000 
     24 H24         8.6234   54.9293   21.4087 H         1 UNK         0.0000 
     25 H25         5.6874   54.4828   20.5764 H         1 UNK         0.0000 
     26 H26         3.8371   53.2974   24.2079 H         1 UNK         0.0000 
     27 H27         7.5038   55.5670   24.2663 H         1 UNK         0.0000 
     28 H28         6.9416   56.0963   26.2202 H         1 UNK         0.0000 
     29 H29         6.5146   55.2841   27.6861 H         1 UNK         0.0000 
     30 H30         7.5733   54.4627   26.5585 H         1 UNK         0.0000 
     31 H31         2.9167   54.7322   25.5290 H         1 UNK         0.0000 
     32 H32         1.1378   53.8280   26.9066 H         1 UNK         0.0000 
     33 H33         5.8331   53.2417   28.2985 H         1 UNK         0.0000 
     34 H34        -0.1482   52.5149   31.7926 H         1 UNK         0.0000 
     35 H35        -0.0669   50.9421   28.8009 H         1 UNK         0.0000 
     36 H36         1.0929   51.1599   27.5202 H         1 UNK         0.0000 
     37 H37         3.9511   52.7476   20.5973 H         1 UNK         0.0000 
     38 H38         3.2646   52.1923   22.1043 H         1 UNK         0.0000 
     39 H39         2.6933   53.7075   21.3986 H         1 UNK         0.0000 
@<TRIPOS>BOND
     1    1    2 1    
     2    1   22 1    
     3    1   23 1    
     4    1   24 1    
     5    2    7 ar   
     6    2    3 ar   
     7    3    4 ar   
     8    3   25 1    
     9    4    5 ar   
    10    4   21 1    
    11    5    6 ar   
    12    5   26 1    
    13    6    7 ar   
    14    6    8 1    
    15    7   27 1    
    16    8    9 1    
    17    8   10 1    
    18    9   28 1    
    19    9   29 1    
    20    9   30 1    
    21   10   15 ar   
    22   10   11 ar   
    23   11   12 ar   
    24   11   31 1    
    25   12   13 ar   
    26   12   32 1    
    27   13   14 ar   
    28   13   17 1    
    29   14   15 ar   
    30   14   16 1    
    31   15   33 1    
    32   17   18 2    
    33   17   20 1    
    34   18   19 1    
    35   19   34 1    
    36   20   35 1    
    37   20   36 1    
    38   21   37 1    
    39   21   38 1    
    40   21   39 1    
@<TRIPOS>SUBSTRUCTURE
     1 UNK         1 GROUP             0       ****    0 ROOT    
