@<TRIPOS>MOLECULE
ZINC59588681_800
54   57    1
SMALL
USER_CHARGES


@<TRIPOS>ATOM
      1 C1          3.6641   53.6659   22.0476 C.ar      1 UNK         0.0000 
      2 C2          3.8367   53.6977   23.4308 C.ar      1 UNK         0.0000 
      3 C3          5.0492   54.1227   23.9775 C.ar      1 UNK         0.0000 
      4 C4          6.0927   54.5131   23.1245 C.ar      1 UNK         0.0000 
      5 C5          5.9034   54.5251   21.7481 C.ar      1 UNK         0.0000 
      6 C6          4.6956   54.0888   21.2055 C.ar      1 UNK         0.0000 
      7 C7          4.5230   54.0410   19.7316 C.ar      1 UNK         0.0000 
      8 C8          3.9923   53.0530   18.9036 C.ar      1 UNK         0.0000 
      9 N9          4.0811   53.4616   17.5808 N.pl3     1 UNK         0.0000 
     10 C10         4.6054   54.7446   17.5769 C.ar      1 UNK         0.0000 
     11 N11         4.9056   55.0644   18.8798 N.pl3     1 UNK         0.0000 
     12 C12         4.8956   55.5671   16.3341 C.3       1 UNK         0.0000 
     13 C13         4.1186   54.9488   15.1487 C.3       1 UNK         0.0000 
     14 C14         4.2165   53.4076   15.1214 C.3       1 UNK         0.0000 
     15 C15         3.6197   52.7441   16.3913 C.3       1 UNK         0.0000 
     16 N16         5.1721   54.0963   25.3821 N.am      1 UNK         0.0000 
     17 C17         6.0164   54.8242   26.1398 C.2       1 UNK         0.0000 
     18 O18         6.7048   55.7337   25.6862 O.2       1 UNK         0.0000 
     19 C19         6.1500   54.5129   27.6395 C.3       1 UNK         0.0000 
     20 C20         5.4502   53.2884   28.2674 C.3       1 UNK         0.0000 
     21 N21         4.0128   53.1053   28.1094 N.am      1 UNK         0.0000 
     22 C22         3.1423   53.4458   29.0771 C.2       1 UNK         0.0000 
     23 O23         3.4662   54.0874   30.0812 O.2       1 UNK         0.0000 
     24 C24         1.7388   52.9098   28.9168 C.ar      1 UNK         0.0000 
     25 C25         0.9744   52.6165   30.0567 C.ar      1 UNK         0.0000 
     26 C26        -0.3145   52.1041   29.9301 C.ar      1 UNK         0.0000 
     27 C27        -0.8529   51.9048   28.6630 C.ar      1 UNK         0.0000 
     28 C28        -0.1088   52.1875   27.5229 C.ar      1 UNK         0.0000 
     29 C29         1.1828   52.6891   27.6464 C.ar      1 UNK         0.0000 
     30 Br30       -2.6450   51.2956   28.4823 Br        1 UNK         0.0000 
     31 H31         2.7234   53.3319   21.6309 H         1 UNK         0.0000 
     32 H32         3.0266   53.3812   24.0704 H         1 UNK         0.0000 
     33 H33         7.0566   54.8175   23.5025 H         1 UNK         0.0000 
     34 H34         6.7138   54.8432   21.1085 H         1 UNK         0.0000 
     35 H35         3.6001   52.0718   19.1332 H         1 UNK         0.0000 
     36 H36         4.6222   56.6144   16.4673 H         1 UNK         0.0000 
     37 H37         5.9660   55.5472   16.1238 H         1 UNK         0.0000 
     38 H38         4.4882   55.3686   14.2112 H         1 UNK         0.0000 
     39 H39         3.0693   55.2416   15.2132 H         1 UNK         0.0000 
     40 H40         5.2627   53.1146   15.0145 H         1 UNK         0.0000 
     41 H41         3.7095   53.0167   14.2368 H         1 UNK         0.0000 
     42 H42         3.9052   51.6960   16.4704 H         1 UNK         0.0000 
     43 H43         2.5304   52.7824   16.3760 H         1 UNK         0.0000 
     44 H44         4.5327   53.4915   25.8719 H         1 UNK         0.0000 
     45 H45         5.7665   55.3763   28.1806 H         1 UNK         0.0000 
     46 H46         7.1804   54.5614   27.9920 H         1 UNK         0.0000 
     47 H47         5.9058   52.8971   29.1732 H         1 UNK         0.0000 
     48 H48         5.7891   52.4967   27.6007 H         1 UNK         0.0000 
     49 H49         3.7057   52.4379   27.4182 H         1 UNK         0.0000 
     50 H50         1.3716   52.7709   31.0507 H         1 UNK         0.0000 
     51 H51        -0.8965   51.8743   30.8133 H         1 UNK         0.0000 
     52 H52        -0.5378   52.0286   26.5448 H         1 UNK         0.0000 
     53 H53         1.7377   52.9138   26.7467 H         1 UNK         0.0000 
     54 H54         5.3222   55.9357   19.1777 H         1 UNK         0.0000 
@<TRIPOS>BOND
     1    1    6 ar   
     2    1    2 ar   
     3    1   31 1    
     4    2    3 ar   
     5    2   32 1    
     6    3    4 ar   
     7    3   16 1    
     8    4    5 ar   
     9    4   33 1    
    10    5    6 ar   
    11    5   34 1    
    12    6    7 1    
    13    7   11 ar   
    14    7    8 ar   
    15    8    9 ar   
    16    8   35 1    
    17    9   15 1    
    18    9   10 ar   
    19   10   11 ar   
    20   10   12 1    
    21   11   54 1    
    22   12   13 1    
    23   12   36 1    
    24   12   37 1    
    25   13   14 1    
    26   13   38 1    
    27   13   39 1    
    28   14   15 1    
    29   14   40 1    
    30   14   41 1    
    31   15   42 1    
    32   15   43 1    
    33   16   17 am   BACKBONE|DICT|INTERRES
    34   16   44 1    
    35   17   18 2    
    36   17   19 1    
    37   19   20 1    
    38   19   45 1    
    39   19   46 1    
    40   20   21 1    
    41   20   47 1    
    42   20   48 1    
    43   21   22 am   BACKBONE|DICT|INTERRES
    44   21   49 1    
    45   22   23 2    
    46   22   24 1    
    47   24   29 ar   
    48   24   25 ar   
    49   25   26 ar   
    50   25   50 1    
    51   26   27 ar   
    52   26   51 1    
    53   27   28 ar   
    54   27   30 1    
    55   28   29 ar   
    56   28   52 1    
    57   29   53 1    
@<TRIPOS>SUBSTRUCTURE
     1 UNK         1 GROUP             0       ****    0 ROOT    
