@<TRIPOS>MOLECULE
ZINC40345980_4795
34   35    1
SMALL
USER_CHARGES


@<TRIPOS>ATOM
      1 C1          3.2702   53.7979   22.2013 C.3       1 UNK         0.0000 
      2 C2          4.4821   54.0935   23.0483 C.2       1 UNK         0.0000 
      3 C3          5.8282   54.2702   22.7790 C.2       1 UNK         0.0000 
      4 C4          6.4534   54.4820   24.0048 C.2       1 UNK         0.0000 
      5 C5          5.4762   54.4256   24.9868 C.2       1 UNK         0.0000 
      6 O6          4.2730   54.2070   24.3849 O.3       1 UNK         0.0000 
      7 C7          5.4897   54.5744   26.5050 C.3       1 UNK         0.0000 
      8 H8          5.4219   55.6404   26.7246 H         1 UNK         0.0000 
      9 C9          6.7944   54.0169   27.1074 C.3       1 UNK         0.0000 
     10 N10         4.3146   53.9192   27.0737 N.am      1 UNK         0.0000 
     11 C11         3.9139   53.9540   28.3559 C.2       1 UNK         0.0000 
     12 O12         4.5621   54.5025   29.2486 O.2       1 UNK         0.0000 
     13 C13         2.5998   53.2759   28.6639 C.ar      1 UNK         0.0000 
     14 C14         1.6964   52.8970   27.6551 C.ar      1 UNK         0.0000 
     15 C15         0.4773   52.3088   27.9805 C.ar      1 UNK         0.0000 
     16 C16         0.1252   52.1107   29.3136 C.ar      1 UNK         0.0000 
     17 C17         1.0076   52.4964   30.3314 C.ar      1 UNK         0.0000 
     18 C18         2.2439   53.0425   29.9982 C.ar      1 UNK         0.0000 
     19 N19         0.7044   52.3342   31.6823 N.pl3     1 UNK         0.0000 
     20 Br20       -1.5565   51.2968   29.6843 Br        1 UNK         0.0000 
     21 H21         3.5032   53.8166   21.1368 H         1 UNK         0.0000 
     22 H22         2.8567   52.8142   22.4231 H         1 UNK         0.0000 
     23 H23         2.4768   54.5269   22.3668 H         1 UNK         0.0000 
     24 H24         6.3014   54.2448   21.8092 H         1 UNK         0.0000 
     25 H25         7.5044   54.6569   24.1601 H         1 UNK         0.0000 
     26 H26         7.6649   54.4973   26.6705 H         1 UNK         0.0000 
     27 H27         6.8563   54.1806   28.1834 H         1 UNK         0.0000 
     28 H28         6.8870   52.9447   26.9330 H         1 UNK         0.0000 
     29 H29         3.6633   53.5588   26.3942 H         1 UNK         0.0000 
     30 H30         1.9172   53.0504   26.6086 H         1 UNK         0.0000 
     31 H31        -0.2014   52.0058   27.1966 H         1 UNK         0.0000 
     32 H32         2.9325   53.2967   30.7889 H         1 UNK         0.0000 
     33 H33         1.4062   52.4964   32.3900 H         1 UNK         0.0000 
     34 H34        -0.2480   52.0960   31.9729 H         1 UNK         0.0000 
@<TRIPOS>BOND
     1    1    2 1    
     2    1   21 1    
     3    1   22 1    
     4    1   23 1    
     5    2    6 1    
     6    2    3 2    
     7    3    4 1    
     8    3   24 1    
     9    4    5 2    
    10    4   25 1    
    11    5    6 1    
    12    5    7 1    
    13    7    8 1    
    14    7    9 1    
    15    7   10 1    
    16    9   26 1    
    17    9   27 1    
    18    9   28 1    
    19   10   11 am   BACKBONE|DICT|INTERRES
    20   10   29 1    
    21   11   12 2    
    22   11   13 1    
    23   13   18 ar   
    24   13   14 ar   
    25   14   15 ar   
    26   14   30 1    
    27   15   16 ar   
    28   15   31 1    
    29   16   17 ar   
    30   16   20 1    
    31   17   18 ar   
    32   17   19 1    
    33   18   32 1    
    34   19   33 1    
    35   19   34 1    
@<TRIPOS>SUBSTRUCTURE
     1 UNK         1 GROUP             0       ****    0 ROOT    
