@<TRIPOS>MOLECULE
ZINC40321281_951
61   65    1
SMALL
USER_CHARGES


@<TRIPOS>ATOM
      1 C1          2.3982   57.6958   16.0818 C.ar      1 UNK         0.0000 
      2 C2          2.4538   56.3165   16.2677 C.ar      1 UNK         0.0000 
      3 C3          3.6183   55.7351   16.7592 C.ar      1 UNK         0.0000 
      4 C4          4.7175   56.5362   17.0777 C.ar      1 UNK         0.0000 
      5 C5          4.6600   57.9196   16.8825 C.ar      1 UNK         0.0000 
      6 C6          3.4963   58.4966   16.3855 C.ar      1 UNK         0.0000 
      7 S7          6.2132   55.7673   17.7041 S.o2      1 UNK         0.0000 
      8 O8          7.0873   56.8218   18.2353 O.2       1 UNK         0.0000 
      9 O9          6.6699   54.8272   16.6749 O.2       1 UNK         0.0000 
     10 C10         5.6753   54.7656   19.1129 C.2       1 UNK         0.0000 
     11 C11         5.0155   53.5474   19.1726 C.2       1 UNK         0.0000 
     12 C12         4.8357   53.2671   20.5261 C.2       1 UNK         0.0000 
     13 C13         5.4177   54.3140   21.2365 C.2       1 UNK         0.0000 
     14 O14         5.9479   55.2140   20.3650 O.3       1 UNK         0.0000 
     15 C15         5.6541   54.4966   22.6376 C.2       1 UNK         0.0000 
     16 O16         6.7018   55.0017   23.0436 O.2       1 UNK         0.0000 
     17 N17         4.6087   54.0967   23.3946 N.am      1 UNK         0.0000 
     18 C18         4.4777   54.0971   24.7836 C.2       1 UNK         0.0000 
     19 C19         3.2865   53.8412   25.4968 C.2       1 UNK         0.0000 
     20 C20         3.4934   53.9691   26.9055 C.2       1 UNK         0.0000 
     21 C21         4.8422   54.1799   27.2378 C.2       1 UNK         0.0000 
     22 S22         5.8408   54.3569   25.8447 S.3       1 UNK         0.0000 
     23 C23         5.4014   54.3481   28.6463 C.3       1 UNK         0.0000 
     24 C24         4.3010   54.0707   29.6871 C.3       1 UNK         0.0000 
     25 C25         2.9361   54.6417   29.2784 C.3       1 UNK         0.0000 
     26 C26         2.4111   53.9673   27.9979 C.3       1 UNK         0.0000 
     27 C27         2.0008   53.5879   24.8424 C.2       1 UNK         0.0000 
     28 O28         1.7748   53.9591   23.6898 O.2       1 UNK         0.0000 
     29 N29         1.1087   52.8974   25.5740 N.am      1 UNK         0.0000 
     30 C30        -0.2520   52.5284   25.1767 C.3       1 UNK         0.0000 
     31 C31        -0.4035   51.0420   24.8016 C.3       1 UNK         0.0000 
     32 H32        -1.4697   50.8230   24.7182 H         1 UNK         0.0000 
     33 C33         0.2567   50.6421   23.4809 C.3       1 UNK         0.0000 
     34 C34         0.8295   49.2663   23.7562 C.3       1 UNK         0.0000 
     35 C35         0.5122   48.9705   25.2243 C.3       1 UNK         0.0000 
     36 O36         0.2307   50.2401   25.7935 O.3       1 UNK         0.0000 
     37 H37         1.4971   58.1527   15.7025 H         1 UNK         0.0000 
     38 H38         1.5987   55.7017   16.0288 H         1 UNK         0.0000 
     39 H39         3.6633   54.6642   16.8923 H         1 UNK         0.0000 
     40 H40         5.5037   58.5534   17.1202 H         1 UNK         0.0000 
     41 H41         3.4402   59.5677   16.2397 H         1 UNK         0.0000 
     42 H42         4.7058   52.9330   18.3378 H         1 UNK         0.0000 
     43 H43         4.3657   52.3842   20.9352 H         1 UNK         0.0000 
     44 H44         3.7615   53.8513   22.8987 H         1 UNK         0.0000 
     45 H45         6.2443   53.6817   28.8390 H         1 UNK         0.0000 
     46 H46         5.7677   55.3620   28.7762 H         1 UNK         0.0000 
     47 H47         4.2095   52.9969   29.8550 H         1 UNK         0.0000 
     48 H48         4.6062   54.4965   30.6395 H         1 UNK         0.0000 
     49 H49         2.2129   54.5091   30.0826 H         1 UNK         0.0000 
     50 H50         3.0203   55.7176   29.1247 H         1 UNK         0.0000 
     51 H51         1.5095   54.4882   27.6725 H         1 UNK         0.0000 
     52 H52         2.1107   52.9418   28.2226 H         1 UNK         0.0000 
     53 H53         1.4094   52.5416   26.4693 H         1 UNK         0.0000 
     54 H54        -0.6202   53.1547   24.3600 H         1 UNK         0.0000 
     55 H55        -0.9165   52.7422   26.0143 H         1 UNK         0.0000 
     56 H56         1.0789   51.3122   23.2283 H         1 UNK         0.0000 
     57 H57        -0.4434   50.6584   22.6456 H         1 UNK         0.0000 
     58 H58         1.9090   49.2967   23.6018 H         1 UNK         0.0000 
     59 H59         0.4145   48.5030   23.0987 H         1 UNK         0.0000 
     60 H60         1.3367   48.4971   25.7588 H         1 UNK         0.0000 
     61 H61        -0.3537   48.3180   25.3489 H         1 UNK         0.0000 
@<TRIPOS>BOND
     1    1    6 ar   
     2    1    2 ar   
     3    1   37 1    
     4    2    3 ar   
     5    2   38 1    
     6    3    4 ar   
     7    3   39 1    
     8    4    5 ar   
     9    4    7 1    
    10    5    6 ar   
    11    5   40 1    
    12    6   41 1    
    13    7    8 2    
    14    7    9 2    
    15    7   10 1    
    16   10   14 1    
    17   10   11 2    
    18   11   12 1    
    19   11   42 1    
    20   12   13 2    
    21   12   43 1    
    22   13   14 1    
    23   13   15 1    
    24   15   16 2    
    25   15   17 am   BACKBONE|DICT|INTERRES
    26   17   18 am   BACKBONE|DICT|INTERRES
    27   17   44 1    
    28   18   22 1    
    29   18   19 2    
    30   19   20 1    
    31   19   27 1    
    32   20   26 1    
    33   20   21 2    
    34   21   22 1    
    35   21   23 1    
    36   23   24 1    
    37   23   45 1    
    38   23   46 1    
    39   24   25 1    
    40   24   47 1    
    41   24   48 1    
    42   25   26 1    
    43   25   49 1    
    44   25   50 1    
    45   26   51 1    
    46   26   52 1    
    47   27   28 2    
    48   27   29 am   BACKBONE|DICT|INTERRES
    49   29   30 1    
    50   29   53 1    
    51   30   31 1    
    52   30   54 1    
    53   30   55 1    
    54   31   32 1    
    55   31   36 1    
    56   31   33 1    
    57   33   34 1    
    58   33   56 1    
    59   33   57 1    
    60   34   35 1    
    61   34   58 1    
    62   34   59 1    
    63   35   36 1    
    64   35   60 1    
    65   35   61 1    
@<TRIPOS>SUBSTRUCTURE
     1 UNK         1 GROUP             0       ****    0 ROOT    
