@<TRIPOS>MOLECULE
ZINC39609258_3665
68   71    1
SMALL
USER_CHARGES


@<TRIPOS>ATOM
      1 C1         -2.1596   52.7920   16.7225 C.3       1 UNK         0.0000 
      2 C2         -0.6442   52.8478   16.8568 C.ar      1 UNK         0.0000 
      3 C3         -0.0566   52.4928   18.0810 C.ar      1 UNK         0.0000 
      4 C4          1.3275   52.5174   18.2335 C.ar      1 UNK         0.0000 
      5 C5          2.1466   52.9150   17.1750 C.ar      1 UNK         0.0000 
      6 C6          1.5641   53.2673   15.9503 C.ar      1 UNK         0.0000 
      7 C7          0.1757   53.2334   15.7783 C.ar      1 UNK         0.0000 
      8 C8         -0.4107   53.6079   14.4190 C.3       1 UNK         0.0000 
      9 C9          3.6600   52.9376   17.3332 C.3       1 UNK         0.0000 
     10 C10         4.2262   54.2441   17.9209 C.3       1 UNK         0.0000 
     11 N11         3.9046   54.4523   19.3328 N.am      1 UNK         0.0000 
     12 C12         4.5433   53.8650   20.3518 C.2       1 UNK         0.0000 
     13 O13         5.5042   53.1219   20.1583 O.2       1 UNK         0.0000 
     14 C14         4.0792   54.2285   21.7946 C.3       1 UNK         0.0000 
     15 H15         3.6103   55.2098   21.7838 H         1 UNK         0.0000 
     16 C16         5.3481   54.2751   22.6817 C.3       1 UNK         0.0000 
     17 N17         4.8380   54.0349   24.0257 N.am      1 UNK         0.0000 
     18 C18         3.5159   53.3924   23.9949 C.3       1 UNK         0.0000 
     19 C19         3.1276   53.2061   22.5056 C.3       1 UNK         0.0000 
     20 C20         1.6209   53.5207   22.3220 C.3       1 UNK         0.0000 
     21 C21         0.7201   52.5717   23.1489 C.3       1 UNK         0.0000 
     22 N22         0.9622   51.1264   22.6586 N.4       1 UNK         0.0000 
     23 C23         2.4418   50.6852   22.6988 C.3       1 UNK         0.0000 
     24 C24         3.3132   51.7390   21.9787 C.3       1 UNK         0.0000 
     25 C25         5.5259   54.4009   25.1444 C.2       1 UNK         0.0000 
     26 O26         6.6475   54.9156   25.1060 O.2       1 UNK         0.0000 
     27 C27         4.9108   54.0907   26.4861 C.ar      1 UNK         0.0000 
     28 C28         5.6070   53.3128   27.4158 C.ar      1 UNK         0.0000 
     29 C29         4.9883   52.9148   28.6000 C.ar      1 UNK         0.0000 
     30 C30         3.6888   53.3147   28.8917 C.ar      1 UNK         0.0000 
     31 C31         3.0042   54.1529   28.0038 C.ar      1 UNK         0.0000 
     32 C32         3.6269   54.5368   26.8152 C.ar      1 UNK         0.0000 
     33 C33         1.5835   54.6125   28.2715 C.3       1 UNK         0.0000 
     34 Br34        2.8825   52.6823   30.4952 Br        1 UNK         0.0000 
     35 H35        -2.5517   53.7389   16.3501 H         1 UNK         0.0000 
     36 H36        -2.4353   52.0110   16.0141 H         1 UNK         0.0000 
     37 H37        -2.6511   52.5817   17.6746 H         1 UNK         0.0000 
     38 H38        -0.6724   52.1842   18.9123 H         1 UNK         0.0000 
     39 H39         1.7662   52.2390   19.1806 H         1 UNK         0.0000 
     40 H40         2.1969   53.5634   15.1260 H         1 UNK         0.0000 
     41 H41         0.3583   53.8433   13.6842 H         1 UNK         0.0000 
     42 H42        -1.0014   52.7745   14.0322 H         1 UNK         0.0000 
     43 H43        -1.0683   54.4801   14.5129 H         1 UNK         0.0000 
     44 H44         3.9771   52.0950   17.9391 H         1 UNK         0.0000 
     45 H45         4.1243   52.7515   16.3647 H         1 UNK         0.0000 
     46 H46         5.2927   54.3309   17.7070 H         1 UNK         0.0000 
     47 H47         3.7717   55.0813   17.3904 H         1 UNK         0.0000 
     48 H48         3.0081   54.8981   19.5210 H         1 UNK         0.0000 
     49 H49         6.0060   53.4283   22.4799 H         1 UNK         0.0000 
     50 H50         5.8982   55.2121   22.5764 H         1 UNK         0.0000 
     51 H51         2.8405   54.1597   24.3718 H         1 UNK         0.0000 
     52 H52         3.3597   52.5090   24.6188 H         1 UNK         0.0000 
     53 H53         1.4278   54.5384   22.6655 H         1 UNK         0.0000 
     54 H54         1.3272   53.5420   21.2820 H         1 UNK         0.0000 
     55 H55         0.9339   52.5857   24.2192 H         1 UNK         0.0000 
     56 H56        -0.3412   52.7698   22.9980 H         1 UNK         0.0000 
     57 H57         0.4077   50.4741   23.2036 H         1 UNK         0.0000 
     58 H58         2.7014   50.5324   23.7444 H         1 UNK         0.0000 
     59 H59         2.4835   49.7117   22.2029 H         1 UNK         0.0000 
     60 H60         3.1183   51.6732   20.9080 H         1 UNK         0.0000 
     61 H61         4.3598   51.4482   22.0782 H         1 UNK         0.0000 
     62 H62         6.6065   52.9634   27.2005 H         1 UNK         0.0000 
     63 H63         5.5023   52.2678   29.2860 H         1 UNK         0.0000 
     64 H64         3.1065   55.1904   26.1337 H         1 UNK         0.0000 
     65 H65         0.9776   53.8081   28.6965 H         1 UNK         0.0000 
     66 H66         1.5621   55.4540   28.9667 H         1 UNK         0.0000 
     67 H67         1.1046   54.8922   27.3360 H         1 UNK         0.0000 
     68 H68         0.6274   51.0500   21.7064 H         1 UNK         0.0000 
@<TRIPOS>BOND
     1    1    2 1    
     2    1   35 1    
     3    1   36 1    
     4    1   37 1    
     5    2    7 ar   
     6    2    3 ar   
     7    3    4 ar   
     8    3   38 1    
     9    4    5 ar   
    10    4   39 1    
    11    5    6 ar   
    12    5    9 1    
    13    6    7 ar   
    14    6   40 1    
    15    7    8 1    
    16    8   41 1    
    17    8   42 1    
    18    8   43 1    
    19    9   10 1    
    20    9   44 1    
    21    9   45 1    
    22   10   11 1    
    23   10   46 1    
    24   10   47 1    
    25   11   12 am   BACKBONE|DICT|INTERRES
    26   11   48 1    
    27   12   13 2    
    28   12   14 1    
    29   14   15 1    
    30   14   19 1    
    31   14   16 1    
    32   16   17 1    
    33   16   49 1    
    34   16   50 1    
    35   17   18 1    
    36   17   25 am   BACKBONE|DICT|INTERRES
    37   18   19 1    
    38   18   51 1    
    39   18   52 1    
    40   19   24 1    
    41   19   20 1    
    42   20   21 1    
    43   20   53 1    
    44   20   54 1    
    45   21   22 1    
    46   21   55 1    
    47   21   56 1    
    48   22   23 1    
    49   22   57 1    
    50   22   68 1    
    51   23   24 1    
    52   23   58 1    
    53   23   59 1    
    54   24   60 1    
    55   24   61 1    
    56   25   26 2    
    57   25   27 1    
    58   27   32 ar   
    59   27   28 ar   
    60   28   29 ar   
    61   28   62 1    
    62   29   30 ar   
    63   29   63 1    
    64   30   31 ar   
    65   30   34 1    
    66   31   32 ar   
    67   31   33 1    
    68   32   64 1    
    69   33   65 1    
    70   33   66 1    
    71   33   67 1    
@<TRIPOS>SUBSTRUCTURE
     1 UNK         1 GROUP             0       ****    0 ROOT    
