@<TRIPOS>MOLECULE
ZINC04623712_3808
50   54    1
SMALL
USER_CHARGES


@<TRIPOS>ATOM
      1 C1          4.3040   54.3641   18.9808 C.3       1 UNK         0.0000 
      2 C2          4.0211   53.2901   20.0251 C.2       1 UNK         0.0000 
      3 O3          4.9590   52.8739   20.7070 O.2       1 UNK         0.0000 
      4 N4          2.7315   52.8967   20.1446 N.am      1 UNK         0.0000 
      5 C5          2.2042   51.8798   20.9639 C.ar      1 UNK         0.0000 
      6 C6          2.9873   50.8144   21.4205 C.ar      1 UNK         0.0000 
      7 C7          2.4507   49.8677   22.2786 C.ar      1 UNK         0.0000 
      8 C8          1.1187   49.9467   22.6599 C.ar      1 UNK         0.0000 
      9 C9          0.2699   50.9463   22.1417 C.ar      1 UNK         0.0000 
     10 C10         0.8406   51.9194   21.3014 C.ar      1 UNK         0.0000 
     11 C11        -1.2239   50.8573   22.4901 C.3       1 UNK         0.0000 
     12 H12        -1.5993   50.2262   21.6803 H         1 UNK         0.0000 
     13 C13        -2.1659   52.0779   22.5628 C.3       1 UNK         0.0000 
     14 H14        -2.3432   52.5321   21.5901 H         1 UNK         0.0000 
     15 C15        -1.7852   53.0807   23.6780 C.3       1 UNK         0.0000 
     16 C16        -2.2747   52.3859   24.9609 C.3       1 UNK         0.0000 
     17 C17        -2.6695   50.9802   24.4563 C.3       1 UNK         0.0000 
     18 H18        -3.2836   50.4243   25.1661 H         1 UNK         0.0000 
     19 C19        -3.4009   51.4067   23.1842 C.3       1 UNK         0.0000 
     20 C20        -1.5162   50.1332   23.8300 C.3       1 UNK         0.0000 
     21 H21        -1.9755   49.1795   23.5570 H         1 UNK         0.0000 
     22 C22        -0.2639   49.7079   24.6508 C.3       1 UNK         0.0000 
     23 H23        -0.5741   48.8726   25.2815 H         1 UNK         0.0000 
     24 N24         0.7047   49.1246   23.7214 N.pl3     1 UNK         0.0000 
     25 C25         0.3052   50.7617   25.6194 C.ar      1 UNK         0.0000 
     26 C26         0.0529   50.5826   26.9750 C.ar      1 UNK         0.0000 
     27 C27         0.5012   51.4999   27.9217 C.ar      1 UNK         0.0000 
     28 C28         1.2269   52.6186   27.5099 C.ar      1 UNK         0.0000 
     29 C29         1.5021   52.8114   26.1545 C.ar      1 UNK         0.0000 
     30 C30         1.0454   51.8864   25.2161 C.ar      1 UNK         0.0000 
     31 C31         1.7024   53.5800   28.4960 C.1       1 UNK         0.0000 
     32 N32         2.0811   54.3434   29.2809 N.1       1 UNK         0.0000 
     33 H33         3.3855   54.7628   18.5476 H         1 UNK         0.0000 
     34 H34         4.8589   55.1889   19.4284 H         1 UNK         0.0000 
     35 H35         4.9056   53.9423   18.1748 H         1 UNK         0.0000 
     36 H36         2.0497   53.4869   19.6854 H         1 UNK         0.0000 
     37 H37         4.0244   50.7154   21.1421 H         1 UNK         0.0000 
     38 H38         3.0953   49.0999   22.6811 H         1 UNK         0.0000 
     39 H39         0.2186   52.7096   20.9090 H         1 UNK         0.0000 
     40 H40        -0.7180   53.2964   23.6870 H         1 UNK         0.0000 
     41 H41        -2.3053   54.0290   23.5424 H         1 UNK         0.0000 
     42 H42        -3.1568   52.8991   25.3491 H         1 UNK         0.0000 
     43 H43        -1.5620   52.4144   25.7770 H         1 UNK         0.0000 
     44 H44        -4.2299   52.0966   23.3621 H         1 UNK         0.0000 
     45 H45        -3.7941   50.5701   22.6010 H         1 UNK         0.0000 
     46 H46         1.3906   48.5252   24.1667 H         1 UNK         0.0000 
     47 H47        -0.4957   49.7062   27.2816 H         1 UNK         0.0000 
     48 H48         0.2807   51.3241   28.9662 H         1 UNK         0.0000 
     49 H49         2.0680   53.6683   25.8160 H         1 UNK         0.0000 
     50 H50         1.2800   52.0681   24.1824 H         1 UNK         0.0000 
@<TRIPOS>BOND
     1    1    2 1    
     2    1   33 1    
     3    1   34 1    
     4    1   35 1    
     5    2    3 2    
     6    2    4 am   BACKBONE|DICT|INTERRES
     7    4    5 1    
     8    4   36 1    
     9    5   10 ar   
    10    5    6 ar   
    11    6    7 ar   
    12    6   37 1    
    13    7    8 ar   
    14    7   38 1    
    15    8   24 1    
    16    8    9 ar   
    17    9   10 ar   
    18    9   11 1    
    19   10   39 1    
    20   11   12 1    
    21   11   20 1    
    22   11   13 1    
    23   13   14 1    
    24   13   19 1    
    25   13   15 1    
    26   15   16 1    
    27   15   40 1    
    28   15   41 1    
    29   16   17 1    
    30   16   42 1    
    31   16   43 1    
    32   17   18 1    
    33   17   19 1    
    34   17   20 1    
    35   19   44 1    
    36   19   45 1    
    37   20   21 1    
    38   20   22 1    
    39   22   23 1    
    40   22   24 1    
    41   22   25 1    
    42   24   46 1    
    43   25   30 ar   
    44   25   26 ar   
    45   26   27 ar   
    46   26   47 1    
    47   27   28 ar   
    48   27   48 1    
    49   28   29 ar   
    50   28   31 1    
    51   29   30 ar   
    52   29   49 1    
    53   30   50 1    
    54   31   32 3    
@<TRIPOS>SUBSTRUCTURE
     1 UNK         1 GROUP             0       ****    0 ROOT    
