ZINC04079164_3477
                    3D
 Schrodinger Suite 2024-2.
 64 68  0  0  1  0            999 V2000
   -0.7029   49.9437   25.8355 C   0  0  0  0  0  0
    0.4992   50.6907   26.4553 C   0  0  0  0  0  0
    0.1569   51.5791   27.6831 N   0  3  0  0  0  0
   -1.2153   52.2559   27.5691 C   0  0  0  0  0  0
   -2.2942   51.2886   27.0745 C   0  0  0  0  0  0
   -1.9851   50.6666   25.7765 N   0  0  0  0  0  0
   -2.9724   50.3675   24.8339 C   0  0  0  0  0  0
   -4.1822   50.9617   24.9878 N   0  0  0  0  0  0
   -5.0824   50.7472   23.9976 C   0  0  0  0  0  0
   -4.8512   50.0038   22.8918 N   0  0  0  0  0  0
   -3.6136   49.4565   22.8275 C   0  0  0  0  0  0
   -2.6313   49.6142   23.7554 N   0  0  0  0  0  0
   -3.3764   48.6897   21.7033 O   0  0  0  0  0  0
   -2.0945   48.0756   21.5308 C   0  0  0  0  0  0
   -2.0917   47.1825   20.2818 C   0  0  0  0  0  0
   -0.8967   46.6186   20.1103 F   0  0  0  0  0  0
   -2.9851   46.1987   20.3855 F   0  0  0  0  0  0
   -2.3682   47.8789   19.1804 F   0  0  0  0  0  0
   -6.3336   51.3712   24.0698 N   0  0  0  0  0  0
   -6.6622   52.2941   25.1569 C   0  0  0  0  0  0
   -6.2052   53.7397   24.8962 C   0  0  0  0  0  0
   -6.1895   54.4956   26.0886 O   0  0  0  0  0  0
    1.3075   52.5174   28.2091 C   0  0  0  0  0  0
    1.9665   53.3431   27.0557 C   0  0  0  0  0  0
    3.1373   54.1915   27.6203 C   0  0  1  0  0  0
    2.6106   55.1563   28.7146 C   0  0  0  0  0  0
    1.9753   54.3421   29.8700 C   0  0  1  0  0  0
    0.7945   53.4979   29.3161 C   0  0  0  0  0  0
    3.0528   53.4007   30.4777 C   0  0  0  0  0  0
    3.5602   52.4218   29.3940 C   0  0  2  0  0  0
    4.1976   53.2396   28.2378 C   0  0  0  0  0  0
    2.3609   51.5983   28.8596 C   0  0  0  0  0  0
   -0.9359   49.0992   26.4818 H   0  0  0  0  0  0
   -0.4154   49.5063   24.8790 H   0  0  0  0  0  0
    0.9512   51.3182   25.6920 H   0  0  0  0  0  0
    1.1932   49.9460   26.8448 H   0  0  0  0  0  0
   -1.1150   53.1486   26.9538 H   0  0  0  0  0  0
   -1.4421   52.4964   28.6045 H   0  0  0  0  0  0
   -3.2619   51.7894   27.0839 H   0  0  0  0  0  0
   -2.3886   50.4627   27.7821 H   0  0  0  0  0  0
   -1.3272   48.8456   21.4320 H   0  0  0  0  0  0
   -1.8406   47.4696   22.4030 H   0  0  0  0  0  0
   -6.9153   51.3424   23.2445 H   0  0  0  0  0  0
   -6.2356   51.9382   26.0962 H   0  0  0  0  0  0
   -7.7356   52.2679   25.3449 H   0  0  0  0  0  0
   -6.7747   54.1969   24.0861 H   0  0  0  0  0  0
   -5.1910   53.7283   24.4917 H   0  0  0  0  0  0
   -5.5638   54.0941   26.6970 H   0  0  0  0  0  0
    2.3842   52.7058   26.2784 H   0  0  0  0  0  0
    1.2384   53.9888   26.5697 H   0  0  0  0  0  0
    3.5922   54.7694   26.8139 H   0  0  0  0  0  0
    3.4277   55.7664   29.1009 H   0  0  0  0  0  0
    1.8846   55.8528   28.2915 H   0  0  0  0  0  0
    1.5981   55.0284   30.6309 H   0  0  0  0  0  0
    0.0431   54.1809   28.9197 H   0  0  0  0  0  0
    0.3190   52.9505   30.1328 H   0  0  0  0  0  0
    3.9058   53.9669   30.8573 H   0  0  0  0  0  0
    2.6331   52.8574   31.3237 H   0  0  0  0  0  0
    4.3081   51.7517   29.8208 H   0  0  0  0  0  0
    4.5983   52.5695   27.4753 H   0  0  0  0  0  0
    5.0515   53.8123   28.6047 H   0  0  0  0  0  0
    1.9047   51.0203   29.6606 H   0  0  0  0  0  0
    2.7043   50.8969   28.1170 H   0  0  0  0  0  0
   -0.0257   50.8926   28.4040 H   0  0  0  0  0  0
  1  6  1  0  0  0
  1  2  1  0  0  0
  1 33  1  0  0  0
  1 34  1  0  0  0
  2  3  1  0  0  0
  2 35  1  0  0  0
  2 36  1  0  0  0
  3  4  1  0  0  0
  3 23  1  0  0  0
  3 64  1  0  0  0
  4  5  1  0  0  0
  4 37  1  0  0  0
  4 38  1  0  0  0
  5  6  1  0  0  0
  5 39  1  0  0  0
  5 40  1  0  0  0
  6  7  1  0  0  0
  7 12  2  0  0  0
  7  8  1  0  0  0
  8  9  2  0  0  0
  9 10  1  0  0  0
  9 19  1  0  0  0
 10 11  2  0  0  0
 11 12  1  0  0  0
 11 13  1  0  0  0
 13 14  1  0  0  0
 14 15  1  0  0  0
 14 41  1  0  0  0
 14 42  1  0  0  0
 15 16  1  0  0  0
 15 17  1  0  0  0
 15 18  1  0  0  0
 19 20  1  0  0  0
 19 43  1  0  0  0
 20 21  1  0  0  0
 20 44  1  0  0  0
 20 45  1  0  0  0
 21 22  1  0  0  0
 21 46  1  0  0  0
 21 47  1  0  0  0
 22 48  1  0  0  0
 23 28  1  0  0  0
 23 32  1  0  0  0
 23 24  1  0  0  0
 24 25  1  0  0  0
 24 49  1  0  0  0
 24 50  1  0  0  0
 25 31  1  0  0  0
 25 26  1  0  0  0
 25 51  1  0  0  0
 26 27  1  0  0  0
 26 52  1  0  0  0
 26 53  1  0  0  0
 27 28  1  0  0  0
 27 29  1  0  0  0
 27 54  1  0  0  0
 28 55  1  0  0  0
 28 56  1  0  0  0
 29 30  1  0  0  0
 29 57  1  0  0  0
 29 58  1  0  0  0
 30 31  1  0  0  0
 30 32  1  0  0  0
 30 59  1  0  0  0
 31 60  1  0  0  0
 31 61  1  0  0  0
 32 62  1  0  0  0
 32 63  1  0  0  0
M  CHG  1   3   1
M  END
> <i_i_glide_confnum>
97

> <i_i_glide_lignum>
3478

> <i_i_glide_posenum>
278

> <i_i_glide_rotatable_bonds>
9

> <i_m_Source_File_Index>
869

> <b_m_subgroup_collapsed>
0

> <r_i_docking_score>
-3.03781

> <r_i_glide_ecoul>
-1.02418

> <r_i_glide_eff_state_penalty>
0

> <r_i_glide_einternal>
12.1149

> <r_i_glide_emodel>
-23.4602

> <r_i_glide_energy>
-23.1593

> <r_i_glide_erotb>
0.672366

> <r_i_glide_esite>
-0.079715

> <r_i_glide_evdw>
-22.1351

> <r_i_glide_gscore>
-3.03781

> <r_i_glide_hbond>
-0.32

> <r_i_glide_ligand_efficiency>
-0.0949315

> <r_i_glide_ligand_efficiency_ln>
-0.680248

> <r_i_glide_ligand_efficiency_sa>
-0.301389

> <r_i_glide_lipo>
-1.6888

> <r_i_glide_metal>
0

> <r_i_glide_rewards>
-0.361279

> <s_i_glide_gridfile>
wee1_glide-grid

> <s_m_Source_File>
wee1_decoys_glide_SP.sdf

> <s_m_Source_Path>
/Users/zhangxujun/Desktop

> <s_m_entry_id>
1144

> <s_m_entry_name>
wee1_decoys_glide_SP.869

> <s_m_subgroup_title>
wee1_decoys_glide_SP

> <s_m_subgroupid>
wee1_decoys_glide_SP


$$$$
