@<TRIPOS>MOLECULE
ZINC00748990_2369
66   69    1
SMALL
USER_CHARGES


@<TRIPOS>ATOM
      1 C1          5.2552   54.0963   21.9483 C.3       1 UNK         0.0000 
      2 C2          4.1465   54.1276   23.0174 C.3       1 UNK         0.0000 
      3 H3          3.6241   55.0717   22.8514 H         1 UNK         0.0000 
      4 C4          4.6480   54.1876   24.4811 C.ar      1 UNK         0.0000 
      5 C5          3.7322   54.0967   25.5401 C.ar      1 UNK         0.0000 
      6 C6          4.1619   54.1455   26.8637 C.ar      1 UNK         0.0000 
      7 C7          5.5164   54.2914   27.1449 C.ar      1 UNK         0.0000 
      8 C8          6.4414   54.3930   26.1111 C.ar      1 UNK         0.0000 
      9 C9          6.0112   54.3446   24.7871 C.ar      1 UNK         0.0000 
     10 N10         3.1970   53.0540   22.7261 N.am      1 UNK         0.0000 
     11 C11         1.8612   53.1026   22.8600 C.2       1 UNK         0.0000 
     12 O12         1.2603   54.0917   23.2823 O.2       1 UNK         0.0000 
     13 C13         1.1380   51.8375   22.4529 C.ar      1 UNK         0.0000 
     14 C14         1.5322   51.1944   21.2644 C.ar      1 UNK         0.0000 
     15 C15         0.8823   50.0529   20.7953 C.ar      1 UNK         0.0000 
     16 C16        -0.1972   49.5486   21.5299 C.ar      1 UNK         0.0000 
     17 C17        -0.6103   50.1836   22.6979 C.ar      1 UNK         0.0000 
     18 C18         0.0245   51.3400   23.1758 C.ar      1 UNK         0.0000 
     19 N19        -0.4043   51.9116   24.3928 N.pl3     1 UNK         0.0000 
     20 C20         0.4674   51.8348   25.5660 C.3       1 UNK         0.0000 
     21 C21        -0.0857   50.7457   26.4797 C.3       1 UNK         0.0000 
     22 C22        -1.5861   50.8152   26.2420 C.3       1 UNK         0.0000 
     23 C23        -1.7206   51.7084   25.0073 C.3       1 UNK         0.0000 
     24 N24         1.3529   49.5139   19.5778 N.am      1 UNK         0.0000 
     25 C25         0.9808   48.3865   18.9390 C.2       1 UNK         0.0000 
     26 O26         0.2063   47.5338   19.3758 O.2       1 UNK         0.0000 
     27 N27         1.5109   48.3363   17.7057 N.am      1 UNK         0.0000 
     28 C28         1.0921   47.4397   16.6258 C.3       1 UNK         0.0000 
     29 C29         1.4769   47.9726   15.2248 C.3       1 UNK         0.0000 
     30 C30         1.0635   47.0358   14.0716 C.3       1 UNK         0.0000 
     31 C31         1.5601   45.5972   14.2858 C.3       1 UNK         0.0000 
     32 C32         1.0910   45.0439   15.6403 C.3       1 UNK         0.0000 
     33 C33         1.5055   45.9576   16.8105 C.3       1 UNK         0.0000 
     34 H34         5.8889   54.9824   21.9946 H         1 UNK         0.0000 
     35 H35         5.8874   53.2153   22.0621 H         1 UNK         0.0000 
     36 H36         4.8333   54.0707   20.9426 H         1 UNK         0.0000 
     37 H37         2.6763   53.9908   25.3520 H         1 UNK         0.0000 
     38 H38         3.4445   54.0685   27.6672 H         1 UNK         0.0000 
     39 H39         5.8532   54.3258   28.1712 H         1 UNK         0.0000 
     40 H40         7.4904   54.4958   26.3401 H         1 UNK         0.0000 
     41 H41         6.7611   54.4197   24.0133 H         1 UNK         0.0000 
     42 H42         3.6018   52.1831   22.4237 H         1 UNK         0.0000 
     43 H43         2.3520   51.5964   20.6825 H         1 UNK         0.0000 
     44 H44        -0.7400   48.6710   21.2182 H         1 UNK         0.0000 
     45 H45        -1.4308   49.7440   23.2429 H         1 UNK         0.0000 
     46 H46         1.4985   51.6437   25.2661 H         1 UNK         0.0000 
     47 H47         0.5187   52.8120   26.0498 H         1 UNK         0.0000 
     48 H48         0.3197   49.7687   26.2066 H         1 UNK         0.0000 
     49 H49         0.1766   50.9143   27.5252 H         1 UNK         0.0000 
     50 H50        -2.0882   51.2577   27.1037 H         1 UNK         0.0000 
     51 H51        -2.0070   49.8195   26.0813 H         1 UNK         0.0000 
     52 H52        -2.1178   52.6814   25.2964 H         1 UNK         0.0000 
     53 H53        -2.4565   51.3497   24.2858 H         1 UNK         0.0000 
     54 H54         2.0648   50.0620   19.1174 H         1 UNK         0.0000 
     55 H55         2.3584   48.8635   17.5177 H         1 UNK         0.0000 
     56 H56        -0.0019   47.4448   16.6335 H         1 UNK         0.0000 
     57 H57         1.0431   48.9611   15.0639 H         1 UNK         0.0000 
     58 H58         2.5602   48.0967   15.1827 H         1 UNK         0.0000 
     59 H59        -0.0236   47.0361   13.9806 H         1 UNK         0.0000 
     60 H60         1.4450   47.4225   13.1253 H         1 UNK         0.0000 
     61 H61         1.2074   44.9566   13.4776 H         1 UNK         0.0000 
     62 H62         2.6503   45.5760   14.2446 H         1 UNK         0.0000 
     63 H63         0.0063   44.9348   15.6346 H         1 UNK         0.0000 
     64 H64         1.4964   44.0412   15.7912 H         1 UNK         0.0000 
     65 H65         2.5934   45.9172   16.8930 H         1 UNK         0.0000 
     66 H66         1.1001   45.5598   17.7422 H         1 UNK         0.0000 
@<TRIPOS>BOND
     1    1    2 1    
     2    1   34 1    
     3    1   35 1    
     4    1   36 1    
     5    2    3 1    
     6    2    4 1    
     7    2   10 1    
     8    4    9 ar   
     9    4    5 ar   
    10    5    6 ar   
    11    5   37 1    
    12    6    7 ar   
    13    6   38 1    
    14    7    8 ar   
    15    7   39 1    
    16    8    9 ar   
    17    8   40 1    
    18    9   41 1    
    19   10   11 am   BACKBONE|DICT|INTERRES
    20   10   42 1    
    21   11   12 2    
    22   11   13 1    
    23   13   18 ar   
    24   13   14 ar   
    25   14   15 ar   
    26   14   43 1    
    27   15   16 ar   
    28   15   24 1    
    29   16   17 ar   
    30   16   44 1    
    31   17   18 ar   
    32   17   45 1    
    33   18   19 1    
    34   19   23 1    
    35   19   20 1    
    36   20   21 1    
    37   20   46 1    
    38   20   47 1    
    39   21   22 1    
    40   21   48 1    
    41   21   49 1    
    42   22   23 1    
    43   22   50 1    
    44   22   51 1    
    45   23   52 1    
    46   23   53 1    
    47   24   25 am   BACKBONE|DICT|INTERRES
    48   24   54 1    
    49   25   26 2    
    50   25   27 am   BACKBONE|DICT|INTERRES
    51   27   28 1    
    52   27   55 1    
    53   28   33 1    
    54   28   29 1    
    55   28   56 1    
    56   29   30 1    
    57   29   57 1    
    58   29   58 1    
    59   30   31 1    
    60   30   59 1    
    61   30   60 1    
    62   31   32 1    
    63   31   61 1    
    64   31   62 1    
    65   32   33 1    
    66   32   63 1    
    67   32   64 1    
    68   33   65 1    
    69   33   66 1    
@<TRIPOS>SUBSTRUCTURE
     1 UNK         1 GROUP             0       ****    0 ROOT    
