ZINC63260491_1394
                    3D
 Schrodinger Suite 2024-2.
 53 55  0  0  1  0            999 V2000
   -4.4916   50.3164   29.9745 C   0  0  0  0  0  0
   -3.2959   50.4967   29.1625 N   0  0  0  0  0  0
   -3.2348   51.2024   28.0229 C   0  0  0  0  0  0
   -4.2410   51.7012   27.5137 O   0  0  0  0  0  0
   -1.8591   51.2809   27.3062 C   0  0  2  0  0  0
   -0.7324   51.6364   28.3157 C   0  0  0  0  0  0
    0.6388   51.6807   27.6031 C   0  0  0  0  0  0
    0.6654   52.7089   26.4487 C   0  0  2  0  0  0
   -0.5102   52.4319   25.4629 C   0  0  0  0  0  0
   -1.8921   52.2941   26.1348 C   0  0  0  0  0  0
    1.9900   52.8969   25.8547 N   0  0  0  0  0  0
    2.3269   53.6976   24.8278 C   0  0  0  0  0  0
    1.5057   54.2313   24.0825 O   0  0  0  0  0  0
    3.8045   53.9499   24.6122 C   0  0  0  0  0  0
    4.2337   54.1468   23.2902 C   0  0  0  0  0  0
    5.5550   54.4966   22.9848 C   0  0  0  0  0  0
    6.4759   54.5962   24.0299 C   0  0  0  0  0  0
    6.0782   54.3835   25.3444 C   0  0  0  0  0  0
    4.7480   54.0953   25.6622 C   0  0  0  0  0  0
    4.4519   53.9369   27.0238 N   0  0  0  0  0  0
    4.5562   52.6853   27.7579 C   0  0  0  0  0  0
    4.5233   52.9807   29.2450 C   0  0  0  0  0  0
    5.1033   54.3697   29.2814 C   0  0  0  0  0  0
    4.5458   54.9965   28.0109 C   0  0  0  0  0  0
    5.9525   54.8081   21.5909 N   0  3  0  0  0  0
    7.0550   55.3135   21.3988 O   0  0  0  0  0  0
    5.1615   54.5586   20.6874 O   0  5  0  0  0  0
   -4.2024   50.0915   31.0018 H   0  0  0  0  0  0
   -5.1156   51.2111   29.9820 H   0  0  0  0  0  0
   -5.0824   49.4819   29.5964 H   0  0  0  0  0  0
   -2.5089   49.8981   29.4052 H   0  0  0  0  0  0
   -1.6830   50.2591   26.9626 H   0  0  0  0  0  0
   -0.6389   50.8965   29.1108 H   0  0  0  0  0  0
   -0.8948   52.6314   28.7355 H   0  0  0  0  0  0
    0.8702   50.6863   27.2151 H   0  0  0  0  0  0
    1.4134   51.9140   28.3347 H   0  0  0  0  0  0
    0.5040   53.6517   26.9713 H   0  0  0  0  0  0
   -0.5982   53.2211   24.7182 H   0  0  0  0  0  0
   -0.2944   51.5163   24.9126 H   0  0  0  0  0  0
   -2.1466   53.2951   26.4881 H   0  0  0  0  0  0
   -2.5860   51.9692   25.3563 H   0  0  0  0  0  0
    2.7623   52.6473   26.4525 H   0  0  0  0  0  0
    3.5156   54.0743   22.4823 H   0  0  0  0  0  0
    7.5043   54.8555   23.8262 H   0  0  0  0  0  0
    6.8116   54.4658   26.1327 H   0  0  0  0  0  0
    3.6723   52.0967   27.5519 H   0  0  0  0  0  0
    5.4811   52.1621   27.5180 H   0  0  0  0  0  0
    3.5006   52.9551   29.6253 H   0  0  0  0  0  0
    5.1026   52.2533   29.8137 H   0  0  0  0  0  0
    6.1952   54.3726   29.2719 H   0  0  0  0  0  0
    4.7888   54.8968   30.1744 H   0  0  0  0  0  0
    5.3094   55.6964   27.6803 H   0  0  0  0  0  0
    3.5744   55.4382   28.2340 H   0  0  0  0  0  0
  1  2  1  0  0  0
  1 28  1  0  0  0
  1 29  1  0  0  0
  1 30  1  0  0  0
  2  3  1  0  0  0
  2 31  1  0  0  0
  3  4  2  0  0  0
  3  5  1  0  0  0
  5 10  1  0  0  0
  5  6  1  0  0  0
  5 32  1  0  0  0
  6  7  1  0  0  0
  6 33  1  0  0  0
  6 34  1  0  0  0
  7  8  1  0  0  0
  7 35  1  0  0  0
  7 36  1  0  0  0
  8  9  1  0  0  0
  8 11  1  0  0  0
  8 37  1  0  0  0
  9 10  1  0  0  0
  9 38  1  0  0  0
  9 39  1  0  0  0
 10 40  1  0  0  0
 10 41  1  0  0  0
 11 12  1  0  0  0
 11 42  1  0  0  0
 12 13  2  0  0  0
 12 14  1  0  0  0
 14 19  2  0  0  0
 14 15  1  0  0  0
 15 16  2  0  0  0
 15 43  1  0  0  0
 16 17  1  0  0  0
 16 25  1  0  0  0
 17 18  2  0  0  0
 17 44  1  0  0  0
 18 19  1  0  0  0
 18 45  1  0  0  0
 19 20  1  0  0  0
 20 24  1  0  0  0
 20 21  1  0  0  0
 21 22  1  0  0  0
 21 46  1  0  0  0
 21 47  1  0  0  0
 22 23  1  0  0  0
 22 48  1  0  0  0
 22 49  1  0  0  0
 23 24  1  0  0  0
 23 50  1  0  0  0
 23 51  1  0  0  0
 24 52  1  0  0  0
 24 53  1  0  0  0
 25 26  2  0  0  0
 25 27  1  0  0  0
M  CHG  2  25   1  27  -1
M  END
> <i_i_glide_confnum>
244

> <i_i_glide_lignum>
1395

> <i_i_glide_posenum>
353

> <i_i_glide_rotatable_bonds>
7

> <i_m_Source_File_Index>
1003

> <b_m_subgroup_collapsed>
0

> <r_i_docking_score>
-5.70193

> <r_i_glide_ecoul>
-3.19773

> <r_i_glide_eff_state_penalty>
0

> <r_i_glide_einternal>
13.7379

> <r_i_glide_emodel>
-38.7356

> <r_i_glide_energy>
-32.733

> <r_i_glide_erotb>
0.68958

> <r_i_glide_esite>
-0.174447

> <r_i_glide_evdw>
-29.5353

> <r_i_glide_gscore>
-5.70193

> <r_i_glide_hbond>
-0.255095

> <r_i_glide_ligand_efficiency>
-0.211183

> <r_i_glide_ligand_efficiency_ln>
-1.32732

> <r_i_glide_ligand_efficiency_sa>
-0.633548

> <r_i_glide_lipo>
-2.22712

> <r_i_glide_metal>
0

> <r_i_glide_rewards>
-1.77842

> <s_i_glide_gridfile>
wee1_glide-grid

> <s_m_Source_File>
wee1_decoys_glide_SP.sdf

> <s_m_Source_Path>
/Users/zhangxujun/Desktop

> <s_m_entry_id>
1278

> <s_m_entry_name>
wee1_decoys_glide_SP.1003

> <s_m_subgroup_title>
wee1_decoys_glide_SP

> <s_m_subgroupid>
wee1_decoys_glide_SP


$$$$
