ZINC48930899_3590
                    3D
 Schrodinger Suite 2024-2.
 33 34  0  0  1  0            999 V2000
   -3.1387   50.6808   29.2759 C   0  0  0  0  0  0
   -1.8399   51.2968   28.7865 C   0  0  0  0  0  0
   -0.8575   51.6985   29.6959 C   0  0  0  0  0  0
    0.3347   52.2667   29.2445 C   0  0  0  0  0  0
    0.5607   52.4307   27.8692 C   0  0  0  0  0  0
   -0.4270   52.0203   26.9581 C   0  0  0  0  0  0
   -1.6165   51.4569   27.4189 C   0  0  0  0  0  0
   -0.1905   52.2176   25.0713 Br  0  0  0  0  0  0
    1.7383   52.9632   27.3203 N   0  0  0  0  0  0
    2.7616   53.6444   27.8806 C   0  0  0  0  0  0
    2.8341   53.9548   29.0720 O   0  0  0  0  0  0
    3.8834   53.9887   26.9185 C   0  0  0  0  0  0
    5.1704   54.2626   27.3966 C   0  0  0  0  0  0
    6.2199   54.5047   26.5111 C   0  0  0  0  0  0
    6.0100   54.4702   25.1307 C   0  0  0  0  0  0
    4.7227   54.2050   24.6139 C   0  0  0  0  0  0
    3.6775   54.0041   25.5288 C   0  0  0  0  0  0
    4.4243   54.0990   23.1539 N   0  3  0  0  0  0
    5.3368   54.1365   22.3339 O   0  0  0  0  0  0
    3.2531   53.9695   22.8108 O   0  5  0  0  0  0
    7.1012   54.6941   24.2912 N   0  0  0  0  0  0
   -3.2984   49.7197   28.7858 H   0  0  0  0  0  0
   -3.1254   50.4966   30.3513 H   0  0  0  0  0  0
   -3.9865   51.3198   29.0312 H   0  0  0  0  0  0
   -1.0136   51.5642   30.7586 H   0  0  0  0  0  0
    1.0730   52.5513   29.9764 H   0  0  0  0  0  0
   -2.3660   51.1332   26.7120 H   0  0  0  0  0  0
    1.8150   52.7990   26.3294 H   0  0  0  0  0  0
    5.3735   54.2727   28.4592 H   0  0  0  0  0  0
    7.2028   54.6968   26.9140 H   0  0  0  0  0  0
    2.6890   53.8152   25.1347 H   0  0  0  0  0  0
    6.9234   54.6349   23.2955 H   0  0  0  0  0  0
    8.0403   54.8881   24.6119 H   0  0  0  0  0  0
  1  2  1  0  0  0
  1 22  1  0  0  0
  1 23  1  0  0  0
  1 24  1  0  0  0
  2  7  2  0  0  0
  2  3  1  0  0  0
  3  4  2  0  0  0
  3 25  1  0  0  0
  4  5  1  0  0  0
  4 26  1  0  0  0
  5  6  2  0  0  0
  5  9  1  0  0  0
  6  7  1  0  0  0
  6  8  1  0  0  0
  7 27  1  0  0  0
  9 10  1  0  0  0
  9 28  1  0  0  0
 10 11  2  0  0  0
 10 12  1  0  0  0
 12 17  2  0  0  0
 12 13  1  0  0  0
 13 14  2  0  0  0
 13 29  1  0  0  0
 14 15  1  0  0  0
 14 30  1  0  0  0
 15 16  2  0  0  0
 15 21  1  0  0  0
 16 17  1  0  0  0
 16 18  1  0  0  0
 17 31  1  0  0  0
 18 19  2  0  0  0
 18 20  1  0  0  0
 21 32  1  0  0  0
 21 33  1  0  0  0
M  CHG  2  18   1  20  -1
M  END
> <i_i_glide_confnum>
1

> <i_i_glide_lignum>
3591

> <i_i_glide_posenum>
172

> <i_i_glide_rotatable_bonds>
4

> <i_m_Source_File_Index>
3228

> <b_m_subgroup_collapsed>
0

> <r_i_docking_score>
-5.20631

> <r_i_glide_ecoul>
-2.52893

> <r_i_glide_eff_state_penalty>
0

> <r_i_glide_einternal>
0.487377

> <r_i_glide_emodel>
-47.3964

> <r_i_glide_energy>
-34.4471

> <r_i_glide_erotb>
0.46627

> <r_i_glide_esite>
0

> <r_i_glide_evdw>
-31.9182

> <r_i_glide_gscore>
-5.20631

> <r_i_glide_hbond>
-0.216171

> <r_i_glide_ligand_efficiency>
-0.24792

> <r_i_glide_ligand_efficiency_ln>
-1.28725

> <r_i_glide_ligand_efficiency_sa>
-0.683991

> <r_i_glide_lipo>
-1.87328

> <r_i_glide_metal>
0

> <r_i_glide_rewards>
-1.60788

> <s_i_glide_gridfile>
wee1_glide-grid

> <s_m_Source_File>
wee1_decoys_glide_SP.sdf

> <s_m_Source_Path>
/Users/zhangxujun/Desktop

> <s_m_entry_id>
3503

> <s_m_entry_name>
wee1_decoys_glide_SP.3228

> <s_m_subgroup_title>
wee1_decoys_glide_SP

> <s_m_subgroupid>
wee1_decoys_glide_SP


$$$$
