ZINC31818108_1970
                    3D
 Schrodinger Suite 2024-2.
 38 41  0  0  1  0            999 V2000
   -0.4963   51.7027   29.0940 C   0  0  0  0  0  0
    0.0580   52.0957   27.7499 C   0  0  0  0  0  0
   -0.5306   51.9990   26.4894 C   0  0  0  0  0  0
    0.4144   52.4969   25.6104 C   0  0  0  0  0  0
    1.5053   52.8978   26.3687 N   0  0  0  0  0  0
    1.2564   52.6290   27.6713 N   0  0  0  0  0  0
    2.7201   53.5181   25.9984 C   0  0  0  0  0  0
    3.1151   53.7078   24.6138 C   0  0  0  0  0  0
    4.3115   54.2821   24.3410 C   0  0  0  0  0  0
    5.1953   54.7133   25.4185 C   0  0  0  0  0  0
    6.2534   55.2459   25.0838 O   0  0  0  0  0  0
    4.7669   54.4992   26.6684 N   0  5  0  0  0  0
    3.5626   53.9205   26.9162 N   0  0  0  0  0  0
    0.1593   52.6520   24.2550 N   0  0  0  0  0  0
   -1.0622   52.4939   23.6910 C   0  0  0  0  0  0
   -1.2352   52.4964   22.4765 O   0  0  0  0  0  0
   -2.2217   52.3928   24.7240 C   0  0  0  0  0  0
   -1.8616   51.4892   25.9497 C   0  0  1  0  0  0
   -2.6325   51.6116   26.7128 H   0  0  0  0  0  0
   -1.8905   50.0116   25.5596 C   0  0  0  0  0  0
   -0.7178   49.2883   25.2952 C   0  0  0  0  0  0
   -0.7894   47.9673   24.8635 C   0  0  0  0  0  0
   -2.0301   47.3560   24.6901 C   0  0  0  0  0  0
   -3.2025   48.0555   24.9779 C   0  0  0  0  0  0
   -3.1303   49.3776   25.4100 C   0  0  0  0  0  0
   -4.9086   47.2300   24.7615 Br  0  0  0  0  0  0
   -2.0897   46.0970   24.2182 F   0  0  0  0  0  0
   -0.9145   52.5613   29.6186 H   0  0  0  0  0  0
   -1.2827   50.9486   29.0123 H   0  0  0  0  0  0
    0.2853   51.2972   29.7340 H   0  0  0  0  0  0
    2.5025   53.4083   23.7798 H   0  0  0  0  0  0
    4.6310   54.4334   23.3208 H   0  0  0  0  0  0
    0.9068   52.6512   23.5779 H   0  0  0  0  0  0
   -2.4292   53.4049   25.0580 H   0  0  0  0  0  0
   -3.1034   52.0197   24.2012 H   0  0  0  0  0  0
    0.2543   49.7423   25.4109 H   0  0  0  0  0  0
    0.1208   47.4210   24.6586 H   0  0  0  0  0  0
   -4.0445   49.9165   25.6123 H   0  0  0  0  0  0
  1  2  1  0  0  0
  1 28  1  0  0  0
  1 29  1  0  0  0
  1 30  1  0  0  0
  2  6  2  0  0  0
  2  3  1  0  0  0
  3 18  1  0  0  0
  3  4  2  0  0  0
  4  5  1  0  0  0
  4 14  1  0  0  0
  5  6  1  0  0  0
  5  7  1  0  0  0
  7 13  2  0  0  0
  7  8  1  0  0  0
  8  9  2  0  0  0
  8 31  1  0  0  0
  9 10  1  0  0  0
  9 32  1  0  0  0
 10 11  2  0  0  0
 10 12  1  0  0  0
 12 13  1  0  0  0
 14 15  1  0  0  0
 14 33  1  0  0  0
 15 16  2  0  0  0
 15 17  1  0  0  0
 17 18  1  0  0  0
 17 34  1  0  0  0
 17 35  1  0  0  0
 18 19  1  0  0  0
 18 20  1  0  0  0
 20 25  2  0  0  0
 20 21  1  0  0  0
 21 22  2  0  0  0
 21 36  1  0  0  0
 22 23  1  0  0  0
 22 37  1  0  0  0
 23 24  2  0  0  0
 23 27  1  0  0  0
 24 25  1  0  0  0
 24 26  1  0  0  0
 25 38  1  0  0  0
M  CHG  1  12  -1
M  END
> <i_i_glide_confnum>
10

> <i_i_glide_lignum>
1971

> <i_i_glide_posenum>
337

> <i_i_glide_rotatable_bonds>
2

> <i_m_Source_File_Index>
1964

> <b_m_subgroup_collapsed>
0

> <r_i_docking_score>
-3.95532

> <r_i_glide_ecoul>
-3.41391

> <r_i_glide_eff_state_penalty>
0

> <r_i_glide_einternal>
0.988296

> <r_i_glide_emodel>
-45.1624

> <r_i_glide_energy>
-36.1466

> <r_i_glide_erotb>
0.227076

> <r_i_glide_esite>
-0.0823565

> <r_i_glide_evdw>
-32.7327

> <r_i_glide_gscore>
-3.95532

> <r_i_glide_hbond>
0

> <r_i_glide_ligand_efficiency>
-0.152128

> <r_i_glide_ligand_efficiency_ln>
-0.928894

> <r_i_glide_ligand_efficiency_sa>
-0.450678

> <r_i_glide_lipo>
-0.817283

> <r_i_glide_metal>
0

> <r_i_glide_rewards>
-1.13404

> <s_i_glide_gridfile>
wee1_glide-grid

> <s_m_Source_File>
wee1_decoys_glide_SP.sdf

> <s_m_Source_Path>
/Users/zhangxujun/Desktop

> <s_m_entry_id>
2239

> <s_m_entry_name>
wee1_decoys_glide_SP.1964

> <s_m_subgroup_title>
wee1_decoys_glide_SP

> <s_m_subgroupid>
wee1_decoys_glide_SP


$$$$
