@<TRIPOS>MOLECULE
ZINC33033596_1273
71   74    1
SMALL
USER_CHARGES


@<TRIPOS>ATOM
      1 C1          6.2554   57.0831   17.6772 C.3       1 UNK         0.0000 
      2 C2          5.8493   56.1447   18.8056 C.ar      1 UNK         0.0000 
      3 C3          6.6345   56.0857   19.9593 C.ar      1 UNK         0.0000 
      4 C4          6.2902   55.2581   21.0323 C.ar      1 UNK         0.0000 
      5 C5          5.1399   54.4492   20.9347 C.ar      1 UNK         0.0000 
      6 C6          4.3692   54.4967   19.7715 C.ar      1 UNK         0.0000 
      7 C7          4.7051   55.3378   18.7094 C.ar      1 UNK         0.0000 
      8 C8          3.7995   55.3828   17.4877 C.3       1 UNK         0.0000 
      9 S9          4.5818   53.3055   22.2111 S.o2      1 UNK         0.0000 
     10 O10         5.1546   53.6968   23.5026 O.2       1 UNK         0.0000 
     11 O11         4.7733   51.9520   21.6803 O.2       1 UNK         0.0000 
     12 N12         2.8413   53.5899   22.3758 N.pl3     1 UNK         0.0000 
     13 C13         2.0280   52.6652   23.0520 C.ar      1 UNK         0.0000 
     14 C14         1.6314   53.0099   24.3500 C.ar      1 UNK         0.0000 
     15 C15         0.8328   52.1514   25.1193 C.ar      1 UNK         0.0000 
     16 C16         0.3721   50.9690   24.5391 C.ar      1 UNK         0.0000 
     17 C17         0.7488   50.6208   23.2470 C.ar      1 UNK         0.0000 
     18 C18         1.6008   51.4384   22.4863 C.ar      1 UNK         0.0000 
     19 N19         1.9356   51.0478   21.1890 N.pl3     1 UNK         0.0000 
     20 C20         2.0786   49.6167   20.8632 C.3       1 UNK         0.0000 
     21 C21         2.8876   49.3425   19.5880 C.3       1 UNK         0.0000 
     22 N22         2.3044   50.1061   18.4018 N.4       1 UNK         0.0000 
     23 C23         2.2331   51.6029   18.7265 C.3       1 UNK         0.0000 
     24 C24         1.4464   51.8330   20.0408 C.3       1 UNK         0.0000 
     25 C25         0.4022   52.4960   26.5273 C.2       1 UNK         0.0000 
     26 O26        -0.7893   52.3406   26.8096 O.2       1 UNK         0.0000 
     27 N27         1.3104   52.9672   27.4296 N.am      1 UNK         0.0000 
     28 C28         2.7774   52.8548   27.2724 C.3       1 UNK         0.0000 
     29 C29         3.3957   54.2322   27.5893 C.3       1 UNK         0.0000 
     30 C30         2.9832   54.7171   28.9886 C.3       1 UNK         0.0000 
     31 C31         1.4470   54.7324   29.1222 C.3       1 UNK         0.0000 
     32 H32         1.0613   55.4417   28.3866 H         1 UNK         0.0000 
     33 C33         0.8500   53.3453   28.7850 C.3       1 UNK         0.0000 
     34 C34         0.9833   55.1836   30.5137 C.3       1 UNK         0.0000 
     35 C35         7.2038   55.2522   22.2481 C.3       1 UNK         0.0000 
     36 H36         5.5288   57.8908   17.5739 H         1 UNK         0.0000 
     37 H37         7.2422   57.5199   17.8365 H         1 UNK         0.0000 
     38 H38         6.2904   56.5457   16.7292 H         1 UNK         0.0000 
     39 H39         7.5287   56.6878   20.0165 H         1 UNK         0.0000 
     40 H40         3.4759   53.8992   19.7086 H         1 UNK         0.0000 
     41 H41         3.5270   56.4134   17.2564 H         1 UNK         0.0000 
     42 H42         4.3142   54.9725   16.6170 H         1 UNK         0.0000 
     43 H43         2.8693   54.8329   17.6404 H         1 UNK         0.0000 
     44 H44         2.6740   54.5270   22.7087 H         1 UNK         0.0000 
     45 H45         1.9610   53.9494   24.7702 H         1 UNK         0.0000 
     46 H46        -0.2745   50.3011   25.0944 H         1 UNK         0.0000 
     47 H47         0.3681   49.6932   22.8448 H         1 UNK         0.0000 
     48 H48         2.5256   49.0793   21.7029 H         1 UNK         0.0000 
     49 H49         1.0697   49.2314   20.7085 H         1 UNK         0.0000 
     50 H50         2.9057   48.2909   19.2975 H         1 UNK         0.0000 
     51 H51         3.9044   49.7138   19.6817 H         1 UNK         0.0000 
     52 H52         1.3940   49.7439   18.1615 H         1 UNK         0.0000 
     53 H53         1.7597   52.0734   17.8639 H         1 UNK         0.0000 
     54 H54         3.2748   51.9255   18.7873 H         1 UNK         0.0000 
     55 H55         0.4197   51.4983   19.8780 H         1 UNK         0.0000 
     56 H56         1.4020   52.8960   20.2772 H         1 UNK         0.0000 
     57 H57         3.1027   52.4998   26.2968 H         1 UNK         0.0000 
     58 H58         3.1287   52.1287   28.0072 H         1 UNK         0.0000 
     59 H59         3.1053   54.9555   26.8280 H         1 UNK         0.0000 
     60 H60         4.4828   54.1644   27.5300 H         1 UNK         0.0000 
     61 H61         3.3982   55.7022   29.2047 H         1 UNK         0.0000 
     62 H62         3.4119   54.0585   29.7458 H         1 UNK         0.0000 
     63 H63         1.1917   52.6013   29.5054 H         1 UNK         0.0000 
     64 H64        -0.2371   53.4112   28.8601 H         1 UNK         0.0000 
     65 H65         1.2131   54.4389   31.2758 H         1 UNK         0.0000 
     66 H66        -0.0955   55.3060   30.5375 H         1 UNK         0.0000 
     67 H67         1.4296   56.1344   30.8079 H         1 UNK         0.0000 
     68 H68         8.1380   55.7833   22.0671 H         1 UNK         0.0000 
     69 H69         6.7098   55.7119   23.1037 H         1 UNK         0.0000 
     70 H70         7.4723   54.2327   22.5240 H         1 UNK         0.0000 
     71 H71         2.9249   49.9416   17.6027 H         1 UNK         0.0000 
@<TRIPOS>BOND
     1    1    2 1    
     2    1   36 1    
     3    1   37 1    
     4    1   38 1    
     5    2    7 ar   
     6    2    3 ar   
     7    3    4 ar   
     8    3   39 1    
     9    4    5 ar   
    10    4   35 1    
    11    5    6 ar   
    12    5    9 1    
    13    6    7 ar   
    14    6   40 1    
    15    7    8 1    
    16    8   41 1    
    17    8   42 1    
    18    8   43 1    
    19    9   10 2    
    20    9   11 2    
    21    9   12 1    
    22   12   13 1    
    23   12   44 1    
    24   13   18 ar   
    25   13   14 ar   
    26   14   15 ar   
    27   14   45 1    
    28   15   16 ar   
    29   15   25 1    
    30   16   17 ar   
    31   16   46 1    
    32   17   18 ar   
    33   17   47 1    
    34   18   19 1    
    35   19   24 1    
    36   19   20 1    
    37   20   21 1    
    38   20   48 1    
    39   20   49 1    
    40   21   22 1    
    41   21   50 1    
    42   21   51 1    
    43   22   23 1    
    44   22   52 1    
    45   22   71 1    
    46   23   24 1    
    47   23   53 1    
    48   23   54 1    
    49   24   55 1    
    50   24   56 1    
    51   25   26 2    
    52   25   27 am   BACKBONE|DICT|INTERRES
    53   27   33 1    
    54   27   28 1    
    55   28   29 1    
    56   28   57 1    
    57   28   58 1    
    58   29   30 1    
    59   29   59 1    
    60   29   60 1    
    61   30   31 1    
    62   30   61 1    
    63   30   62 1    
    64   31   32 1    
    65   31   33 1    
    66   31   34 1    
    67   33   63 1    
    68   33   64 1    
    69   34   65 1    
    70   34   66 1    
    71   34   67 1    
    72   35   68 1    
    73   35   69 1    
    74   35   70 1    
@<TRIPOS>SUBSTRUCTURE
     1 UNK         1 GROUP             0       ****    0 ROOT    
