ZINC02250010_5670
                    3D
 Schrodinger Suite 2024-2.
 51 55  0  0  1  0            999 V2000
    9.2445   53.6671   15.7522 C   0  0  0  0  0  0
    8.2865   54.6638   15.5790 C   0  0  0  0  0  0
    8.0502   55.5800   16.6030 C   0  0  0  0  0  0
    8.7827   55.5013   17.7931 C   0  0  0  0  0  0
    9.7384   54.4971   17.9580 C   0  0  0  0  0  0
    9.9697   53.5776   16.9396 C   0  0  0  0  0  0
    8.5176   56.4843   18.9294 C   0  0  0  0  0  0
    7.2737   56.0980   19.7476 C   0  0  0  0  0  0
    6.1922   56.2499   19.1690 O   0  0  0  0  0  0
    7.5041   55.6978   20.9919 N   0  5  0  0  0  0
    6.5915   55.2007   21.7348 C   0  0  0  0  0  0
    5.3910   54.8191   21.4645 N   0  0  0  0  0  0
    4.8570   54.2724   22.6110 N   0  0  0  0  0  0
    3.4121   54.0032   22.7490 C   0  0  2  0  0  0
    2.8902   54.8976   22.4011 H   0  0  0  0  0  0
    3.0514   53.8211   24.2370 C   0  0  0  0  0  0
    3.9866   53.9807   25.2217 C   0  0  0  0  0  0
    5.2851   54.3755   24.9645 N   0  0  0  0  0  0
    5.6422   54.4947   23.7394 C   0  0  0  0  0  0
    6.8236   54.9453   23.1254 N   0  0  0  0  0  0
    3.6528   53.7245   26.6585 C   0  0  0  0  0  0
    2.3195   53.7406   27.1061 C   0  0  0  0  0  0
    1.9927   53.3883   28.4104 C   0  0  0  0  0  0
    2.9970   53.0051   29.2887 C   0  0  0  0  0  0
    4.3273   53.0092   28.8842 C   0  0  0  0  0  0
    4.6518   53.3717   27.5814 C   0  0  0  0  0  0
    2.5847   52.4966   30.8817 Cl  0  0  0  0  0  0
    2.8333   52.8646   21.8919 C   0  0  0  0  0  0
    1.4522   52.6229   21.9320 C   0  0  0  0  0  0
    0.8894   51.5925   21.1847 C   0  0  0  0  0  0
    1.7046   50.7985   20.3839 C   0  0  0  0  0  0
    3.0748   51.0345   20.3210 C   0  0  0  0  0  0
    3.6397   52.0627   21.0725 C   0  0  0  0  0  0
    1.1604   49.7944   19.6616 F   0  0  0  0  0  0
    9.4245   52.9527   14.9614 H   0  0  0  0  0  0
    7.7244   54.7230   14.6585 H   0  0  0  0  0  0
    7.2988   56.3446   16.4754 H   0  0  0  0  0  0
   10.2989   54.4267   18.8781 H   0  0  0  0  0  0
   10.7037   52.7956   17.0725 H   0  0  0  0  0  0
    9.4022   56.5691   19.5643 H   0  0  0  0  0  0
    8.3504   57.4792   18.5102 H   0  0  0  0  0  0
    2.0455   53.5282   24.4821 H   0  0  0  0  0  0
    7.6827   55.1669   23.6085 H   0  0  0  0  0  0
    1.5101   54.0185   26.4484 H   0  0  0  0  0  0
    0.9607   53.3918   28.7289 H   0  0  0  0  0  0
    5.0998   52.6981   29.5694 H   0  0  0  0  0  0
    5.6876   53.3301   27.2737 H   0  0  0  0  0  0
    0.8113   53.2384   22.5447 H   0  0  0  0  0  0
   -0.1726   51.4046   21.2228 H   0  0  0  0  0  0
    3.6899   50.4215   19.6819 H   0  0  0  0  0  0
    4.7047   52.2304   21.0033 H   0  0  0  0  0  0
  1  6  2  0  0  0
  1  2  1  0  0  0
  1 35  1  0  0  0
  2  3  2  0  0  0
  2 36  1  0  0  0
  3  4  1  0  0  0
  3 37  1  0  0  0
  4  5  2  0  0  0
  4  7  1  0  0  0
  5  6  1  0  0  0
  5 38  1  0  0  0
  6 39  1  0  0  0
  7  8  1  0  0  0
  7 40  1  0  0  0
  7 41  1  0  0  0
  8  9  2  0  0  0
  8 10  1  0  0  0
 10 11  1  0  0  0
 11 20  1  0  0  0
 11 12  2  0  0  0
 12 13  1  0  0  0
 13 19  1  0  0  0
 13 14  1  0  0  0
 14 15  1  0  0  0
 14 16  1  0  0  0
 14 28  1  0  0  0
 16 17  2  0  0  0
 16 42  1  0  0  0
 17 18  1  0  0  0
 17 21  1  0  0  0
 18 19  2  0  0  0
 19 20  1  0  0  0
 20 43  1  0  0  0
 21 26  2  0  0  0
 21 22  1  0  0  0
 22 23  2  0  0  0
 22 44  1  0  0  0
 23 24  1  0  0  0
 23 45  1  0  0  0
 24 25  2  0  0  0
 24 27  1  0  0  0
 25 26  1  0  0  0
 25 46  1  0  0  0
 26 47  1  0  0  0
 28 33  2  0  0  0
 28 29  1  0  0  0
 29 30  2  0  0  0
 29 48  1  0  0  0
 30 31  1  0  0  0
 30 49  1  0  0  0
 31 32  2  0  0  0
 31 34  1  0  0  0
 32 33  1  0  0  0
 32 50  1  0  0  0
 33 51  1  0  0  0
M  CHG  1  10  -1
M  END
> <i_i_glide_confnum>
19

> <i_i_glide_lignum>
5671

> <i_i_glide_posenum>
297

> <i_i_glide_rotatable_bonds>
6

> <i_m_Source_File_Index>
2782

> <b_m_subgroup_collapsed>
0

> <r_i_docking_score>
-5.7557

> <r_i_glide_ecoul>
-2.33023

> <r_i_glide_eff_state_penalty>
0

> <r_i_glide_einternal>
1.8401

> <r_i_glide_emodel>
-63.7298

> <r_i_glide_energy>
-45.9665

> <r_i_glide_erotb>
0.477632

> <r_i_glide_esite>
-0.0200898

> <r_i_glide_evdw>
-43.6362

> <r_i_glide_gscore>
-5.7557

> <r_i_glide_hbond>
-0.32

> <r_i_glide_ligand_efficiency>
-0.174415

> <r_i_glide_ligand_efficiency_ln>
-1.28004

> <r_i_glide_ligand_efficiency_sa>
-0.559442

> <r_i_glide_lipo>
-2.41851

> <r_i_glide_metal>
0

> <r_i_glide_rewards>
-0.943382

> <s_i_glide_gridfile>
wee1_glide-grid

> <s_m_Source_File>
wee1_decoys_glide_SP.sdf

> <s_m_Source_Path>
/Users/zhangxujun/Desktop

> <s_m_entry_id>
3057

> <s_m_entry_name>
wee1_decoys_glide_SP.2782

> <s_m_subgroup_title>
wee1_decoys_glide_SP

> <s_m_subgroupid>
wee1_decoys_glide_SP


$$$$
