@<TRIPOS>MOLECULE
ZINC38563337_2061
47   50    1
SMALL
USER_CHARGES


@<TRIPOS>ATOM
      1 C1          1.4755   50.9427   19.5112 C.2       1 UNK         0.0000 
      2 C2          0.4111   50.7351   20.3939 C.2       1 UNK         0.0000 
      3 C3          0.7861   50.4066   21.6975 C.2       1 UNK         0.0000 
      4 S4          2.5319   50.3518   21.7844 S.3       1 UNK         0.0000 
      5 C5          2.7038   50.7759   20.1187 C.2       1 UNK         0.0000 
      6 C6         -0.1190   50.1360   22.8938 C.3       1 UNK         0.0000 
      7 H7         -1.0004   49.6169   22.5181 H         1 UNK         0.0000 
      8 C8          0.5402   49.2539   23.9896 C.3       1 UNK         0.0000 
      9 N9         -0.3963   48.6578   24.9478 N.am      1 UNK         0.0000 
     10 C10        -1.2909   47.7036   24.6504 C.2       1 UNK         0.0000 
     11 O11        -1.3459   47.1506   23.5505 O.2       1 UNK         0.0000 
     12 N12        -2.1201   47.4600   25.6817 N.am      1 UNK         0.0000 
     13 C13        -3.2605   46.6376   25.6958 C.ar      1 UNK         0.0000 
     14 C14        -3.9970   46.2971   24.5347 C.ar      1 UNK         0.0000 
     15 C15        -5.1305   45.4778   24.6141 C.ar      1 UNK         0.0000 
     16 C16        -5.5056   45.0209   25.8709 C.ar      1 UNK         0.0000 
     17 C17        -4.8204   45.3714   26.9994 C.ar      1 UNK         0.0000 
     18 C18        -3.6913   46.1827   26.9533 C.ar      1 UNK         0.0000 
     19 O19        -5.4468   44.8408   28.0815 O.3       1 UNK         0.0000 
     20 C20        -6.3718   43.9231   27.5613 C.3       1 UNK         0.0000 
     21 O21        -6.5641   44.2396   26.2092 O.3       1 UNK         0.0000 
     22 S22        -0.8030   51.7377   23.6537 S.o2      1 UNK         0.0000 
     23 O23        -1.5426   51.4233   24.8810 O.2       1 UNK         0.0000 
     24 O24        -1.4605   52.4968   22.5841 O.2       1 UNK         0.0000 
     25 C25         0.6664   52.6520   24.1335 C.ar      1 UNK         0.0000 
     26 C26         1.1054   52.6172   25.4591 C.ar      1 UNK         0.0000 
     27 C27         2.2579   53.3091   25.8237 C.ar      1 UNK         0.0000 
     28 C28         2.9640   54.0340   24.8645 C.ar      1 UNK         0.0000 
     29 C29         2.5260   54.0736   23.5424 C.ar      1 UNK         0.0000 
     30 C30         1.3773   53.3790   23.1756 C.ar      1 UNK         0.0000 
     31 Cl31        4.3944   54.8863   25.3181 Cl        1 UNK         0.0000 
     32 H32         1.3549   51.2042   18.4694 H         1 UNK         0.0000 
     33 H33        -0.6219   50.8302   20.0945 H         1 UNK         0.0000 
     34 H34         3.6837   50.8729   19.6708 H         1 UNK         0.0000 
     35 H35         1.1043   48.4487   23.5219 H         1 UNK         0.0000 
     36 H36         1.2766   49.8319   24.5464 H         1 UNK         0.0000 
     37 H37        -0.3629   48.9991   25.8979 H         1 UNK         0.0000 
     38 H38        -1.8546   47.8337   26.5908 H         1 UNK         0.0000 
     39 H39        -3.7141   46.6763   23.5644 H         1 UNK         0.0000 
     40 H40        -5.6941   45.2253   23.7284 H         1 UNK         0.0000 
     41 H41        -3.1595   46.4535   27.8564 H         1 UNK         0.0000 
     42 H42        -7.3181   43.9638   28.1021 H         1 UNK         0.0000 
     43 H43        -5.9605   42.9139   27.6429 H         1 UNK         0.0000 
     44 H44         0.5618   52.0527   26.2040 H         1 UNK         0.0000 
     45 H45         2.6040   53.2804   26.8467 H         1 UNK         0.0000 
     46 H46         3.0762   54.6338   22.8000 H         1 UNK         0.0000 
     47 H47         1.0520   53.3985   22.1443 H         1 UNK         0.0000 
@<TRIPOS>BOND
     1    1    5 2    
     2    1    2 1    
     3    1   32 1    
     4    2    3 2    
     5    2   33 1    
     6    3    4 1    
     7    3    6 1    
     8    4    5 1    
     9    5   34 1    
    10    6    7 1    
    11    6    8 1    
    12    6   22 1    
    13    8    9 1    
    14    8   35 1    
    15    8   36 1    
    16    9   10 am   BACKBONE|DICT|INTERRES
    17    9   37 1    
    18   10   11 2    
    19   10   12 am   BACKBONE|DICT|INTERRES
    20   12   13 1    
    21   12   38 1    
    22   13   18 ar   
    23   13   14 ar   
    24   14   15 ar   
    25   14   39 1    
    26   15   16 ar   
    27   15   40 1    
    28   16   21 1    
    29   16   17 ar   
    30   17   18 ar   
    31   17   19 1    
    32   18   41 1    
    33   19   20 1    
    34   20   21 1    
    35   20   42 1    
    36   20   43 1    
    37   22   23 2    
    38   22   24 2    
    39   22   25 1    
    40   25   30 ar   
    41   25   26 ar   
    42   26   27 ar   
    43   26   44 1    
    44   27   28 ar   
    45   27   45 1    
    46   28   29 ar   
    47   28   31 1    
    48   29   30 ar   
    49   29   46 1    
    50   30   47 1    
@<TRIPOS>SUBSTRUCTURE
     1 UNK         1 GROUP             0       ****    0 ROOT    
