@<TRIPOS>MOLECULE
ZINC10933298_849
65   67    1
SMALL
USER_CHARGES


@<TRIPOS>ATOM
      1 C1          3.6669   51.3739   20.9661 C.3       1 UNK         0.0000 
      2 C2          2.5656   52.4271   21.2571 C.3       1 UNK         0.0000 
      3 H3          2.7123   53.3093   20.6325 H         1 UNK         0.0000 
      4 C4          1.1305   51.9265   20.9604 C.2       1 UNK         0.0000 
      5 O5          0.2019   52.1844   21.7277 O.2       1 UNK         0.0000 
      6 N6          0.9611   51.2028   19.8348 N.am      1 UNK         0.0000 
      7 C7         -0.2644   50.5751   19.2997 C.3       1 UNK         0.0000 
      8 C8         -0.0437   50.4792   17.7681 C.3       1 UNK         0.0000 
      9 C9         -1.4583   51.4297   19.5159 C.1       1 UNK         0.0000 
     10 N10        -2.3948   52.0963   19.6817 N.1       1 UNK         0.0000 
     11 C11        -0.5001   49.1431   19.9092 C.3       1 UNK         0.0000 
     12 C12        -0.5757   49.1106   21.4581 C.3       1 UNK         0.0000 
     13 C13        -1.7493   48.4277   19.3401 C.3       1 UNK         0.0000 
     14 O14         2.6326   52.8170   22.6369 O.3       1 UNK         0.0000 
     15 C15         3.5468   53.6967   23.1169 C.2       1 UNK         0.0000 
     16 O16         4.3558   54.3139   22.4226 O.2       1 UNK         0.0000 
     17 C17         3.5122   53.7575   24.5899 C.2       1 UNK         0.0000 
     18 C18         4.5955   54.2397   25.3597 C.2       1 UNK         0.0000 
     19 C19         4.4335   54.1293   26.7181 C.2       1 UNK         0.0000 
     20 S20         2.8791   53.5639   27.1596 S.3       1 UNK         0.0000 
     21 C21         2.4878   53.2988   25.4648 C.2       1 UNK         0.0000 
     22 N22         1.3188   52.6408   25.0703 N.am      1 UNK         0.0000 
     23 C23         0.3142   52.1506   25.8298 C.2       1 UNK         0.0000 
     24 O24         0.1828   52.3628   27.0379 O.2       1 UNK         0.0000 
     25 C25        -0.7220   51.2734   25.0923 C.3       1 UNK         0.0000 
     26 C26        -0.7239   49.8766   25.7654 C.3       1 UNK         0.0000 
     27 C27        -1.7456   48.9645   25.0557 C.3       1 UNK         0.0000 
     28 C28        -3.1600   49.5862   25.0507 C.3       1 UNK         0.0000 
     29 C29        -3.1666   51.0384   24.5215 C.3       1 UNK         0.0000 
     30 C30        -2.1246   51.9186   25.2454 C.3       1 UNK         0.0000 
     31 C31         5.6599   54.4747   27.5137 C.3       1 UNK         0.0000 
     32 C32         6.6753   54.8282   26.4150 C.3       1 UNK         0.0000 
     33 C33         5.9629   54.8072   25.0485 C.3       1 UNK         0.0000 
     34 H34         3.7007   51.0964   19.9098 H         1 UNK         0.0000 
     35 H35         4.6556   51.7594   21.2051 H         1 UNK         0.0000 
     36 H36         3.5096   50.4650   21.5489 H         1 UNK         0.0000 
     37 H37         1.8000   50.9757   19.3202 H         1 UNK         0.0000 
     38 H38        -0.9450   50.1583   17.2390 H         1 UNK         0.0000 
     39 H39         0.2332   51.4459   17.3389 H         1 UNK         0.0000 
     40 H40         0.7506   49.7750   17.5143 H         1 UNK         0.0000 
     41 H41         0.3574   48.5295   19.6327 H         1 UNK         0.0000 
     42 H42        -1.3487   49.7805   21.8333 H         1 UNK         0.0000 
     43 H43         0.3718   49.4011   21.9186 H         1 UNK         0.0000 
     44 H44        -0.8132   48.1142   21.8327 H         1 UNK         0.0000 
     45 H45        -2.6593   48.9913   19.5419 H         1 UNK         0.0000 
     46 H46        -1.6817   48.2748   18.2630 H         1 UNK         0.0000 
     47 H47        -1.8780   47.4383   19.7831 H         1 UNK         0.0000 
     48 H48         1.2412   52.4853   24.0710 H         1 UNK         0.0000 
     49 H49        -0.4198   51.2066   24.0463 H         1 UNK         0.0000 
     50 H50         0.2444   49.3772   25.6737 H         1 UNK         0.0000 
     51 H51        -1.0399   49.9349   26.8137 H         1 UNK         0.0000 
     52 H52        -1.4146   48.7712   24.0319 H         1 UNK         0.0000 
     53 H53        -1.7745   47.9944   25.5531 H         1 UNK         0.0000 
     54 H54        -3.8350   48.9687   24.4549 H         1 UNK         0.0000 
     55 H55        -3.5577   49.5695   26.0677 H         1 UNK         0.0000 
     56 H56        -2.9616   51.0407   23.4487 H         1 UNK         0.0000 
     57 H57        -4.1621   51.4703   24.6416 H         1 UNK         0.0000 
     58 H58        -2.4390   51.9670   26.2909 H         1 UNK         0.0000 
     59 H59        -2.1694   52.9008   24.7701 H         1 UNK         0.0000 
     60 H60         5.4916   55.2984   28.2037 H         1 UNK         0.0000 
     61 H61         6.0152   53.6316   28.1068 H         1 UNK         0.0000 
     62 H62         7.1040   55.8085   26.6047 H         1 UNK         0.0000 
     63 H63         7.5039   54.1170   26.4302 H         1 UNK         0.0000 
     64 H64         6.5223   54.2045   24.3325 H         1 UNK         0.0000 
     65 H65         5.9020   55.8175   24.6414 H         1 UNK         0.0000 
@<TRIPOS>BOND
     1    1    2 1    
     2    1   34 1    
     3    1   35 1    
     4    1   36 1    
     5    2    3 1    
     6    2    4 1    
     7    2   14 1    
     8    4    5 2    
     9    4    6 am   BACKBONE|DICT|INTERRES
    10    6    7 1    
    11    6   37 1    
    12    7    8 1    
    13    7    9 1    
    14    7   11 1    
    15    8   38 1    
    16    8   39 1    
    17    8   40 1    
    18    9   10 3    
    19   11   12 1    
    20   11   13 1    
    21   11   41 1    
    22   12   42 1    
    23   12   43 1    
    24   12   44 1    
    25   13   45 1    
    26   13   46 1    
    27   13   47 1    
    28   14   15 1    
    29   15   16 2    
    30   15   17 1    
    31   17   21 2    
    32   17   18 1    
    33   18   33 1    
    34   18   19 2    
    35   19   20 1    
    36   19   31 1    
    37   20   21 1    
    38   21   22 am   BACKBONE|DICT|INTERRES
    39   22   23 am   BACKBONE|DICT|INTERRES
    40   22   48 1    
    41   23   24 2    
    42   23   25 1    
    43   25   30 1    
    44   25   26 1    
    45   25   49 1    
    46   26   27 1    
    47   26   50 1    
    48   26   51 1    
    49   27   28 1    
    50   27   52 1    
    51   27   53 1    
    52   28   29 1    
    53   28   54 1    
    54   28   55 1    
    55   29   30 1    
    56   29   56 1    
    57   29   57 1    
    58   30   58 1    
    59   30   59 1    
    60   31   32 1    
    61   31   60 1    
    62   31   61 1    
    63   32   33 1    
    64   32   62 1    
    65   32   63 1    
    66   33   64 1    
    67   33   65 1    
@<TRIPOS>SUBSTRUCTURE
     1 UNK         1 GROUP             0       ****    0 ROOT    
