@<TRIPOS>MOLECULE
ZINC39327028_4502
69   74    1
SMALL
USER_CHARGES


@<TRIPOS>ATOM
      1 C1          2.1518   52.0009   19.9252 C.3       1 UNK         0.0000 
      2 C2          1.5075   51.3594   21.1567 C.2       1 UNK         0.0000 
      3 C3          0.9837   50.0952   21.2728 C.2       1 UNK         0.0000 
      4 C4          0.3041   49.5989   22.5922 C.3       1 UNK         0.0000 
      5 H5          0.7869   48.6661   22.8916 H         1 UNK         0.0000 
      6 C6          0.5546   50.6213   23.7196 C.2       1 UNK         0.0000 
      7 C7          0.1998   50.5167   25.0864 C.2       1 UNK         0.0000 
      8 C8          0.4551   51.6757   25.8387 C.2       1 UNK         0.0000 
      9 S9          1.1722   52.8995   24.8266 S.3       1 UNK         0.0000 
     10 C10         1.1010   51.8706   23.4529 C.2       1 UNK         0.0000 
     11 N11         1.5422   52.2510   22.2118 N.pl3     1 UNK         0.0000 
     12 C12         0.1289   51.9776   27.2424 C.2       1 UNK         0.0000 
     13 O13        -0.9329   51.5689   27.7141 O.2       1 UNK         0.0000 
     14 C14         1.1181   52.7636   28.1685 C.3       1 UNK         0.0000 
     15 C15         0.7971   52.5093   29.6832 C.3       1 UNK         0.0000 
     16 C16         1.7431   53.3398   30.5893 C.3       1 UNK         0.0000 
     17 C17         1.5539   54.8521   30.2671 C.3       1 UNK         0.0000 
     18 C18         1.9209   55.1163   28.7957 C.3       1 UNK         0.0000 
     19 C19         0.9703   54.2892   27.9112 C.3       1 UNK         0.0000 
     20 C20         3.3889   54.6884   28.5286 C.3       1 UNK         0.0000 
     21 C21         3.5572   53.1745   28.8321 C.3       1 UNK         0.0000 
     22 C22         3.2106   52.9156   30.3171 C.3       1 UNK         0.0000 
     23 C23         2.6035   52.3520   27.9299 C.3       1 UNK         0.0000 
     24 N24        -0.3604   49.3871   25.6206 N.pl3     1 UNK         0.0000 
     25 C25        -1.1965   49.2904   22.4578 C.ar      1 UNK         0.0000 
     26 C26        -1.6551   47.9677   22.4459 C.ar      1 UNK         0.0000 
     27 C27        -3.0138   47.6934   22.3411 C.ar      1 UNK         0.0000 
     28 C28        -3.9456   48.7391   22.2545 C.ar      1 UNK         0.0000 
     29 C29        -3.4831   50.0676   22.2709 C.ar      1 UNK         0.0000 
     30 C30        -2.1231   50.3347   22.3636 C.ar      1 UNK         0.0000 
     31 C31        -5.4060   48.4144   22.1510 C.2       1 UNK         0.0000 
     32 O32        -5.8423   47.2590   22.1089 O.2       1 UNK         0.0000 
     33 O33        -6.1988   49.5171   22.1131 O.3       1 UNK         0.0000 
     34 C34        -7.6109   49.3947   22.0387 C.3       1 UNK         0.0000 
     35 C35         0.9536   49.1061   20.1470 C.2       1 UNK         0.0000 
     36 O36         0.5062   47.9657   20.2773 O.2       1 UNK         0.0000 
     37 O37         1.4408   49.5417   18.9681 O.3       1 UNK         0.0000 
     38 C38         1.5084   48.6938   17.8312 C.3       1 UNK         0.0000 
     39 H39         2.9769   51.3874   19.5575 H         1 UNK         0.0000 
     40 H40         1.4146   52.1105   19.1286 H         1 UNK         0.0000 
     41 H41         2.5725   52.9923   20.1092 H         1 UNK         0.0000 
     42 H42         1.9160   53.1751   22.0608 H         1 UNK         0.0000 
     43 H43         0.8934   51.4488   29.9144 H         1 UNK         0.0000 
     44 H44        -0.2371   52.7730   29.9146 H         1 UNK         0.0000 
     45 H45         1.4932   53.1464   31.6339 H         1 UNK         0.0000 
     46 H46         2.1750   55.4980   30.8816 H         1 UNK         0.0000 
     47 H47         0.5238   55.1516   30.4696 H         1 UNK         0.0000 
     48 H48         1.7980   56.1764   28.5729 H         1 UNK         0.0000 
     49 H49        -0.0606   54.6008   28.0830 H         1 UNK         0.0000 
     50 H50         1.2149   54.5185   26.8819 H         1 UNK         0.0000 
     51 H51         4.0694   55.2843   29.1391 H         1 UNK         0.0000 
     52 H52         3.6572   54.8963   27.4918 H         1 UNK         0.0000 
     53 H53         4.5899   52.8773   28.6409 H         1 UNK         0.0000 
     54 H54         3.3565   51.8629   30.5624 H         1 UNK         0.0000 
     55 H55         3.9064   53.4626   30.9519 H         1 UNK         0.0000 
     56 H56         2.9138   52.4966   26.8969 H         1 UNK         0.0000 
     57 H57         2.7060   51.2906   28.1376 H         1 UNK         0.0000 
     58 H58        -0.5610   48.5763   25.0545 H         1 UNK         0.0000 
     59 H59        -0.6548   49.3256   26.5945 H         1 UNK         0.0000 
     60 H60        -0.9523   47.1502   22.5133 H         1 UNK         0.0000 
     61 H61        -3.3364   46.6615   22.3302 H         1 UNK         0.0000 
     62 H62        -4.1711   50.8978   22.2151 H         1 UNK         0.0000 
     63 H63        -1.7836   51.3604   22.3800 H         1 UNK         0.0000 
     64 H64        -8.0710   50.3834   22.0479 H         1 UNK         0.0000 
     65 H65        -7.9097   48.8876   21.1199 H         1 UNK         0.0000 
     66 H66        -8.0014   48.8301   22.8876 H         1 UNK         0.0000 
     67 H67         1.9017   49.2472   16.9778 H         1 UNK         0.0000 
     68 H68         2.1804   47.8532   18.0143 H         1 UNK         0.0000 
     69 H69         0.5252   48.3079   17.5650 H         1 UNK         0.0000 
@<TRIPOS>BOND
     1    1    2 1    
     2    1   39 1    
     3    1   40 1    
     4    1   41 1    
     5    2   11 1    
     6    2    3 2    
     7    3    4 1    
     8    3   35 1    
     9    4    5 1    
    10    4    6 1    
    11    4   25 1    
    12    6   10 2    
    13    6    7 1    
    14    7    8 2    
    15    7   24 1    
    16    8    9 1    
    17    8   12 1    
    18    9   10 1    
    19   10   11 1    
    20   11   42 1    
    21   12   13 2    
    22   12   14 1    
    23   14   19 1    
    24   14   23 1    
    25   14   15 1    
    26   15   16 1    
    27   15   43 1    
    28   15   44 1    
    29   16   22 1    
    30   16   17 1    
    31   16   45 1    
    32   17   18 1    
    33   17   46 1    
    34   17   47 1    
    35   18   19 1    
    36   18   20 1    
    37   18   48 1    
    38   19   49 1    
    39   19   50 1    
    40   20   21 1    
    41   20   51 1    
    42   20   52 1    
    43   21   22 1    
    44   21   23 1    
    45   21   53 1    
    46   22   54 1    
    47   22   55 1    
    48   23   56 1    
    49   23   57 1    
    50   24   58 1    
    51   24   59 1    
    52   25   30 ar   
    53   25   26 ar   
    54   26   27 ar   
    55   26   60 1    
    56   27   28 ar   
    57   27   61 1    
    58   28   29 ar   
    59   28   31 1    
    60   29   30 ar   
    61   29   62 1    
    62   30   63 1    
    63   31   32 2    
    64   31   33 1    
    65   33   34 1    
    66   34   64 1    
    67   34   65 1    
    68   34   66 1    
    69   35   36 2    
    70   35   37 1    
    71   37   38 1    
    72   38   67 1    
    73   38   68 1    
    74   38   69 1    
@<TRIPOS>SUBSTRUCTURE
     1 UNK         1 GROUP             0       ****    0 ROOT    
