@<TRIPOS>MOLECULE
ZINC33009227_3427
57   60    1
SMALL
USER_CHARGES


@<TRIPOS>ATOM
      1 C1          1.7447   54.2364   28.0202 C.3       1 UNK         0.0000 
      2 C2          3.2346   54.3504   27.7493 C.ar      1 UNK         0.0000 
      3 C3          4.1416   54.3633   28.8116 C.ar      1 UNK         0.0000 
      4 C4          5.5049   54.4672   28.5573 C.ar      1 UNK         0.0000 
      5 C5          5.9765   54.5438   27.2501 C.ar      1 UNK         0.0000 
      6 C6          5.0854   54.5308   26.1703 C.ar      1 UNK         0.0000 
      7 C7          3.7069   54.4308   26.4364 C.ar      1 UNK         0.0000 
      8 C8          5.6131   54.6546   24.7618 C.2       1 UNK         0.0000 
      9 O9          6.6911   55.2143   24.5484 O.2       1 UNK         0.0000 
     10 N10         4.8291   54.0978   23.8146 N.am      1 UNK         0.0000 
     11 C11         4.9960   54.0518   22.4214 C.ar      1 UNK         0.0000 
     12 C12         5.8329   54.8965   21.6892 C.ar      1 UNK         0.0000 
     13 C13         5.9156   54.7659   20.3057 C.ar      1 UNK         0.0000 
     14 C14         5.2002   53.7794   19.6009 C.ar      1 UNK         0.0000 
     15 C15         4.3841   52.9007   20.3619 C.ar      1 UNK         0.0000 
     16 C16         4.2574   53.0860   21.7473 C.ar      1 UNK         0.0000 
     17 N17         3.7666   51.7944   19.7502 N.am      1 UNK         0.0000 
     18 C18         2.6379   51.1372   20.0722 C.2       1 UNK         0.0000 
     19 O19         1.8637   51.4600   20.9750 O.2       1 UNK         0.0000 
     20 N20         2.5247   50.0511   19.2820 N.am      1 UNK         0.0000 
     21 C21         1.5890   49.0006   19.3170 C.ar      1 UNK         0.0000 
     22 C22         1.8462   47.9355   18.4506 C.ar      1 UNK         0.0000 
     23 C23         1.0046   46.8274   18.4276 C.ar      1 UNK         0.0000 
     24 C24        -0.1019   46.7813   19.2725 C.ar      1 UNK         0.0000 
     25 C25        -0.3838   47.8496   20.1218 C.ar      1 UNK         0.0000 
     26 C26         0.4593   48.9581   20.1482 C.ar      1 UNK         0.0000 
     27 Br27       -1.2192   45.2379   19.2845 Br        1 UNK         0.0000 
     28 N28         5.3756   53.7015   18.1942 N.pl3     1 UNK         0.0000 
     29 C29         6.4190   54.3982   17.4248 C.3       1 UNK         0.0000 
     30 C30         6.0908   54.3143   15.9348 C.3       1 UNK         0.0000 
     31 C31         5.2054   53.0952   15.8507 C.3       1 UNK         0.0000 
     32 C32         4.4712   53.1267   17.1841 C.3       1 UNK         0.0000 
     33 H33         1.2452   53.6821   27.2240 H         1 UNK         0.0000 
     34 H34         1.5539   53.6901   28.9453 H         1 UNK         0.0000 
     35 H35         1.2948   55.2277   28.0883 H         1 UNK         0.0000 
     36 H36         3.7965   54.3083   29.8331 H         1 UNK         0.0000 
     37 H37         6.2142   54.4970   29.3689 H         1 UNK         0.0000 
     38 H38         7.0439   54.6184   27.0890 H         1 UNK         0.0000 
     39 H39         2.9851   54.4358   25.6325 H         1 UNK         0.0000 
     40 H40         4.0299   53.5894   24.1620 H         1 UNK         0.0000 
     41 H41         6.4125   55.6689   22.1707 H         1 UNK         0.0000 
     42 H42         6.5660   55.4539   19.7935 H         1 UNK         0.0000 
     43 H43         3.6274   52.4241   22.3239 H         1 UNK         0.0000 
     44 H44         4.2383   51.4779   18.9060 H         1 UNK         0.0000 
     45 H45         3.2529   49.9375   18.5849 H         1 UNK         0.0000 
     46 H46         2.7034   47.9559   17.7936 H         1 UNK         0.0000 
     47 H47         1.2169   46.0026   17.7630 H         1 UNK         0.0000 
     48 H48        -1.2461   47.8141   20.7718 H         1 UNK         0.0000 
     49 H49         0.2162   49.7630   20.8212 H         1 UNK         0.0000 
     50 H50         6.4156   55.4593   17.6737 H         1 UNK         0.0000 
     51 H51         7.4092   53.9859   17.6401 H         1 UNK         0.0000 
     52 H52         5.5589   55.2124   15.6045 H         1 UNK         0.0000 
     53 H53         6.9876   54.2142   15.3206 H         1 UNK         0.0000 
     54 H54         5.7822   52.1733   15.7613 H         1 UNK         0.0000 
     55 H55         4.5190   53.1343   15.0037 H         1 UNK         0.0000 
     56 H56         4.2012   52.0972   17.4140 H         1 UNK         0.0000 
     57 H57         3.5422   53.7010   17.1318 H         1 UNK         0.0000 
@<TRIPOS>BOND
     1    1    2 1    
     2    1   33 1    
     3    1   34 1    
     4    1   35 1    
     5    2    7 ar   
     6    2    3 ar   
     7    3    4 ar   
     8    3   36 1    
     9    4    5 ar   
    10    4   37 1    
    11    5    6 ar   
    12    5   38 1    
    13    6    7 ar   
    14    6    8 1    
    15    7   39 1    
    16    8    9 2    
    17    8   10 am   BACKBONE|DICT|INTERRES
    18   10   11 1    
    19   10   40 1    
    20   11   16 ar   
    21   11   12 ar   
    22   12   13 ar   
    23   12   41 1    
    24   13   14 ar   
    25   13   42 1    
    26   14   15 ar   
    27   14   28 1    
    28   15   16 ar   
    29   15   17 1    
    30   16   43 1    
    31   17   18 am   BACKBONE|DICT|INTERRES
    32   17   44 1    
    33   18   19 2    
    34   18   20 am   BACKBONE|DICT|INTERRES
    35   20   21 1    
    36   20   45 1    
    37   21   26 ar   
    38   21   22 ar   
    39   22   23 ar   
    40   22   46 1    
    41   23   24 ar   
    42   23   47 1    
    43   24   25 ar   
    44   24   27 1    
    45   25   26 ar   
    46   25   48 1    
    47   26   49 1    
    48   28   32 1    
    49   28   29 1    
    50   29   30 1    
    51   29   50 1    
    52   29   51 1    
    53   30   31 1    
    54   30   52 1    
    55   30   53 1    
    56   31   32 1    
    57   31   54 1    
    58   31   55 1    
    59   32   56 1    
    60   32   57 1    
@<TRIPOS>SUBSTRUCTURE
     1 UNK         1 GROUP             0       ****    0 ROOT    
