@<TRIPOS>MOLECULE
ZINC01035457_3561
39   41    1
SMALL
USER_CHARGES


@<TRIPOS>ATOM
      1 C1          0.7359   52.7883   27.4566 C.3       1 UNK         0.0000 
      2 C2          2.0276   52.7698   28.2572 C.ar      1 UNK         0.0000 
      3 C3          1.9426   52.2649   29.5614 C.ar      1 UNK         0.0000 
      4 C4          3.0813   52.1997   30.3576 C.ar      1 UNK         0.0000 
      5 N5          4.3044   52.5874   29.9412 N.ar      1 UNK         0.0000 
      6 C6          4.3840   53.0965   28.7143 C.ar      1 UNK         0.0000 
      7 C7          3.2992   53.2260   27.7961 C.ar      1 UNK         0.0000 
      8 C8          3.7583   53.8158   26.5580 C.2       1 UNK         0.0000 
      9 C9          5.1346   54.0999   26.5563 C.2       1 UNK         0.0000 
     10 S10         5.8962   53.6968   28.0816 S.3       1 UNK         0.0000 
     11 C11         6.0123   54.6317   25.5288 C.2       1 UNK         0.0000 
     12 O12         7.1042   55.1285   25.8258 O.2       1 UNK         0.0000 
     13 N13         5.5811   54.4818   24.2603 N.am      1 UNK         0.0000 
     14 N14         6.3206   54.8966   23.2122 N.2       1 UNK         0.0000 
     15 C15         5.7471   54.7985   22.0821 C.2       1 UNK         0.0000 
     16 C16         6.3796   55.2457   20.8327 C.ar      1 UNK         0.0000 
     17 C17         5.6472   55.2077   19.6397 C.ar      1 UNK         0.0000 
     18 C18         6.2272   55.6145   18.4405 C.ar      1 UNK         0.0000 
     19 C19         7.5480   56.0566   18.4242 C.ar      1 UNK         0.0000 
     20 C20         8.2930   56.0954   19.5990 C.ar      1 UNK         0.0000 
     21 C21         7.7096   55.6956   20.7973 C.ar      1 UNK         0.0000 
     22 Cl22        8.2669   56.5581   16.9386 Cl        1 UNK         0.0000 
     23 N23         2.9228   54.0949   25.5037 N.pl3     1 UNK         0.0000 
     24 C24         3.0287   51.6967   31.7887 C.3       1 UNK         0.0000 
     25 H25         0.9047   52.7045   26.3847 H         1 UNK         0.0000 
     26 H26         0.1782   53.6966   27.6812 H         1 UNK         0.0000 
     27 H27         0.1042   51.9394   27.7238 H         1 UNK         0.0000 
     28 H28         0.9924   51.9305   29.9551 H         1 UNK         0.0000 
     29 H29         4.6936   54.0514   24.0485 H         1 UNK         0.0000 
     30 H30         4.7445   54.3883   21.9668 H         1 UNK         0.0000 
     31 H31         4.6219   54.8631   19.6273 H         1 UNK         0.0000 
     32 H32         5.6544   55.5826   17.5253 H         1 UNK         0.0000 
     33 H33         9.3210   56.4300   19.5829 H         1 UNK         0.0000 
     34 H34         8.3079   55.7261   21.6972 H         1 UNK         0.0000 
     35 H35         3.1859   54.7096   24.7480 H         1 UNK         0.0000 
     36 H36         1.9497   53.8241   25.5261 H         1 UNK         0.0000 
     37 H37         2.0497   51.2980   32.0606 H         1 UNK         0.0000 
     38 H38         3.7739   50.9199   31.9640 H         1 UNK         0.0000 
     39 H39         3.2621   52.4967   32.4814 H         1 UNK         0.0000 
@<TRIPOS>BOND
     1    1    2 1    
     2    1   25 1    
     3    1   26 1    
     4    1   27 1    
     5    2    7 ar   
     6    2    3 ar   
     7    3    4 ar   
     8    3   28 1    
     9    4    5 ar   
    10    4   24 1    
    11    5    6 ar   
    12    6   10 1    
    13    6    7 ar   
    14    7    8 1    
    15    8    9 2    
    16    8   23 1    
    17    9   10 1    
    18    9   11 1    
    19   11   12 2    
    20   11   13 am   BACKBONE|DICT|INTERRES
    21   13   14 1    
    22   13   29 1    
    23   14   15 2    
    24   15   16 1    
    25   15   30 1    
    26   16   21 ar   
    27   16   17 ar   
    28   17   18 ar   
    29   17   31 1    
    30   18   19 ar   
    31   18   32 1    
    32   19   20 ar   
    33   19   22 1    
    34   20   21 ar   
    35   20   33 1    
    36   21   34 1    
    37   23   35 1    
    38   23   36 1    
    39   24   37 1    
    40   24   38 1    
    41   24   39 1    
@<TRIPOS>SUBSTRUCTURE
     1 UNK         1 GROUP             0       ****    0 ROOT    
