ZINC09369086_921
                    3D
 Schrodinger Suite 2024-2.
 52 56  0  0  1  0            999 V2000
   -0.6024   51.5828   24.7382 C   0  0  0  0  0  0
   -0.4584   52.7255   23.9556 C   0  0  0  0  0  0
    0.6083   52.8188   23.0646 C   0  0  0  0  0  0
    1.5328   51.7786   22.9675 C   0  0  0  0  0  0
    1.3726   50.6282   23.7502 C   0  0  0  0  0  0
    0.3046   50.5323   24.6366 C   0  0  0  0  0  0
    2.6392   51.8780   22.0930 N   0  0  0  0  0  0
    3.5706   52.8993   21.9738 C   0  0  0  0  0  0
    4.5316   52.5690   21.1501 N   0  0  0  0  0  0
    4.2486   51.2968   20.6874 N   0  0  0  0  0  0
    3.1146   50.9166   21.2215 C   0  0  0  0  0  0
    2.3039   49.4005   20.8077 S   0  0  0  0  0  0
    2.0627   49.5824   19.0018 C   0  0  0  0  0  0
    1.6907   50.9883   18.5173 C   0  0  0  0  0  0
    0.5363   51.3902   18.6679 O   0  0  0  0  0  0
    2.7044   51.7058   17.9908 N   0  0  0  0  0  0
    2.6499   53.0307   17.5992 C   0  0  0  0  0  0
    1.5969   53.6801   17.1737 N   0  0  0  0  0  0
    1.9056   54.9728   16.8823 C   0  0  0  0  0  0
    0.9897   55.9320   16.4247 C   0  0  0  0  0  0
    1.4487   57.2294   16.1871 C   0  0  0  0  0  0
    2.7839   57.5742   16.3990 C   0  0  0  0  0  0
    3.7145   56.6392   16.8497 C   0  0  0  0  0  0
    3.2657   55.3332   17.0940 C   0  0  0  0  0  0
    4.1479   53.9263   17.6692 S   0  0  0  0  0  0
    3.5597   54.2331   22.6954 C   0  0  0  0  0  0
    3.8947   54.0967   24.1145 N   0  0  0  0  0  0
    5.0883   54.4116   24.6507 C   0  0  0  0  0  0
    6.0272   54.8715   23.9998 O   0  0  0  0  0  0
    5.1922   54.1748   26.0679 C   0  0  0  0  0  0
    4.2285   53.7054   26.9672 C   0  0  0  0  0  0
    4.6962   53.6386   28.2845 C   0  0  0  0  0  0
    6.0166   54.0400   28.3964 C   0  0  0  0  0  0
    6.7016   54.4965   26.8793 S   0  0  0  0  0  0
   -1.4270   51.5085   25.4340 H   0  0  0  0  0  0
   -1.1709   53.5322   24.0394 H   0  0  0  0  0  0
    0.7045   53.6950   22.4460 H   0  0  0  0  0  0
    2.0791   49.8105   23.6924 H   0  0  0  0  0  0
    0.1869   49.6504   25.2508 H   0  0  0  0  0  0
    1.2813   48.8892   18.6886 H   0  0  0  0  0  0
    2.9751   49.2435   18.5088 H   0  0  0  0  0  0
    3.6357   51.3027   18.0792 H   0  0  0  0  0  0
   -0.0463   55.6735   16.2644 H   0  0  0  0  0  0
    0.7612   57.9876   15.8452 H   0  0  0  0  0  0
    3.0971   58.5953   16.2193 H   0  0  0  0  0  0
    4.7458   56.9179   17.0144 H   0  0  0  0  0  0
    4.2372   54.9236   22.1924 H   0  0  0  0  0  0
    2.5930   54.7272   22.6122 H   0  0  0  0  0  0
    3.1896   53.6847   24.7083 H   0  0  0  0  0  0
    3.2205   53.4297   26.6919 H   0  0  0  0  0  0
    4.0942   53.3112   29.1193 H   0  0  0  0  0  0
    6.6304   54.0947   29.2817 H   0  0  0  0  0  0
  1  6  2  0  0  0
  1  2  1  0  0  0
  1 35  1  0  0  0
  2  3  2  0  0  0
  2 36  1  0  0  0
  3  4  1  0  0  0
  3 37  1  0  0  0
  4  5  2  0  0  0
  4  7  1  0  0  0
  5  6  1  0  0  0
  5 38  1  0  0  0
  6 39  1  0  0  0
  7 11  1  0  0  0
  7  8  1  0  0  0
  8  9  2  0  0  0
  8 26  1  0  0  0
  9 10  1  0  0  0
 10 11  2  0  0  0
 11 12  1  0  0  0
 12 13  1  0  0  0
 13 14  1  0  0  0
 13 40  1  0  0  0
 13 41  1  0  0  0
 14 15  2  0  0  0
 14 16  1  0  0  0
 16 17  1  0  0  0
 16 42  1  0  0  0
 17 25  1  0  0  0
 17 18  2  0  0  0
 18 19  1  0  0  0
 19 24  2  0  0  0
 19 20  1  0  0  0
 20 21  2  0  0  0
 20 43  1  0  0  0
 21 22  1  0  0  0
 21 44  1  0  0  0
 22 23  2  0  0  0
 22 45  1  0  0  0
 23 24  1  0  0  0
 23 46  1  0  0  0
 24 25  1  0  0  0
 26 27  1  0  0  0
 26 47  1  0  0  0
 26 48  1  0  0  0
 27 28  1  0  0  0
 27 49  1  0  0  0
 28 29  2  0  0  0
 28 30  1  0  0  0
 30 34  1  0  0  0
 30 31  2  0  0  0
 31 32  1  0  0  0
 31 50  1  0  0  0
 32 33  2  0  0  0
 32 51  1  0  0  0
 33 34  1  0  0  0
 33 52  1  0  0  0
M  END
> <i_i_glide_confnum>
107

> <i_i_glide_lignum>
922

> <i_i_glide_posenum>
66

> <i_i_glide_rotatable_bonds>
10

> <i_m_Source_File_Index>
4439

> <b_m_subgroup_collapsed>
0

> <r_i_docking_score>
-5.76357

> <r_i_glide_ecoul>
-5.97548

> <r_i_glide_eff_state_penalty>
0

> <r_i_glide_einternal>
10.0376

> <r_i_glide_emodel>
-69.7902

> <r_i_glide_energy>
-53.8017

> <r_i_glide_erotb>
0.637746

> <r_i_glide_esite>
-0.190047

> <r_i_glide_evdw>
-47.8262

> <r_i_glide_gscore>
-5.76357

> <r_i_glide_hbond>
-0.16

> <r_i_glide_ligand_efficiency>
-0.169517

> <r_i_glide_ligand_efficiency_ln>
-1.27334

> <r_i_glide_ligand_efficiency_sa>
-0.549169

> <r_i_glide_lipo>
-2.00423

> <r_i_glide_metal>
0

> <r_i_glide_rewards>
-0.759408

> <s_i_glide_gridfile>
wee1_glide-grid

> <s_m_Source_File>
wee1_decoys_glide_SP.sdf

> <s_m_Source_Path>
/Users/zhangxujun/Desktop

> <s_m_entry_id>
4714

> <s_m_entry_name>
wee1_decoys_glide_SP.4439

> <s_m_subgroup_title>
wee1_decoys_glide_SP

> <s_m_subgroupid>
wee1_decoys_glide_SP


$$$$
