@<TRIPOS>MOLECULE
ZINC09934815_2543
41   42    1
SMALL
USER_CHARGES


@<TRIPOS>ATOM
      1 C1          4.1258   53.8061   29.1956 C.3       1 UNK         0.0000 
      2 C2          4.6834   54.0911   27.8150 C.ar      1 UNK         0.0000 
      3 C3          3.8202   54.2463   26.7302 C.ar      1 UNK         0.0000 
      4 C4          4.3357   54.4931   25.4592 C.ar      1 UNK         0.0000 
      5 C5          5.7205   54.5820   25.2655 C.ar      1 UNK         0.0000 
      6 C6          6.5752   54.4358   26.3579 C.ar      1 UNK         0.0000 
      7 C7          6.0625   54.1832   27.6276 C.ar      1 UNK         0.0000 
      8 N8          6.2884   54.8302   24.0050 N.pl3     1 UNK         0.0000 
      9 C9          5.6892   54.4409   22.7441 C.3       1 UNK         0.0000 
     10 C10         6.1834   55.2861   21.5486 C.2       1 UNK         0.0000 
     11 O11         7.1082   56.0954   21.6776 O.2       1 UNK         0.0000 
     12 N12         5.5276   55.0809   20.3877 N.am      1 UNK         0.0000 
     13 N13         5.7215   55.8479   19.2909 N.2       1 UNK         0.0000 
     14 C14         5.0348   55.4650   18.2905 C.2       1 UNK         0.0000 
     15 C15         4.9724   56.1446   16.9781 C.ar      1 UNK         0.0000 
     16 C16         4.3294   55.4451   15.9451 C.ar      1 UNK         0.0000 
     17 C17         4.2230   55.9741   14.6620 C.ar      1 UNK         0.0000 
     18 C18         4.7581   57.2241   14.3835 C.ar      1 UNK         0.0000 
     19 C19         5.3954   57.9592   15.3862 C.ar      1 UNK         0.0000 
     20 C20         5.5000   57.4282   16.6851 C.ar      1 UNK         0.0000 
     21 O21         6.0987   58.2111   17.6436 O.3       1 UNK         0.0000 
     22 C22         5.9671   59.3276   15.0424 C.3       1 UNK         0.0000 
     23 I23         3.2729   54.8792   13.1543 I         1 UNK         0.0000 
     24 H24         4.6976   53.0148   29.6800 H         1 UNK         0.0000 
     25 H25         3.0907   53.4707   29.1574 H         1 UNK         0.0000 
     26 H26         4.1963   54.6950   29.8210 H         1 UNK         0.0000 
     27 H27         2.7519   54.1759   26.8685 H         1 UNK         0.0000 
     28 H28         3.6424   54.6160   24.6406 H         1 UNK         0.0000 
     29 H29         7.6409   54.4956   26.2317 H         1 UNK         0.0000 
     30 H30         6.7385   54.0596   28.4638 H         1 UNK         0.0000 
     31 H31         7.2980   54.9109   23.9889 H         1 UNK         0.0000 
     32 H32         5.9113   53.4005   22.5039 H         1 UNK         0.0000 
     33 H33         4.5997   54.4966   22.7371 H         1 UNK         0.0000 
     34 H34         4.8096   54.3759   20.3048 H         1 UNK         0.0000 
     35 H35         4.4232   54.5637   18.3346 H         1 UNK         0.0000 
     36 H36         3.9090   54.4633   16.1225 H         1 UNK         0.0000 
     37 H37         4.6710   57.6255   13.3861 H         1 UNK         0.0000 
     38 H38         6.2481   59.1064   17.3212 H         1 UNK         0.0000 
     39 H39         5.7882   59.6111   14.0047 H         1 UNK         0.0000 
     40 H40         5.5236   60.0948   15.6757 H         1 UNK         0.0000 
     41 H41         7.0427   59.3440   15.2210 H         1 UNK         0.0000 
@<TRIPOS>BOND
     1    1    2 1    
     2    1   24 1    
     3    1   25 1    
     4    1   26 1    
     5    2    7 ar   
     6    2    3 ar   
     7    3    4 ar   
     8    3   27 1    
     9    4    5 ar   
    10    4   28 1    
    11    5    6 ar   
    12    5    8 1    
    13    6    7 ar   
    14    6   29 1    
    15    7   30 1    
    16    8    9 1    
    17    8   31 1    
    18    9   10 1    
    19    9   32 1    
    20    9   33 1    
    21   10   11 2    
    22   10   12 am   BACKBONE|DICT|INTERRES
    23   12   13 1    
    24   12   34 1    
    25   13   14 2    
    26   14   15 1    
    27   14   35 1    
    28   15   20 ar   
    29   15   16 ar   
    30   16   17 ar   
    31   16   36 1    
    32   17   18 ar   
    33   17   23 1    
    34   18   19 ar   
    35   18   37 1    
    36   19   20 ar   
    37   19   22 1    
    38   20   21 1    
    39   21   38 1    
    40   22   39 1    
    41   22   40 1    
    42   22   41 1    
@<TRIPOS>SUBSTRUCTURE
     1 UNK         1 GROUP             0       ****    0 ROOT    
