ZINC54108327_6173
                    3D
 Schrodinger Suite 2024-2.
 32 35  0  0  1  0            999 V2000
   -0.5129   51.6716   28.8976 C   0  0  0  0  0  0
    0.4319   51.8818   27.8959 C   0  0  0  0  0  0
    1.4162   52.8835   28.0747 C   0  0  0  0  0  0
    2.4500   53.1230   27.1336 C   0  0  0  0  0  0
    3.4240   54.0945   27.3867 C   0  0  0  0  0  0
    3.3073   54.8965   28.5273 C   0  0  0  0  0  0
    2.2920   54.7042   29.4555 C   0  0  0  0  0  0
    1.3567   53.6677   29.2677 C   0  0  0  0  0  0
    0.4343   53.4396   30.2440 N   0  0  0  0  0  0
   -0.4559   52.4361   30.0570 C   0  0  0  0  0  0
    4.5041   54.2955   26.4830 N   0  0  0  0  0  0
    4.4751   54.2735   25.0932 C   0  0  0  0  0  0
    3.4604   54.0961   24.1408 C   0  0  0  0  0  0
    3.8493   54.0966   22.7960 C   0  0  0  0  0  0
    5.1759   54.2847   22.4069 C   0  0  0  0  0  0
    6.1806   54.4947   23.3495 C   0  0  0  0  0  0
    5.8263   54.4924   24.7031 C   0  0  0  0  0  0
    6.6379   54.6670   25.7847 N   0  0  0  0  0  0
    5.8435   54.4979   26.8032 C   0  0  0  0  0  0
    6.3029   54.4966   28.0817 N   0  0  0  0  0  0
    5.4937   54.2842   21.0931 F   0  0  0  0  0  0
   -1.2583   50.8966   28.7958 H   0  0  0  0  0  0
    0.4325   51.2746   27.0028 H   0  0  0  0  0  0
    2.5039   52.4970   26.2548 H   0  0  0  0  0  0
    4.0058   55.6963   28.7100 H   0  0  0  0  0  0
    2.2223   55.3331   30.3315 H   0  0  0  0  0  0
   -1.1314   52.2320   30.8763 H   0  0  0  0  0  0
    2.4281   53.9548   24.4209 H   0  0  0  0  0  0
    3.1022   53.9561   22.0282 H   0  0  0  0  0  0
    7.2039   54.6523   23.0423 H   0  0  0  0  0  0
    7.1095   55.0470   28.3686 H   0  0  0  0  0  0
    5.7502   54.1035   28.8281 H   0  0  0  0  0  0
  1 10  2  0  0  0
  1  2  1  0  0  0
  1 22  1  0  0  0
  2  3  2  0  0  0
  2 23  1  0  0  0
  3  8  1  0  0  0
  3  4  1  0  0  0
  4  5  2  0  0  0
  4 24  1  0  0  0
  5  6  1  0  0  0
  5 11  1  0  0  0
  6  7  2  0  0  0
  6 25  1  0  0  0
  7  8  1  0  0  0
  7 26  1  0  0  0
  8  9  2  0  0  0
  9 10  1  0  0  0
 10 27  1  0  0  0
 11 19  1  0  0  0
 11 12  1  0  0  0
 12 17  2  0  0  0
 12 13  1  0  0  0
 13 14  2  0  0  0
 13 28  1  0  0  0
 14 15  1  0  0  0
 14 29  1  0  0  0
 15 16  2  0  0  0
 15 21  1  0  0  0
 16 17  1  0  0  0
 16 30  1  0  0  0
 17 18  1  0  0  0
 18 19  2  0  0  0
 19 20  1  0  0  0
 20 31  1  0  0  0
 20 32  1  0  0  0
M  END
> <i_i_glide_confnum>
3

> <i_i_glide_lignum>
6174

> <i_i_glide_posenum>
46

> <i_i_glide_rotatable_bonds>
1

> <i_m_Source_File_Index>
4106

> <b_m_subgroup_collapsed>
0

> <r_i_docking_score>
-8.809

> <r_i_glide_ecoul>
-5.20665

> <r_i_glide_eff_state_penalty>
0

> <r_i_glide_einternal>
0.759513

> <r_i_glide_emodel>
-61.9061

> <r_i_glide_energy>
-41.3527

> <r_i_glide_erotb>
0.162914

> <r_i_glide_esite>
0

> <r_i_glide_evdw>
-36.1461

> <r_i_glide_gscore>
-8.809

> <r_i_glide_hbond>
-0.397193

> <r_i_glide_ligand_efficiency>
-0.419476

> <r_i_glide_ligand_efficiency_ln>
-2.17801

> <r_i_glide_ligand_efficiency_sa>
-1.1573

> <r_i_glide_lipo>
-2.68001

> <r_i_glide_metal>
0

> <r_i_glide_rewards>
-3.3064

> <s_i_glide_gridfile>
wee1_glide-grid

> <s_m_Source_File>
wee1_decoys_glide_SP.sdf

> <s_m_Source_Path>
/Users/zhangxujun/Desktop

> <s_m_entry_id>
4381

> <s_m_entry_name>
wee1_decoys_glide_SP.4106

> <s_m_subgroup_title>
wee1_decoys_glide_SP

> <s_m_subgroupid>
wee1_decoys_glide_SP


$$$$
