@<TRIPOS>MOLECULE
ZINC39577347_34
53   56    1
SMALL
USER_CHARGES


@<TRIPOS>ATOM
      1 C1          6.4769   56.9797   17.0977 C.3       1 UNK         0.0000 
      2 C2          4.9725   56.7905   17.3520 C.3       1 UNK         0.0000 
      3 H3          4.6821   57.4327   18.1865 H         1 UNK         0.0000 
      4 C4          4.5134   55.3467   17.6205 C.3       1 UNK         0.0000 
      5 H5          5.0537   54.7112   16.9151 H         1 UNK         0.0000 
      6 C6          3.0295   55.3882   17.1934 C.3       1 UNK         0.0000 
      7 H7          2.3899   55.3433   18.0795 H         1 UNK         0.0000 
      8 N8          2.8462   56.7107   16.5955 N.pl3     1 UNK         0.0000 
      9 N9          4.1712   57.1583   16.1998 N.3       1 UNK         0.0000 
     10 C10         1.6997   57.3721   16.1147 C.ar      1 UNK         0.0000 
     11 C11         0.4343   56.8969   16.4813 C.ar      1 UNK         0.0000 
     12 C12        -0.7242   57.5432   16.0586 C.ar      1 UNK         0.0000 
     13 C13        -0.6262   58.6772   15.2600 C.ar      1 UNK         0.0000 
     14 C14         0.6199   59.1716   14.8871 C.ar      1 UNK         0.0000 
     15 C15         1.7767   58.5261   15.3165 C.ar      1 UNK         0.0000 
     16 C16         2.6503   54.2397   16.2391 C.3       1 UNK         0.0000 
     17 C17         4.7429   54.7731   19.0149 C.2       1 UNK         0.0000 
     18 N18         5.5042   55.2963   19.8846 N.2       1 UNK         0.0000 
     19 N19         5.4884   54.6058   21.0392 N.am      1 UNK         0.0000 
     20 C20         6.2865   54.8958   22.0846 C.2       1 UNK         0.0000 
     21 O21         7.1035   55.8211   22.0822 O.2       1 UNK         0.0000 
     22 C22         6.1498   53.9272   23.2815 C.3       1 UNK         0.0000 
     23 H23         6.3422   52.9260   22.8920 H         1 UNK         0.0000 
     24 C24         4.8339   54.0125   23.9994 C.2       1 UNK         0.0000 
     25 C25         5.1821   54.1924   25.2803 C.2       1 UNK         0.0000 
     26 N26         6.5191   54.3420   25.4347 N.2       1 UNK         0.0000 
     27 N27         7.1043   54.1948   24.3210 N.2       1 UNK         0.0000 
     28 C28         4.2990   54.1386   26.4774 C.ar      1 UNK         0.0000 
     29 C29         4.7774   54.4968   27.7470 C.ar      1 UNK         0.0000 
     30 C30         3.9451   54.4558   28.8615 C.ar      1 UNK         0.0000 
     31 C31         2.6250   54.0401   28.7204 C.ar      1 UNK         0.0000 
     32 C32         2.1360   53.6567   27.4751 C.ar      1 UNK         0.0000 
     33 C33         2.9706   53.7017   26.3608 C.ar      1 UNK         0.0000 
     34 Cl34        1.5887   54.0031   30.0981 Cl        1 UNK         0.0000 
     35 H35         7.0685   56.6559   17.9538 H         1 UNK         0.0000 
     36 H36         6.8129   56.4108   16.2304 H         1 UNK         0.0000 
     37 H37         6.7134   58.0288   16.9158 H         1 UNK         0.0000 
     38 H38         4.1196   58.1702   16.1815 H         1 UNK         0.0000 
     39 H39         0.3420   56.0268   17.1134 H         1 UNK         0.0000 
     40 H40        -1.6942   57.1697   16.3539 H         1 UNK         0.0000 
     41 H41        -1.5222   59.1828   14.9301 H         1 UNK         0.0000 
     42 H42         0.6927   60.0575   14.2730 H         1 UNK         0.0000 
     43 H43         2.7287   58.9398   15.0223 H         1 UNK         0.0000 
     44 H44         2.8394   53.2703   16.6984 H         1 UNK         0.0000 
     45 H45         1.5938   54.2737   15.9736 H         1 UNK         0.0000 
     46 H46         3.2218   54.2870   15.3120 H         1 UNK         0.0000 
     47 H47         4.1848   53.8486   19.1672 H         1 UNK         0.0000 
     48 H48         4.8565   53.8199   21.0613 H         1 UNK         0.0000 
     49 H49         3.8628   53.8380   23.5592 H         1 UNK         0.0000 
     50 H50         5.7983   54.8286   27.8808 H         1 UNK         0.0000 
     51 H51         4.3315   54.7460   29.8266 H         1 UNK         0.0000 
     52 H52         1.1134   53.3271   27.3705 H         1 UNK         0.0000 
     53 H53         2.5696   53.3971   25.4050 H         1 UNK         0.0000 
@<TRIPOS>BOND
     1    1    2 1    
     2    1   35 1    
     3    1   36 1    
     4    1   37 1    
     5    2    3 1    
     6    2    9 1    
     7    2    4 1    
     8    4    5 1    
     9    4    6 1    
    10    4   17 1    
    11    6    7 1    
    12    6    8 1    
    13    6   16 1    
    14    8    9 1    
    15    8   10 1    
    16    9   38 1    
    17   10   15 ar   
    18   10   11 ar   
    19   11   12 ar   
    20   11   39 1    
    21   12   13 ar   
    22   12   40 1    
    23   13   14 ar   
    24   13   41 1    
    25   14   15 ar   
    26   14   42 1    
    27   15   43 1    
    28   16   44 1    
    29   16   45 1    
    30   16   46 1    
    31   17   18 2    
    32   17   47 1    
    33   18   19 1    
    34   19   20 am   BACKBONE|DICT|INTERRES
    35   19   48 1    
    36   20   21 2    
    37   20   22 1    
    38   22   23 1    
    39   22   27 1    
    40   22   24 1    
    41   24   25 2    
    42   24   49 1    
    43   25   26 1    
    44   25   28 1    
    45   26   27 2    
    46   28   33 ar   
    47   28   29 ar   
    48   29   30 ar   
    49   29   50 1    
    50   30   31 ar   
    51   30   51 1    
    52   31   32 ar   
    53   31   34 1    
    54   32   33 ar   
    55   32   52 1    
    56   33   53 1    
@<TRIPOS>SUBSTRUCTURE
     1 UNK         1 GROUP             0       ****    0 ROOT    
