@<TRIPOS>MOLECULE
ZINC39034820_6049
54   57    1
SMALL
USER_CHARGES


@<TRIPOS>ATOM
      1 C1          5.1328   54.9022   18.4914 C.3       1 UNK         0.0000 
      2 C2          5.4369   54.6988   19.9692 C.ar      1 UNK         0.0000 
      3 C3          4.6479   53.8074   20.7019 C.ar      1 UNK         0.0000 
      4 C4          4.8849   53.6000   22.0591 C.ar      1 UNK         0.0000 
      5 C5          5.9040   54.2995   22.7070 C.ar      1 UNK         0.0000 
      6 C6          6.7030   55.1932   21.9772 C.ar      1 UNK         0.0000 
      7 C7          6.4791   55.3926   20.6106 C.ar      1 UNK         0.0000 
      8 C8          7.4035   56.3249   19.8396 C.3       1 UNK         0.0000 
      9 N9          6.1074   54.0264   24.0657 N.am      1 UNK         0.0000 
     10 C10         6.5014   54.9016   25.0161 C.2       1 UNK         0.0000 
     11 O11         6.7047   56.0964   24.8486 O.2       1 UNK         0.0000 
     12 N12         6.7046   54.3360   26.2609 N.am      1 UNK         0.0000 
     13 C13         5.7520   53.9021   26.9997 C.2       1 UNK         0.0000 
     14 N14         5.9176   53.3182   28.2387 N.2       1 UNK         0.0000 
     15 N15         4.8430   52.9670   28.8006 N.pl3     1 UNK         0.0000 
     16 C16         3.5795   53.1618   28.0760 C.3       1 UNK         0.0000 
     17 H17         3.2093   52.1769   27.8073 H         1 UNK         0.0000 
     18 S18         3.9979   54.0035   26.5524 S.3       1 UNK         0.0000 
     19 C19         2.5497   53.9280   28.8985 C.ar      1 UNK         0.0000 
     20 C20         2.8301   55.2457   29.2798 C.ar      1 UNK         0.0000 
     21 C21         1.9036   55.9963   29.9951 C.ar      1 UNK         0.0000 
     22 C22         0.7044   55.4097   30.3799 C.ar      1 UNK         0.0000 
     23 C23         0.4174   54.0933   30.0378 C.ar      1 UNK         0.0000 
     24 C24         1.3223   53.3575   29.2799 C.ar      1 UNK         0.0000 
     25 S25         0.8862   51.6967   28.8818 S.3       1 UNK         0.0000 
     26 C26         0.6478   51.5566   27.0761 C.3       1 UNK         0.0000 
     27 C27        -0.7920   51.7631   26.6082 C.ar      1 UNK         0.0000 
     28 C28        -1.8740   51.2968   27.3666 C.ar      1 UNK         0.0000 
     29 C29        -3.1805   51.4381   26.9012 C.ar      1 UNK         0.0000 
     30 C30        -3.4213   52.0430   25.6688 C.ar      1 UNK         0.0000 
     31 C31        -2.3518   52.4965   24.8981 C.ar      1 UNK         0.0000 
     32 C32        -1.0436   52.3543   25.3620 C.ar      1 UNK         0.0000 
     33 F33        -0.0219   52.7906   24.5889 F         1 UNK         0.0000 
     34 H34         4.1624   54.4877   18.2127 H         1 UNK         0.0000 
     35 H35         5.1048   55.9646   18.2489 H         1 UNK         0.0000 
     36 H36         5.9038   54.4365   17.8762 H         1 UNK         0.0000 
     37 H37         3.8467   53.2659   20.2181 H         1 UNK         0.0000 
     38 H38         4.2637   52.8983   22.5983 H         1 UNK         0.0000 
     39 H39         7.5195   55.7090   22.4623 H         1 UNK         0.0000 
     40 H40         8.3462   56.4829   20.3660 H         1 UNK         0.0000 
     41 H41         6.9175   57.2840   19.6552 H         1 UNK         0.0000 
     42 H42         7.6687   55.8926   18.8740 H         1 UNK         0.0000 
     43 H43         5.8707   53.0940   24.3694 H         1 UNK         0.0000 
     44 H44         3.7692   55.6966   28.9989 H         1 UNK         0.0000 
     45 H45         2.1106   57.0273   30.2522 H         1 UNK         0.0000 
     46 H46        -0.0343   56.0029   30.8817 H         1 UNK         0.0000 
     47 H47        -0.5164   53.6451   30.3402 H         1 UNK         0.0000 
     48 H48         1.3101   52.2637   26.5774 H         1 UNK         0.0000 
     49 H49         0.9499   50.5508   26.7831 H         1 UNK         0.0000 
     50 H50        -1.7087   50.7951   28.3102 H         1 UNK         0.0000 
     51 H51        -4.0026   51.0618   27.4934 H         1 UNK         0.0000 
     52 H52        -4.4337   52.1459   25.3060 H         1 UNK         0.0000 
     53 H53        -2.5326   52.9542   23.9374 H         1 UNK         0.0000 
     54 H54         4.8504   52.5316   29.7193 H         1 UNK         0.0000 
@<TRIPOS>BOND
     1    1    2 1    
     2    1   34 1    
     3    1   35 1    
     4    1   36 1    
     5    2    7 ar   
     6    2    3 ar   
     7    3    4 ar   
     8    3   37 1    
     9    4    5 ar   
    10    4   38 1    
    11    5    6 ar   
    12    5    9 1    
    13    6    7 ar   
    14    6   39 1    
    15    7    8 1    
    16    8   40 1    
    17    8   41 1    
    18    8   42 1    
    19    9   10 am   BACKBONE|DICT|INTERRES
    20    9   43 1    
    21   10   11 2    
    22   10   12 am   BACKBONE|DICT|INTERRES
    23   12   13 2    BACKBONE|DICT|INTERRES
    24   13   18 1    
    25   13   14 1    
    26   14   15 2    
    27   15   16 1    
    28   15   54 1    
    29   16   17 1    
    30   16   18 1    
    31   16   19 1    
    32   19   24 ar   
    33   19   20 ar   
    34   20   21 ar   
    35   20   44 1    
    36   21   22 ar   
    37   21   45 1    
    38   22   23 ar   
    39   22   46 1    
    40   23   24 ar   
    41   23   47 1    
    42   24   25 1    
    43   25   26 1    
    44   26   27 1    
    45   26   48 1    
    46   26   49 1    
    47   27   32 ar   
    48   27   28 ar   
    49   28   29 ar   
    50   28   50 1    
    51   29   30 ar   
    52   29   51 1    
    53   30   31 ar   
    54   30   52 1    
    55   31   32 ar   
    56   31   53 1    
    57   32   33 1    
@<TRIPOS>SUBSTRUCTURE
     1 UNK         1 GROUP             0       ****    0 ROOT    
