@<TRIPOS>MOLECULE
ZINC02875588_5175
53   55    1
SMALL
USER_CHARGES


@<TRIPOS>ATOM
      1 C1          6.5556   55.0299   23.0315 C.3       1 UNK         0.0000 
      2 C2          5.8180   54.6788   24.3097 C.ar      1 UNK         0.0000 
      3 C3          4.4348   54.4927   24.3043 C.ar      1 UNK         0.0000 
      4 C4          3.7748   54.0977   25.4667 C.ar      1 UNK         0.0000 
      5 C5          4.4936   53.8630   26.6437 C.ar      1 UNK         0.0000 
      6 C6          5.8789   54.0983   26.6677 C.ar      1 UNK         0.0000 
      7 C7          6.5273   54.5024   25.4968 C.ar      1 UNK         0.0000 
      8 C8          6.7038   53.8965   27.9316 C.3       1 UNK         0.0000 
      9 N9          3.8621   53.2655   27.7391 N.pl3     1 UNK         0.0000 
     10 S10         2.6938   54.1169   28.7494 S.o2      1 UNK         0.0000 
     11 O11         2.3051   55.3611   28.0815 O.2       1 UNK         0.0000 
     12 O12         3.2968   54.1209   30.0817 O.2       1 UNK         0.0000 
     13 C13         1.2397   53.0557   28.7622 C.ar      1 UNK         0.0000 
     14 C14         0.8736   52.4961   27.5346 C.ar      1 UNK         0.0000 
     15 C15        -0.2028   51.6137   27.4307 C.ar      1 UNK         0.0000 
     16 C16        -0.9397   51.3008   28.5749 C.ar      1 UNK         0.0000 
     17 C17        -0.5985   51.8739   29.7982 C.ar      1 UNK         0.0000 
     18 C18         0.4797   52.7568   29.9099 C.ar      1 UNK         0.0000 
     19 C19         0.7557   53.3748   31.2703 C.3       1 UNK         0.0000 
     20 C20        -0.5420   51.0272   26.0926 C.2       1 UNK         0.0000 
     21 O21        -0.5712   51.7553   25.0984 O.2       1 UNK         0.0000 
     22 N22        -0.7618   49.6975   26.0815 N.am      1 UNK         0.0000 
     23 C23        -1.1311   48.9445   24.9580 C.ar      1 UNK         0.0000 
     24 C24        -2.2528   48.1223   25.1066 C.ar      1 UNK         0.0000 
     25 C25        -2.7217   47.3487   24.0391 C.ar      1 UNK         0.0000 
     26 C26        -2.0441   47.3958   22.8156 C.ar      1 UNK         0.0000 
     27 C27        -0.8964   48.1738   22.6765 C.ar      1 UNK         0.0000 
     28 C28        -0.4106   48.9245   23.7457 C.ar      1 UNK         0.0000 
     29 Cl29        1.0999   49.7470   23.5284 Cl        1 UNK         0.0000 
     30 C30        -3.9572   46.4741   24.2288 C.3       1 UNK         0.0000 
     31 F31        -3.8050   45.7031   25.3067 F         1 UNK         0.0000 
     32 F32        -4.1670   45.6707   23.1844 F         1 UNK         0.0000 
     33 F33        -5.0334   47.2440   24.3928 F         1 UNK         0.0000 
     34 H34         7.5015   54.4863   22.9747 H         1 UNK         0.0000 
     35 H35         5.9815   54.7521   22.1453 H         1 UNK         0.0000 
     36 H36         6.7786   56.0967   22.9959 H         1 UNK         0.0000 
     37 H37         3.8680   54.6368   23.3944 H         1 UNK         0.0000 
     38 H38         2.7122   53.9275   25.4233 H         1 UNK         0.0000 
     39 H39         7.5931   54.6496   25.4905 H         1 UNK         0.0000 
     40 H40         7.6425   54.4496   27.8931 H         1 UNK         0.0000 
     41 H41         6.1652   54.2655   28.8057 H         1 UNK         0.0000 
     42 H42         6.9204   52.8398   28.0808 H         1 UNK         0.0000 
     43 H43         4.5298   52.8351   28.3614 H         1 UNK         0.0000 
     44 H44         1.4457   52.7304   26.6498 H         1 UNK         0.0000 
     45 H45        -1.7816   50.6236   28.5276 H         1 UNK         0.0000 
     46 H46        -1.1812   51.6157   30.6718 H         1 UNK         0.0000 
     47 H47        -0.0964   53.2775   31.9473 H         1 UNK         0.0000 
     48 H48         1.6190   52.8961   31.7339 H         1 UNK         0.0000 
     49 H49         0.9520   54.4432   31.1734 H         1 UNK         0.0000 
     50 H50        -0.8954   49.2390   26.9862 H         1 UNK         0.0000 
     51 H51        -2.7759   48.0982   26.0546 H         1 UNK         0.0000 
     52 H52        -2.3906   46.8200   21.9696 H         1 UNK         0.0000 
     53 H53        -0.3650   48.1777   21.7363 H         1 UNK         0.0000 
@<TRIPOS>BOND
     1    1    2 1    
     2    1   34 1    
     3    1   35 1    
     4    1   36 1    
     5    2    7 ar   
     6    2    3 ar   
     7    3    4 ar   
     8    3   37 1    
     9    4    5 ar   
    10    4   38 1    
    11    5    6 ar   
    12    5    9 1    
    13    6    7 ar   
    14    6    8 1    
    15    7   39 1    
    16    8   40 1    
    17    8   41 1    
    18    8   42 1    
    19    9   10 1    
    20    9   43 1    
    21   10   11 2    
    22   10   12 2    
    23   10   13 1    
    24   13   18 ar   
    25   13   14 ar   
    26   14   15 ar   
    27   14   44 1    
    28   15   16 ar   
    29   15   20 1    
    30   16   17 ar   
    31   16   45 1    
    32   17   18 ar   
    33   17   46 1    
    34   18   19 1    
    35   19   47 1    
    36   19   48 1    
    37   19   49 1    
    38   20   21 2    
    39   20   22 am   BACKBONE|DICT|INTERRES
    40   22   23 1    
    41   22   50 1    
    42   23   28 ar   
    43   23   24 ar   
    44   24   25 ar   
    45   24   51 1    
    46   25   26 ar   
    47   25   30 1    
    48   26   27 ar   
    49   26   52 1    
    50   27   28 ar   
    51   27   53 1    
    52   28   29 1    
    53   30   31 1    
    54   30   32 1    
    55   30   33 1    
@<TRIPOS>SUBSTRUCTURE
     1 UNK         1 GROUP             0       ****    0 ROOT    
