ZINC41645280_6193
                    3D
 Schrodinger Suite 2024-2.
 55 56  0  0  1  0            999 V2000
    0.8016   53.6332   23.5529 C   0  0  0  0  0  0
    1.0409   52.4722   22.5600 C   0  0  2  0  0  0
    0.7495   52.7551   21.5454 H   0  0  0  0  0  0
    0.2505   51.2251   23.0339 C   0  0  0  0  0  0
    0.5403   49.9555   22.2202 C   0  0  0  0  0  0
    2.0437   49.6691   22.1901 C   0  0  0  0  0  0
    2.8261   50.8613   21.6238 C   0  0  0  0  0  0
    2.5671   52.1338   22.4812 N   0  3  1  0  0  0
    3.4780   53.3644   22.1272 C   0  0  1  0  0  0
    2.7969   54.0928   21.6815 H   0  0  0  0  0  0
    4.0597   53.9286   23.4448 C   0  0  0  0  0  0
    4.6193   53.0774   21.0981 C   0  0  0  0  0  0
    5.0009   54.2540   20.3208 N   0  0  0  0  0  0
    5.9729   55.1361   20.6533 C   0  0  0  0  0  0
    6.5990   55.0699   21.7132 O   0  0  0  0  0  0
    6.2215   56.2384   19.6765 C   0  0  0  0  0  0
    6.7047   57.3048   20.0632 O   0  0  0  0  0  0
    5.8664   55.9540   18.3963 N   0  0  0  0  0  0
    5.7545   56.7991   17.2795 C   0  0  0  0  0  0
    6.1969   58.1271   17.2379 C   0  0  0  0  0  0
    5.9660   58.8966   16.1019 C   0  0  0  0  0  0
    5.2752   58.3704   15.0059 C   0  0  0  0  0  0
    4.8870   57.0258   15.0300 C   0  0  0  0  0  0
    5.1271   56.2465   16.1588 C   0  0  0  0  0  0
    4.9417   59.2368   13.8168 C   0  0  0  0  0  0
    4.8375   58.7460   12.6908 O   0  0  0  0  0  0
    4.7427   60.5420   14.0796 N   0  0  0  0  0  0
    4.4203   61.5622   13.0901 C   0  0  0  0  0  0
   -0.2657   53.8165   23.6831 H   0  0  0  0  0  0
    1.1941   53.4073   24.5448 H   0  0  0  0  0  0
    1.2305   54.5772   23.2169 H   0  0  0  0  0  0
   -0.8201   51.4313   22.9935 H   0  0  0  0  0  0
    0.4804   51.0205   24.0818 H   0  0  0  0  0  0
    0.1617   50.0699   21.2027 H   0  0  0  0  0  0
    0.0074   49.1057   22.6507 H   0  0  0  0  0  0
    2.2418   48.7842   21.5826 H   0  0  0  0  0  0
    2.4006   49.4291   23.1933 H   0  0  0  0  0  0
    2.5476   51.0845   20.5913 H   0  0  0  0  0  0
    3.8892   50.6302   21.6914 H   0  0  0  0  0  0
    4.5229   54.8960   23.2679 H   0  0  0  0  0  0
    3.3184   54.0871   24.2233 H   0  0  0  0  0  0
    4.8381   53.2961   23.8670 H   0  0  0  0  0  0
    4.3311   52.3621   20.3309 H   0  0  0  0  0  0
    5.4942   52.6462   21.5928 H   0  0  0  0  0  0
    4.4798   54.3938   19.4677 H   0  0  0  0  0  0
    5.5648   55.0109   18.2131 H   0  0  0  0  0  0
    6.7014   58.5980   18.0675 H   0  0  0  0  0  0
    6.3049   59.9238   16.0828 H   0  0  0  0  0  0
    4.3719   56.5867   14.1858 H   0  0  0  0  0  0
    4.7912   55.2188   16.1607 H   0  0  0  0  0  0
    4.7064   60.8479   15.0545 H   0  0  0  0  0  0
    3.4495   62.0015   13.3222 H   0  0  0  0  0  0
    4.3827   61.1759   12.0704 H   0  0  0  0  0  0
    5.1697   62.3534   13.1250 H   0  0  0  0  0  0
    2.8331   51.8658   23.4180 H   0  0  0  0  0  0
  1  2  1  0  0  0
  1 29  1  0  0  0
  1 30  1  0  0  0
  1 31  1  0  0  0
  2  3  1  0  0  0
  2  8  1  0  0  0
  2  4  1  0  0  0
  4  5  1  0  0  0
  4 32  1  0  0  0
  4 33  1  0  0  0
  5  6  1  0  0  0
  5 34  1  0  0  0
  5 35  1  0  0  0
  6  7  1  0  0  0
  6 36  1  0  0  0
  6 37  1  0  0  0
  7  8  1  0  0  0
  7 38  1  0  0  0
  7 39  1  0  0  0
  8  9  1  0  0  0
  8 55  1  0  0  0
  9 10  1  0  0  0
  9 11  1  0  0  0
  9 12  1  0  0  0
 11 40  1  0  0  0
 11 41  1  0  0  0
 11 42  1  0  0  0
 12 13  1  0  0  0
 12 43  1  0  0  0
 12 44  1  0  0  0
 13 14  1  0  0  0
 13 45  1  0  0  0
 14 15  2  0  0  0
 14 16  1  0  0  0
 16 17  2  0  0  0
 16 18  1  0  0  0
 18 19  1  0  0  0
 18 46  1  0  0  0
 19 24  2  0  0  0
 19 20  1  0  0  0
 20 21  2  0  0  0
 20 47  1  0  0  0
 21 22  1  0  0  0
 21 48  1  0  0  0
 22 23  2  0  0  0
 22 25  1  0  0  0
 23 24  1  0  0  0
 23 49  1  0  0  0
 24 50  1  0  0  0
 25 26  2  0  0  0
 25 27  1  0  0  0
 27 28  1  0  0  0
 27 51  1  0  0  0
 28 52  1  0  0  0
 28 53  1  0  0  0
 28 54  1  0  0  0
M  CHG  1   8   1
M  END
> <i_i_glide_confnum>
27

> <i_i_glide_lignum>
6194

> <i_i_glide_posenum>
184

> <i_i_glide_rotatable_bonds>
9

> <i_m_Source_File_Index>
2764

> <b_m_subgroup_collapsed>
0

> <r_i_docking_score>
-4.26518

> <r_i_glide_ecoul>
-9.2442

> <r_i_glide_eff_state_penalty>
0

> <r_i_glide_einternal>
13.0481

> <r_i_glide_emodel>
-37.0618

> <r_i_glide_energy>
-33.2845

> <r_i_glide_erotb>
1.17507

> <r_i_glide_esite>
-0.128844

> <r_i_glide_evdw>
-24.0403

> <r_i_glide_gscore>
-4.26518

> <r_i_glide_hbond>
-0.456

> <r_i_glide_ligand_efficiency>
-0.164045

> <r_i_glide_ligand_efficiency_ln>
-1.00166

> <r_i_glide_ligand_efficiency_sa>
-0.485984

> <r_i_glide_lipo>
-1.08224

> <r_i_glide_metal>
0

> <r_i_glide_rewards>
-1.18453

> <s_i_glide_gridfile>
wee1_glide-grid

> <s_m_Source_File>
wee1_decoys_glide_SP.sdf

> <s_m_Source_Path>
/Users/zhangxujun/Desktop

> <s_m_entry_id>
3039

> <s_m_entry_name>
wee1_decoys_glide_SP.2764

> <s_m_subgroup_title>
wee1_decoys_glide_SP

> <s_m_subgroupid>
wee1_decoys_glide_SP


$$$$
