@<TRIPOS>MOLECULE
ZINC36772532_5207
48   50    1
SMALL
USER_CHARGES


@<TRIPOS>ATOM
      1 C1         -0.0954   48.8361   23.8448 C.3       1 UNK         0.0000 
      2 C2          0.6914   49.9283   23.1318 C.ar      1 UNK         0.0000 
      3 C3          1.8387   49.5688   22.4181 C.ar      1 UNK         0.0000 
      4 C4          2.6035   50.5281   21.7616 C.ar      1 UNK         0.0000 
      5 C5          2.2374   51.8784   21.8140 C.ar      1 UNK         0.0000 
      6 C6          1.0760   52.2416   22.5006 C.ar      1 UNK         0.0000 
      7 C7          0.3057   51.2800   23.1742 C.ar      1 UNK         0.0000 
      8 S8         -1.1453   51.8288   24.0921 S.o2      1 UNK         0.0000 
      9 O9         -1.1655   53.2957   24.0816 O.2       1 UNK         0.0000 
     10 O10        -2.2934   51.0698   23.5832 O.2       1 UNK         0.0000 
     11 N11        -0.9022   51.3194   25.7752 N.pl3     1 UNK         0.0000 
     12 C12         0.0341   51.8807   26.6529 C.ar      1 UNK         0.0000 
     13 C13         1.1051   52.6653   26.2140 C.ar      1 UNK         0.0000 
     14 C14         2.0301   53.1648   27.1247 C.ar      1 UNK         0.0000 
     15 C15         1.8918   52.8812   28.4856 C.ar      1 UNK         0.0000 
     16 C16         0.8226   52.1009   28.9285 C.ar      1 UNK         0.0000 
     17 C17        -0.0998   51.5993   28.0145 C.ar      1 UNK         0.0000 
     18 S18         3.0508   53.4873   29.6816 S.3       1 UNK         0.0000 
     19 C19         4.4390   54.2767   28.8193 C.3       1 UNK         0.0000 
     20 F20         5.2407   54.8968   29.6824 F         1 UNK         0.0000 
     21 F21         5.1480   53.3903   28.1256 F         1 UNK         0.0000 
     22 N22         2.9724   52.8957   21.1774 N.am      1 UNK         0.0000 
     23 C23         4.3122   52.9345   21.0097 C.2       1 UNK         0.0000 
     24 O24         5.1036   52.1136   21.4763 O.2       1 UNK         0.0000 
     25 C25         4.8270   54.1048   20.2134 C.ar      1 UNK         0.0000 
     26 C26         5.8697   54.8966   20.7202 C.ar      1 UNK         0.0000 
     27 C27         6.3776   55.9600   19.9719 C.ar      1 UNK         0.0000 
     28 C28         5.8447   56.2589   18.7195 C.ar      1 UNK         0.0000 
     29 C29         4.8081   55.4802   18.2075 C.ar      1 UNK         0.0000 
     30 C30         4.3041   54.4049   18.9425 C.ar      1 UNK         0.0000 
     31 F31         3.3064   53.6665   18.4000 F         1 UNK         0.0000 
     32 F32         6.4038   54.6565   21.9422 F         1 UNK         0.0000 
     33 H33        -0.1158   49.0081   24.9221 H         1 UNK         0.0000 
     34 H34        -1.1256   48.8003   23.4875 H         1 UNK         0.0000 
     35 H35         0.3398   47.8489   23.6937 H         1 UNK         0.0000 
     36 H36         2.1513   48.5357   22.3754 H         1 UNK         0.0000 
     37 H37         3.4765   50.2090   21.2097 H         1 UNK         0.0000 
     38 H38         0.7855   53.2839   22.5293 H         1 UNK         0.0000 
     39 H39        -1.3596   50.4663   26.0638 H         1 UNK         0.0000 
     40 H40         1.2388   52.8934   25.1688 H         1 UNK         0.0000 
     41 H41         2.8495   53.7570   26.7502 H         1 UNK         0.0000 
     42 H42         0.7096   51.8741   29.9794 H         1 UNK         0.0000 
     43 H43        -0.9111   50.9760   28.3689 H         1 UNK         0.0000 
     44 H44         4.0851   55.0389   28.1275 H         1 UNK         0.0000 
     45 H45         2.4398   53.6835   20.8264 H         1 UNK         0.0000 
     46 H46         7.1899   56.5480   20.3666 H         1 UNK         0.0000 
     47 H47         6.2347   57.0854   18.1443 H         1 UNK         0.0000 
     48 H48         4.3960   55.7053   17.2350 H         1 UNK         0.0000 
@<TRIPOS>BOND
     1    1    2 1    
     2    1   33 1    
     3    1   34 1    
     4    1   35 1    
     5    2    7 ar   
     6    2    3 ar   
     7    3    4 ar   
     8    3   36 1    
     9    4    5 ar   
    10    4   37 1    
    11    5    6 ar   
    12    5   22 1    
    13    6    7 ar   
    14    6   38 1    
    15    7    8 1    
    16    8    9 2    
    17    8   10 2    
    18    8   11 1    
    19   11   12 1    
    20   11   39 1    
    21   12   17 ar   
    22   12   13 ar   
    23   13   14 ar   
    24   13   40 1    
    25   14   15 ar   
    26   14   41 1    
    27   15   16 ar   
    28   15   18 1    
    29   16   17 ar   
    30   16   42 1    
    31   17   43 1    
    32   18   19 1    
    33   19   20 1    
    34   19   21 1    
    35   19   44 1    
    36   22   23 am   BACKBONE|DICT|INTERRES
    37   22   45 1    
    38   23   24 2    
    39   23   25 1    
    40   25   30 ar   
    41   25   26 ar   
    42   26   27 ar   
    43   26   32 1    
    44   27   28 ar   
    45   27   46 1    
    46   28   29 ar   
    47   28   47 1    
    48   29   30 ar   
    49   29   48 1    
    50   30   31 1    
@<TRIPOS>SUBSTRUCTURE
     1 UNK         1 GROUP             0       ****    0 ROOT    
