@<TRIPOS>MOLECULE
ZINC13129018_3116
56   57    1
SMALL
USER_CHARGES


@<TRIPOS>ATOM
      1 C1         -7.8665   52.0846   26.2592 C.3       1 UNK         0.0000 
      2 C2         -6.4196   51.6283   26.2993 C.ar      1 UNK         0.0000 
      3 C3         -5.8455   51.2218   27.5033 C.ar      1 UNK         0.0000 
      4 C4         -4.5177   50.7892   27.5521 C.ar      1 UNK         0.0000 
      5 C5         -3.7463   50.7736   26.3728 C.ar      1 UNK         0.0000 
      6 C6         -4.3367   51.1502   25.1442 C.ar      1 UNK         0.0000 
      7 C7         -5.6667   51.5805   25.1266 C.ar      1 UNK         0.0000 
      8 C8         -3.6076   51.0497   23.8083 C.3       1 UNK         0.0000 
      9 N9         -2.4056   50.3607   26.4825 N.am      1 UNK         0.0000 
     10 C10        -1.3332   51.1083   26.1591 C.2       1 UNK         0.0000 
     11 O11        -1.3874   52.2061   25.5989 O.2       1 UNK         0.0000 
     12 C12         0.0286   50.5312   26.5785 C.3       1 UNK         0.0000 
     13 O13         0.8554   51.5541   27.1463 O.3       1 UNK         0.0000 
     14 C14         0.6813   52.0090   28.4231 C.2       1 UNK         0.0000 
     15 O15        -0.2456   51.6844   29.1679 O.2       1 UNK         0.0000 
     16 C16         1.7553   53.0104   28.8105 C.3       1 UNK         0.0000 
     17 H17         1.6013   53.8905   28.1878 H         1 UNK         0.0000 
     18 C18         1.6970   53.5163   30.2829 C.3       1 UNK         0.0000 
     19 H19         2.6261   54.0436   30.4815 H         1 UNK         0.0000 
     20 C20         0.5633   54.5203   30.5449 C.3       1 UNK         0.0000 
     21 O21         1.6190   52.4744   31.2423 O.3       1 UNK         0.0000 
     22 N22         3.1135   52.4967   28.4848 N.pl3     1 UNK         0.0000 
     23 S23         4.3913   53.6171   28.0340 S.o2      1 UNK         0.0000 
     24 O24         4.1045   54.8967   28.6817 O.2       1 UNK         0.0000 
     25 O25         5.6712   52.9389   28.2532 O.2       1 UNK         0.0000 
     26 C26         4.2488   53.8818   26.2659 C.ar      1 UNK         0.0000 
     27 C27         3.0079   53.8595   25.6204 C.ar      1 UNK         0.0000 
     28 C28         2.9302   54.0394   24.2408 C.ar      1 UNK         0.0000 
     29 C29         4.0890   54.2419   23.4922 C.ar      1 UNK         0.0000 
     30 C30         5.3349   54.2728   24.1330 C.ar      1 UNK         0.0000 
     31 C31         5.4089   54.0968   25.5160 C.ar      1 UNK         0.0000 
     32 Cl32        6.7945   54.5257   23.2433 Cl        1 UNK         0.0000 
     33 Cl33        3.9470   54.4871   21.7862 Cl        1 UNK         0.0000 
     34 C34        -3.9356   50.3682   28.9002 C.3       1 UNK         0.0000 
     35 H35        -8.4605   51.5600   27.0087 H         1 UNK         0.0000 
     36 H36        -8.3216   51.8645   25.2927 H         1 UNK         0.0000 
     37 H37        -7.9365   53.1563   26.4453 H         1 UNK         0.0000 
     38 H38        -6.4365   51.2435   28.4073 H         1 UNK         0.0000 
     39 H39        -6.1232   51.8729   24.1911 H         1 UNK         0.0000 
     40 H40        -2.8851   50.2337   23.8097 H         1 UNK         0.0000 
     41 H41        -4.3039   50.8333   22.9974 H         1 UNK         0.0000 
     42 H42        -3.0907   51.9815   23.5785 H         1 UNK         0.0000 
     43 H43        -2.2318   49.5604   27.0885 H         1 UNK         0.0000 
     44 H44        -0.0957   49.7070   27.2820 H         1 UNK         0.0000 
     45 H45         0.5172   50.0922   25.7087 H         1 UNK         0.0000 
     46 H46         0.7025   55.4137   29.9346 H         1 UNK         0.0000 
     47 H47        -0.4177   54.1036   30.3156 H         1 UNK         0.0000 
     48 H48         0.5518   54.8405   31.5879 H         1 UNK         0.0000 
     49 H49         0.7286   52.1037   31.2212 H         1 UNK         0.0000 
     50 H50         3.1619   51.5701   28.0529 H         1 UNK         0.0000 
     51 H51         2.0931   53.6964   26.1646 H         1 UNK         0.0000 
     52 H52         1.9674   54.0221   23.7507 H         1 UNK         0.0000 
     53 H53         6.3727   54.1122   26.0050 H         1 UNK         0.0000 
     54 H54        -3.6964   49.3039   28.8958 H         1 UNK         0.0000 
     55 H55        -3.0070   50.9039   29.1018 H         1 UNK         0.0000 
     56 H56        -4.6125   50.5673   29.7312 H         1 UNK         0.0000 
@<TRIPOS>BOND
     1    1    2 1    
     2    1   35 1    
     3    1   36 1    
     4    1   37 1    
     5    2    7 ar   
     6    2    3 ar   
     7    3    4 ar   
     8    3   38 1    
     9    4    5 ar   
    10    4   34 1    
    11    5    6 ar   
    12    5    9 1    
    13    6    7 ar   
    14    6    8 1    
    15    7   39 1    
    16    8   40 1    
    17    8   41 1    
    18    8   42 1    
    19    9   10 am   BACKBONE|DICT|INTERRES
    20    9   43 1    
    21   10   11 2    
    22   10   12 1    
    23   12   13 1    
    24   12   44 1    
    25   12   45 1    
    26   13   14 1    
    27   14   15 2    
    28   14   16 1    
    29   16   17 1    
    30   16   18 1    
    31   16   22 1    
    32   18   19 1    
    33   18   20 1    
    34   18   21 1    
    35   20   46 1    
    36   20   47 1    
    37   20   48 1    
    38   21   49 1    
    39   22   23 1    
    40   22   50 1    
    41   23   24 2    
    42   23   25 2    
    43   23   26 1    
    44   26   31 ar   
    45   26   27 ar   
    46   27   28 ar   
    47   27   51 1    
    48   28   29 ar   
    49   28   52 1    
    50   29   30 ar   
    51   29   33 1    
    52   30   31 ar   
    53   30   32 1    
    54   31   53 1    
    55   34   54 1    
    56   34   55 1    
    57   34   56 1    
@<TRIPOS>SUBSTRUCTURE
     1 UNK         1 GROUP             0       ****    0 ROOT    
