ZINC17102482_2611
                    3D
 Schrodinger Suite 2024-2.
 56 59  0  0  1  0            999 V2000
    6.9936   54.0893   27.8285 C   0  0  0  0  0  0
    6.1212   54.2000   26.5957 C   0  0  0  0  0  0
    6.7045   54.4133   25.3464 C   0  0  0  0  0  0
    5.9151   54.4969   24.2083 C   0  0  0  0  0  0
    4.5294   54.3828   24.3181 C   0  0  0  0  0  0
    3.9404   54.2091   25.5766 C   0  0  0  0  0  0
    4.7357   54.1045   26.7122 C   0  0  0  0  0  0
    3.6740   54.5305   23.0655 C   0  0  0  0  0  0
    3.0105   53.3112   22.6287 N   0  0  0  0  0  0
    1.8607   52.8484   23.1427 C   0  0  0  0  0  0
    1.2434   53.4369   24.0286 O   0  0  0  0  0  0
    1.4033   51.5998   22.5759 C   0  0  0  0  0  0
    1.6843   51.1583   21.2581 C   0  0  0  0  0  0
    1.1030   49.9534   20.9399 C   0  0  0  0  0  0
    0.1720   49.2961   22.2283 S   0  0  0  0  0  0
    0.5551   50.6691   23.2172 C   0  0  0  0  0  0
    0.0657   50.6198   24.5097 N   0  0  0  0  0  0
   -0.8953   51.4305   24.9914 C   0  0  0  0  0  0
   -1.4149   52.3469   24.3446 O   0  0  0  0  0  0
   -1.3879   51.0946   26.4226 C   0  0  2  0  0  0
   -1.0213   50.0994   26.6865 H   0  0  0  0  0  0
   -2.9486   51.0387   26.3626 C   0  0  0  0  0  0
   -3.5398   50.8960   27.7547 C   0  0  0  0  0  0
   -2.8533   51.1443   28.8818 C   0  0  0  0  0  0
   -1.4250   51.6837   28.9247 C   0  0  0  0  0  0
   -0.9399   52.1328   27.5148 C   0  0  1  0  0  0
   -1.3537   53.1055   27.2456 H   0  0  0  0  0  0
    0.5975   52.3226   27.6052 C   0  0  0  0  0  0
    1.0211   53.4697   27.8668 O   0  0  0  0  0  0
    1.4009   49.5021   19.5368 C   0  0  0  0  0  0
    1.9509   50.7975   18.9225 C   0  0  0  0  0  0
    2.5013   51.6457   20.0805 C   0  0  0  0  0  0
    7.8989   54.6798   27.7058 H   0  0  0  0  0  0
    6.4777   54.4788   28.7065 H   0  0  0  0  0  0
    7.2668   53.0504   28.0166 H   0  0  0  0  0  0
    7.7736   54.4980   25.2418 H   0  0  0  0  0  0
    6.3849   54.6505   23.2486 H   0  0  0  0  0  0
    2.8688   54.1457   25.6940 H   0  0  0  0  0  0
    4.2679   53.9479   27.6750 H   0  0  0  0  0  0
    2.9285   55.2962   23.2753 H   0  0  0  0  0  0
    4.2745   54.8968   22.2330 H   0  0  0  0  0  0
    3.4800   52.7569   21.9273 H   0  0  0  0  0  0
    0.3720   49.8543   25.0934 H   0  0  0  0  0  0
   -3.3755   51.9512   25.9420 H   0  0  0  0  0  0
   -3.2788   50.2221   25.7191 H   0  0  0  0  0  0
   -4.5476   50.5167   27.8496 H   0  0  0  0  0  0
   -3.3489   50.9189   29.8157 H   0  0  0  0  0  0
   -0.7895   50.8964   29.3276 H   0  0  0  0  0  0
   -1.3230   52.4971   29.6414 H   0  0  0  0  0  0
    2.1380   48.6986   19.5118 H   0  0  0  0  0  0
    0.5195   49.1627   18.9925 H   0  0  0  0  0  0
    2.7013   50.6043   18.1530 H   0  0  0  0  0  0
    1.1374   51.3399   18.4372 H   0  0  0  0  0  0
    2.3986   52.7112   19.8808 H   0  0  0  0  0  0
    3.5638   51.4352   20.2136 H   0  0  0  0  0  0
    1.3110   51.2969   27.5655 O   0  5  0  0  0  0
  1  2  1  0  0  0
  1 33  1  0  0  0
  1 34  1  0  0  0
  1 35  1  0  0  0
  2  7  2  0  0  0
  2  3  1  0  0  0
  3  4  2  0  0  0
  3 36  1  0  0  0
  4  5  1  0  0  0
  4 37  1  0  0  0
  5  6  2  0  0  0
  5  8  1  0  0  0
  6  7  1  0  0  0
  6 38  1  0  0  0
  7 39  1  0  0  0
  8  9  1  0  0  0
  8 40  1  0  0  0
  8 41  1  0  0  0
  9 10  1  0  0  0
  9 42  1  0  0  0
 10 11  2  0  0  0
 10 12  1  0  0  0
 12 16  2  0  0  0
 12 13  1  0  0  0
 13 32  1  0  0  0
 13 14  2  0  0  0
 14 15  1  0  0  0
 14 30  1  0  0  0
 15 16  1  0  0  0
 16 17  1  0  0  0
 17 18  1  0  0  0
 17 43  1  0  0  0
 18 19  2  0  0  0
 18 20  1  0  0  0
 20 21  1  0  0  0
 20 26  1  0  0  0
 20 22  1  0  0  0
 22 23  1  0  0  0
 22 44  1  0  0  0
 22 45  1  0  0  0
 23 24  2  0  0  0
 23 46  1  0  0  0
 24 25  1  0  0  0
 24 47  1  0  0  0
 25 26  1  0  0  0
 25 48  1  0  0  0
 25 49  1  0  0  0
 26 27  1  0  0  0
 26 28  1  0  0  0
 28 29  2  0  0  0
 28 56  1  0  0  0
 30 31  1  0  0  0
 30 50  1  0  0  0
 30 51  1  0  0  0
 31 32  1  0  0  0
 31 52  1  0  0  0
 31 53  1  0  0  0
 32 54  1  0  0  0
 32 55  1  0  0  0
M  CHG  1  56  -1
M  END
> <i_i_glide_confnum>
27

> <i_i_glide_lignum>
2612

> <i_i_glide_posenum>
356

> <i_i_glide_rotatable_bonds>
8

> <i_m_Source_File_Index>
4429

> <b_m_subgroup_collapsed>
0

> <r_i_docking_score>
-4.53183

> <r_i_glide_ecoul>
-2.81329

> <r_i_glide_eff_state_penalty>
0

> <r_i_glide_einternal>
9.56343

> <r_i_glide_emodel>
-49.6424

> <r_i_glide_energy>
-41.2706

> <r_i_glide_erotb>
0.729205

> <r_i_glide_esite>
-0.00598392

> <r_i_glide_evdw>
-38.4573

> <r_i_glide_gscore>
-4.53183

> <r_i_glide_hbond>
0

> <r_i_glide_ligand_efficiency>
-0.146188

> <r_i_glide_ligand_efficiency_ln>
-1.02207

> <r_i_glide_ligand_efficiency_sa>
-0.459232

> <r_i_glide_lipo>
-2.06846

> <r_i_glide_metal>
0

> <r_i_glide_rewards>
-0.841733

> <s_i_glide_gridfile>
wee1_glide-grid

> <s_m_Source_File>
wee1_decoys_glide_SP.sdf

> <s_m_Source_Path>
/Users/zhangxujun/Desktop

> <s_m_entry_id>
4704

> <s_m_entry_name>
wee1_decoys_glide_SP.4429

> <s_m_subgroup_title>
wee1_decoys_glide_SP

> <s_m_subgroupid>
wee1_decoys_glide_SP


$$$$
