ZINC35166836_960
                    3D
 Schrodinger Suite 2024-2.
 60 63  0  0  1  0            999 V2000
    4.9697   53.6206   21.2235 C   0  0  0  0  0  0
    3.6772   52.9184   21.5952 C   0  0  0  0  0  0
    2.7622   53.5497   22.4380 C   0  0  0  0  0  0
    1.5633   52.9243   22.7879 C   0  0  0  0  0  0
    1.2740   51.6481   22.2701 C   0  0  0  0  0  0
    2.1889   51.0093   21.4122 C   0  0  0  0  0  0
    3.3859   51.6531   21.0834 C   0  0  0  0  0  0
    1.9133   49.6259   20.8359 C   0  0  0  0  0  0
    0.0471   51.0401   22.5717 N   0  0  0  0  0  0
   -0.2207   50.4146   23.7357 C   0  0  0  0  0  0
    0.6568   50.1265   24.5524 O   0  0  0  0  0  0
   -1.6876   50.1116   23.9991 C   0  0  0  0  0  0
   -2.5522   49.8673   22.9138 C   0  0  0  0  0  0
   -3.8877   49.5219   23.1126 C   0  0  0  0  0  0
   -4.3903   49.3962   24.4031 C   0  0  0  0  0  0
   -3.5609   49.6317   25.4953 C   0  0  0  0  0  0
   -2.2308   50.0192   25.3083 C   0  0  0  0  0  0
   -1.4958   50.2266   26.4817 N   0  0  0  0  0  0
   -1.0250   51.4079   26.9366 C   0  0  0  0  0  0
   -1.2917   52.4967   26.4264 O   0  0  0  0  0  0
   -0.0637   51.3076   28.1485 C   0  0  2  0  0  0
   -0.2127   50.3446   28.5943 H   0  0  0  0  0  0
   -0.2287   52.3727   29.2281 C   0  0  0  0  0  0
    0.8990   53.3874   29.0357 C   0  0  0  0  0  0
    0.9731   54.4773   29.6043 O   0  0  0  0  0  0
    1.7442   52.8531   28.1171 N   0  0  0  0  0  0
    1.3649   51.5037   27.7016 C   0  0  0  0  0  0
    2.8971   53.4724   27.6261 C   0  0  0  0  0  0
    3.0468   53.5307   26.2419 C   0  0  0  0  0  0
    4.1770   54.0959   25.6841 C   0  0  0  0  0  0
    5.1787   54.5635   26.5141 C   0  0  0  0  0  0
    5.0629   54.4967   27.9034 C   0  0  0  0  0  0
    3.9035   53.9645   28.4668 C   0  0  0  0  0  0
    6.7044   55.2977   25.6821 Br  0  0  0  0  0  0
    0.5912   53.6538   23.7088 C   0  0  0  0  0  0
    5.5042   53.1003   20.4273 H   0  0  0  0  0  0
    4.7574   54.6311   20.8716 H   0  0  0  0  0  0
    5.6204   53.7034   22.0948 H   0  0  0  0  0  0
    2.9795   54.5414   22.8066 H   0  0  0  0  0  0
    4.0885   51.1732   20.4156 H   0  0  0  0  0  0
    2.7031   49.2912   20.1616 H   0  0  0  0  0  0
    1.8196   48.8975   21.6425 H   0  0  0  0  0  0
    0.9750   49.6267   20.2811 H   0  0  0  0  0  0
   -0.7133   51.2194   21.9376 H   0  0  0  0  0  0
   -2.1971   49.9116   21.8943 H   0  0  0  0  0  0
   -4.5293   49.3328   22.2642 H   0  0  0  0  0  0
   -5.4209   49.1131   24.5590 H   0  0  0  0  0  0
   -3.9614   49.5285   26.4945 H   0  0  0  0  0  0
   -1.4700   49.4428   27.1397 H   0  0  0  0  0  0
   -0.2158   51.9439   30.2315 H   0  0  0  0  0  0
   -1.1718   52.8967   29.1479 H   0  0  0  0  0  0
    1.5043   51.2967   26.6415 H   0  0  0  0  0  0
    2.0137   50.7925   28.2145 H   0  0  0  0  0  0
    2.3058   53.1083   25.5919 H   0  0  0  0  0  0
    4.3004   54.1343   24.6138 H   0  0  0  0  0  0
    5.8574   54.8696   28.5348 H   0  0  0  0  0  0
    3.8010   53.9101   29.5403 H   0  0  0  0  0  0
    0.9221   54.6660   23.9378 H   0  0  0  0  0  0
   -0.4053   53.6959   23.2818 H   0  0  0  0  0  0
    0.4650   53.1085   24.6402 H   0  0  0  0  0  0
  1  2  1  0  0  0
  1 36  1  0  0  0
  1 37  1  0  0  0
  1 38  1  0  0  0
  2  7  2  0  0  0
  2  3  1  0  0  0
  3  4  2  0  0  0
  3 39  1  0  0  0
  4  5  1  0  0  0
  4 35  1  0  0  0
  5  6  2  0  0  0
  5  9  1  0  0  0
  6  7  1  0  0  0
  6  8  1  0  0  0
  7 40  1  0  0  0
  8 41  1  0  0  0
  8 42  1  0  0  0
  8 43  1  0  0  0
  9 10  1  0  0  0
  9 44  1  0  0  0
 10 11  2  0  0  0
 10 12  1  0  0  0
 12 17  2  0  0  0
 12 13  1  0  0  0
 13 14  2  0  0  0
 13 45  1  0  0  0
 14 15  1  0  0  0
 14 46  1  0  0  0
 15 16  2  0  0  0
 15 47  1  0  0  0
 16 17  1  0  0  0
 16 48  1  0  0  0
 17 18  1  0  0  0
 18 19  1  0  0  0
 18 49  1  0  0  0
 19 20  2  0  0  0
 19 21  1  0  0  0
 21 22  1  0  0  0
 21 27  1  0  0  0
 21 23  1  0  0  0
 23 24  1  0  0  0
 23 50  1  0  0  0
 23 51  1  0  0  0
 24 25  2  0  0  0
 24 26  1  0  0  0
 26 27  1  0  0  0
 26 28  1  0  0  0
 27 52  1  0  0  0
 27 53  1  0  0  0
 28 33  2  0  0  0
 28 29  1  0  0  0
 29 30  2  0  0  0
 29 54  1  0  0  0
 30 31  1  0  0  0
 30 55  1  0  0  0
 31 32  2  0  0  0
 31 34  1  0  0  0
 32 33  1  0  0  0
 32 56  1  0  0  0
 33 57  1  0  0  0
 35 58  1  0  0  0
 35 59  1  0  0  0
 35 60  1  0  0  0
M  END
> <i_i_glide_confnum>
50

> <i_i_glide_lignum>
961

> <i_i_glide_posenum>
26

> <i_i_glide_rotatable_bonds>
7

> <i_m_Source_File_Index>
322

> <b_m_subgroup_collapsed>
0

> <r_i_docking_score>
-5.55307

> <r_i_glide_ecoul>
-4.78307

> <r_i_glide_eff_state_penalty>
0

> <r_i_glide_einternal>
8.44657

> <r_i_glide_emodel>
-60.9436

> <r_i_glide_energy>
-46.0224

> <r_i_glide_erotb>
0.531163

> <r_i_glide_esite>
-0.158316

> <r_i_glide_evdw>
-41.2393

> <r_i_glide_gscore>
-5.55307

> <r_i_glide_hbond>
-0.16

> <r_i_glide_ligand_efficiency>
-0.163326

> <r_i_glide_ligand_efficiency_ln>
-1.22683

> <r_i_glide_ligand_efficiency_sa>
-0.529112

> <r_i_glide_lipo>
-2.41095

> <r_i_glide_metal>
0

> <r_i_glide_rewards>
-0.575541

> <s_i_glide_gridfile>
wee1_glide-grid

> <s_m_Source_File>
wee1_decoys_glide_SP.sdf

> <s_m_Source_Path>
/Users/zhangxujun/Desktop

> <s_m_entry_id>
597

> <s_m_entry_name>
wee1_decoys_glide_SP.322

> <s_m_subgroup_title>
wee1_decoys_glide_SP

> <s_m_subgroupid>
wee1_decoys_glide_SP


$$$$
