@<TRIPOS>MOLECULE
ZINC33063317_4282
47   50    1
SMALL
USER_CHARGES


@<TRIPOS>ATOM
      1 C1          6.6974   54.7511   25.6715 C.ar      1 UNK         0.0000 
      2 C2          6.5229   54.3953   27.0081 C.ar      1 UNK         0.0000 
      3 C3          5.2521   54.0645   27.4750 C.ar      1 UNK         0.0000 
      4 C4          4.1572   54.0925   26.5967 C.ar      1 UNK         0.0000 
      5 C5          4.3408   54.4966   25.2721 C.ar      1 UNK         0.0000 
      6 C6          5.6113   54.8167   24.8071 C.ar      1 UNK         0.0000 
      7 N7          2.8498   53.6988   26.9293 N.am      1 UNK         0.0000 
      8 C8          2.3983   52.9660   27.9719 C.2       1 UNK         0.0000 
      9 O9          3.0715   52.6564   28.9578 O.2       1 UNK         0.0000 
     10 C10         0.9529   52.5202   27.8606 C.ar      1 UNK         0.0000 
     11 C11         0.2568   52.1138   29.0068 C.ar      1 UNK         0.0000 
     12 C12        -1.0685   51.6965   28.9195 C.ar      1 UNK         0.0000 
     13 C13        -1.7333   51.6963   27.6891 C.ar      1 UNK         0.0000 
     14 C14        -1.0381   52.0693   26.5368 C.ar      1 UNK         0.0000 
     15 C15         0.2926   52.4693   26.6201 C.ar      1 UNK         0.0000 
     16 C16        -3.1942   51.2412   27.6239 C.3       1 UNK         0.0000 
     17 H17        -3.5772   51.3557   28.6413 H         1 UNK         0.0000 
     18 N18        -3.2956   49.8340   27.2815 N.pl3     1 UNK         0.0000 
     19 C19        -4.5358   49.2364   27.0213 C.ar      1 UNK         0.0000 
     20 C20        -4.5872   47.8427   27.0468 C.ar      1 UNK         0.0000 
     21 C21        -5.7848   47.1641   26.7996 C.ar      1 UNK         0.0000 
     22 C22        -6.9414   47.9086   26.5300 C.ar      1 UNK         0.0000 
     23 C23        -6.9040   49.3038   26.5370 C.ar      1 UNK         0.0000 
     24 C24        -5.7085   49.9768   26.8021 C.ar      1 UNK         0.0000 
     25 S25        -5.7447   51.7612   26.9195 S.o2      1 UNK         0.0000 
     26 O26        -6.1903   52.1071   28.2738 O.2       1 UNK         0.0000 
     27 O27        -6.4627   52.3054   25.7629 O.2       1 UNK         0.0000 
     28 N28        -4.0346   52.0958   26.7723 N.pl3     1 UNK         0.0000 
     29 C29        -5.8031   45.6349   26.8208 C.3       1 UNK         0.0000 
     30 F30        -5.6954   45.2151   28.0822 F         1 UNK         0.0000 
     31 F31        -6.9292   45.1380   26.3062 F         1 UNK         0.0000 
     32 F32        -4.7783   45.1463   26.1171 F         1 UNK         0.0000 
     33 H33         7.6785   54.9693   25.2820 H         1 UNK         0.0000 
     34 H34         7.3687   54.3574   27.6796 H         1 UNK         0.0000 
     35 H35         5.1468   53.7774   28.5093 H         1 UNK         0.0000 
     36 H36         3.5101   54.5299   24.5820 H         1 UNK         0.0000 
     37 H37         5.7585   55.0958   23.7741 H         1 UNK         0.0000 
     38 H38         2.1666   53.8956   26.2168 H         1 UNK         0.0000 
     39 H39         0.7359   52.1113   29.9759 H         1 UNK         0.0000 
     40 H40        -1.5764   51.3671   29.8160 H         1 UNK         0.0000 
     41 H41        -1.5233   52.0370   25.5729 H         1 UNK         0.0000 
     42 H42         0.7940   52.7319   25.7000 H         1 UNK         0.0000 
     43 H43        -2.5502   49.2532   27.6864 H         1 UNK         0.0000 
     44 H44        -3.6844   47.2842   27.2588 H         1 UNK         0.0000 
     45 H45        -7.8814   47.4117   26.3345 H         1 UNK         0.0000 
     46 H46        -7.8128   49.8625   26.3593 H         1 UNK         0.0000 
     47 H47        -3.7011   52.2322   25.8170 H         1 UNK         0.0000 
@<TRIPOS>BOND
     1    1    6 ar   
     2    1    2 ar   
     3    1   33 1    
     4    2    3 ar   
     5    2   34 1    
     6    3    4 ar   
     7    3   35 1    
     8    4    5 ar   
     9    4    7 1    
    10    5    6 ar   
    11    5   36 1    
    12    6   37 1    
    13    7    8 am   BACKBONE|DICT|INTERRES
    14    7   38 1    
    15    8    9 2    
    16    8   10 1    
    17   10   15 ar   
    18   10   11 ar   
    19   11   12 ar   
    20   11   39 1    
    21   12   13 ar   
    22   12   40 1    
    23   13   14 ar   
    24   13   16 1    
    25   14   15 ar   
    26   14   41 1    
    27   15   42 1    
    28   16   17 1    
    29   16   28 1    
    30   16   18 1    
    31   18   19 1    
    32   18   43 1    
    33   19   24 ar   
    34   19   20 ar   
    35   20   21 ar   
    36   20   44 1    
    37   21   22 ar   
    38   21   29 1    
    39   22   23 ar   
    40   22   45 1    
    41   23   24 ar   
    42   23   46 1    
    43   24   25 1    
    44   25   26 2    
    45   25   27 2    
    46   25   28 1    
    47   28   47 1    
    48   29   30 1    
    49   29   31 1    
    50   29   32 1    
@<TRIPOS>SUBSTRUCTURE
     1 UNK         1 GROUP             0       ****    0 ROOT    
