@<TRIPOS>MOLECULE
ZINC46706313_2124
57   59    1
SMALL
USER_CHARGES


@<TRIPOS>ATOM
      1 C1          3.4941   53.7578   30.0820 C.3       1 UNK         0.0000 
      2 C2          4.1152   53.9258   28.7075 C.ar      1 UNK         0.0000 
      3 C3          5.3863   54.4963   28.6486 C.ar      1 UNK         0.0000 
      4 C4          5.9963   54.7547   27.4298 C.ar      1 UNK         0.0000 
      5 C5          5.3371   54.4749   26.2299 C.ar      1 UNK         0.0000 
      6 C6          4.0532   53.9075   26.2838 C.ar      1 UNK         0.0000 
      7 C7          3.4461   53.6042   27.5069 C.ar      1 UNK         0.0000 
      8 N8          2.1631   53.0338   27.4357 N.am      1 UNK         0.0000 
      9 C9          1.7215   51.9299   28.0815 C.2       1 UNK         0.0000 
     10 O10         2.4040   51.2968   28.8825 O.2       1 UNK         0.0000 
     11 C11         0.3234   51.3888   27.7128 C.3       1 UNK         0.0000 
     12 C12        -0.7031   52.5500   27.5817 C.3       1 UNK         0.0000 
     13 C13        -2.0313   52.0872   26.9533 C.3       1 UNK         0.0000 
     14 N14        -1.7344   51.3748   25.6991 N.pl3     1 UNK         0.0000 
     15 C15        -0.9707   50.1254   25.8532 C.3       1 UNK         0.0000 
     16 C16         0.4138   50.4359   26.4723 C.3       1 UNK         0.0000 
     17 S17        -2.4868   51.8203   24.1574 S.o2      1 UNK         0.0000 
     18 O18        -3.3250   50.6999   23.7156 O.2       1 UNK         0.0000 
     19 O19        -3.0707   53.1612   24.2872 O.2       1 UNK         0.0000 
     20 C20        -1.1453   51.9693   22.9874 C.ar      1 UNK         0.0000 
     21 C21         0.0848   52.4957   23.3867 C.ar      1 UNK         0.0000 
     22 C22         1.1287   52.5990   22.4693 C.ar      1 UNK         0.0000 
     23 C23         0.9389   52.1973   21.1457 C.ar      1 UNK         0.0000 
     24 C24        -0.3015   51.6961   20.7285 C.ar      1 UNK         0.0000 
     25 C25        -1.3370   51.5772   21.6615 C.ar      1 UNK         0.0000 
     26 C26        -0.5535   51.3002   19.2768 C.3       1 UNK         0.0000 
     27 F27         0.5045   51.5264   18.4958 F         1 UNK         0.0000 
     28 F28        -0.8551   50.0031   19.2113 F         1 UNK         0.0000 
     29 F29        -1.5810   52.0060   18.8019 F         1 UNK         0.0000 
     30 C30         6.0140   54.8169   24.9265 C.2       1 UNK         0.0000 
     31 O31         6.8756   55.6953   24.8853 O.2       1 UNK         0.0000 
     32 N32         5.6448   54.0971   23.8546 N.am      1 UNK         0.0000 
     33 C33         6.2147   54.2843   22.5296 C.3       1 UNK         0.0000 
     34 H34         3.9116   54.4968   30.7586 H         1 UNK         0.0000 
     35 H35         2.4159   53.9196   30.0640 H         1 UNK         0.0000 
     36 H36         3.7118   52.7722   30.4909 H         1 UNK         0.0000 
     37 H37         5.9046   54.7740   29.5544 H         1 UNK         0.0000 
     38 H38         6.9807   55.2013   27.4352 H         1 UNK         0.0000 
     39 H39         3.5193   53.6890   25.3697 H         1 UNK         0.0000 
     40 H40         1.5852   53.3687   26.6813 H         1 UNK         0.0000 
     41 H41        -0.0216   50.8215   28.5781 H         1 UNK         0.0000 
     42 H42        -0.8947   52.9943   28.5575 H         1 UNK         0.0000 
     43 H43        -0.3416   53.2934   26.8818 H         1 UNK         0.0000 
     44 H44        -2.5760   51.4126   27.6165 H         1 UNK         0.0000 
     45 H45        -2.6859   52.9322   26.7457 H         1 UNK         0.0000 
     46 H46        -1.5449   49.4445   26.4808 H         1 UNK         0.0000 
     47 H47        -0.8705   49.6419   24.8803 H         1 UNK         0.0000 
     48 H48         0.9713   50.9077   25.6645 H         1 UNK         0.0000 
     49 H49         0.8694   49.4796   26.7389 H         1 UNK         0.0000 
     50 H50         0.2360   52.8246   24.4040 H         1 UNK         0.0000 
     51 H51         2.0824   53.0056   22.7751 H         1 UNK         0.0000 
     52 H52         1.7544   52.3072   20.4449 H         1 UNK         0.0000 
     53 H53        -2.2970   51.1838   21.3527 H         1 UNK         0.0000 
     54 H54         4.9957   53.3379   23.9779 H         1 UNK         0.0000 
     55 H55         5.7580   53.5930   21.8196 H         1 UNK         0.0000 
     56 H56         7.2901   54.1003   22.5497 H         1 UNK         0.0000 
     57 H57         6.0431   55.2967   22.1660 H         1 UNK         0.0000 
@<TRIPOS>BOND
     1    1    2 1    
     2    1   34 1    
     3    1   35 1    
     4    1   36 1    
     5    2    7 ar   
     6    2    3 ar   
     7    3    4 ar   
     8    3   37 1    
     9    4    5 ar   
    10    4   38 1    
    11    5    6 ar   
    12    5   30 1    
    13    6    7 ar   
    14    6   39 1    
    15    7    8 1    
    16    8    9 am   BACKBONE|DICT|INTERRES
    17    8   40 1    
    18    9   10 2    
    19    9   11 1    
    20   11   16 1    
    21   11   12 1    
    22   11   41 1    
    23   12   13 1    
    24   12   42 1    
    25   12   43 1    
    26   13   14 1    
    27   13   44 1    
    28   13   45 1    
    29   14   15 1    
    30   14   17 1    
    31   15   16 1    
    32   15   46 1    
    33   15   47 1    
    34   16   48 1    
    35   16   49 1    
    36   17   18 2    
    37   17   19 2    
    38   17   20 1    
    39   20   25 ar   
    40   20   21 ar   
    41   21   22 ar   
    42   21   50 1    
    43   22   23 ar   
    44   22   51 1    
    45   23   24 ar   
    46   23   52 1    
    47   24   25 ar   
    48   24   26 1    
    49   25   53 1    
    50   26   27 1    
    51   26   28 1    
    52   26   29 1    
    53   30   31 2    
    54   30   32 am   BACKBONE|DICT|INTERRES
    55   32   33 1    
    56   32   54 1    
    57   33   55 1    
    58   33   56 1    
    59   33   57 1    
@<TRIPOS>SUBSTRUCTURE
     1 UNK         1 GROUP             0       ****    0 ROOT    
