ZINC28368296_5851
                    3D
 Schrodinger Suite 2024-2.
 50 53  0  0  1  0            999 V2000
    5.3194   55.1565   20.7173 C   0  0  0  0  0  0
    4.7454   54.4723   21.9712 C   0  0  1  0  0  0
    3.8465   55.0076   22.2781 H   0  0  0  0  0  0
    4.2957   53.0282   21.6268 C   0  0  0  0  0  0
    5.1045   52.0978   21.6816 O   0  0  0  0  0  0
    2.9957   52.8960   21.2826 N   0  0  0  0  0  0
    2.3434   51.6955   20.9559 C   0  0  0  0  0  0
    2.9304   50.7428   20.1121 C   0  0  0  0  0  0
    2.2587   49.5588   19.8102 C   0  0  0  0  0  0
    0.9998   49.3146   20.3538 C   0  0  0  0  0  0
    0.4028   50.2632   21.1841 C   0  0  0  0  0  0
    1.0670   51.4538   21.4821 C   0  0  0  0  0  0
    0.4691   52.3633   22.2899 F   0  0  0  0  0  0
    0.3550   48.1596   20.0764 F   0  0  0  0  0  0
    5.6829   54.4450   23.0805 N   0  0  0  0  0  0
    5.4346   54.4156   24.4616 C   0  0  0  0  0  0
    6.5423   54.4382   25.3296 C   0  0  0  0  0  0
    6.3768   54.3453   26.7200 C   0  0  0  0  0  0
    5.0795   54.2297   27.2039 C   0  0  0  0  0  0
    3.9992   54.2263   26.3715 C   0  0  0  0  0  0
    4.1341   54.3223   24.9898 C   0  0  0  0  0  0
    2.8640   54.0996   27.1087 O   0  0  0  0  0  0
    3.2604   53.9965   28.4597 C   0  0  0  0  0  0
    4.6634   54.0975   28.4909 O   0  0  0  0  0  0
    2.6487   55.1456   29.2674 C   0  0  0  0  0  0
    1.1074   55.0676   29.2500 C   0  0  0  0  0  0
    0.5941   53.6956   29.7372 C   0  0  0  0  0  0
    1.2747   52.5231   28.9984 C   0  0  0  0  0  0
    2.8166   52.6397   29.0272 C   0  0  0  0  0  0
    4.6327   55.0996   19.8706 H   0  0  0  0  0  0
    5.5054   56.2132   20.9068 H   0  0  0  0  0  0
    6.2612   54.7028   20.4039 H   0  0  0  0  0  0
    2.4092   53.7198   21.3114 H   0  0  0  0  0  0
    3.9047   50.9178   19.6814 H   0  0  0  0  0  0
    2.7188   48.8354   19.1512 H   0  0  0  0  0  0
   -0.5750   50.0697   21.5985 H   0  0  0  0  0  0
    6.6225   54.1811   22.8214 H   0  0  0  0  0  0
    7.5374   54.5071   24.9171 H   0  0  0  0  0  0
    7.2253   54.3486   27.3865 H   0  0  0  0  0  0
    3.2659   54.2934   24.3517 H   0  0  0  0  0  0
    2.9953   55.0577   30.2940 H   0  0  0  0  0  0
    3.0091   56.0978   28.8798 H   0  0  0  0  0  0
    0.7043   55.8610   29.8800 H   0  0  0  0  0  0
    0.7374   55.2627   28.2412 H   0  0  0  0  0  0
    0.7787   53.5977   30.8082 H   0  0  0  0  0  0
   -0.4877   53.6350   29.6124 H   0  0  0  0  0  0
    0.9654   51.5766   29.4421 H   0  0  0  0  0  0
    0.9274   52.4919   27.9642 H   0  0  0  0  0  0
    3.2887   51.8358   28.4631 H   0  0  0  0  0  0
    3.1611   52.5654   30.0593 H   0  0  0  0  0  0
  1  2  1  0  0  0
  1 30  1  0  0  0
  1 31  1  0  0  0
  1 32  1  0  0  0
  2  3  1  0  0  0
  2  4  1  0  0  0
  2 15  1  0  0  0
  4  5  2  0  0  0
  4  6  1  0  0  0
  6  7  1  0  0  0
  6 33  1  0  0  0
  7 12  2  0  0  0
  7  8  1  0  0  0
  8  9  2  0  0  0
  8 34  1  0  0  0
  9 10  1  0  0  0
  9 35  1  0  0  0
 10 11  2  0  0  0
 10 14  1  0  0  0
 11 12  1  0  0  0
 11 36  1  0  0  0
 12 13  1  0  0  0
 15 16  1  0  0  0
 15 37  1  0  0  0
 16 21  2  0  0  0
 16 17  1  0  0  0
 17 18  2  0  0  0
 17 38  1  0  0  0
 18 19  1  0  0  0
 18 39  1  0  0  0
 19 24  1  0  0  0
 19 20  2  0  0  0
 20 21  1  0  0  0
 20 22  1  0  0  0
 21 40  1  0  0  0
 22 23  1  0  0  0
 23 29  1  0  0  0
 23 24  1  0  0  0
 23 25  1  0  0  0
 25 26  1  0  0  0
 25 41  1  0  0  0
 25 42  1  0  0  0
 26 27  1  0  0  0
 26 43  1  0  0  0
 26 44  1  0  0  0
 27 28  1  0  0  0
 27 45  1  0  0  0
 27 46  1  0  0  0
 28 29  1  0  0  0
 28 47  1  0  0  0
 28 48  1  0  0  0
 29 49  1  0  0  0
 29 50  1  0  0  0
M  END
> <i_i_glide_confnum>
28

> <i_i_glide_lignum>
5852

> <i_i_glide_posenum>
365

> <i_i_glide_rotatable_bonds>
5

> <i_m_Source_File_Index>
5656

> <b_m_subgroup_collapsed>
0

> <r_i_docking_score>
-6.62326

> <r_i_glide_ecoul>
-3.17708

> <r_i_glide_eff_state_penalty>
0

> <r_i_glide_einternal>
5.6873

> <r_i_glide_emodel>
-59.0445

> <r_i_glide_energy>
-44.1561

> <r_i_glide_erotb>
0.387451

> <r_i_glide_esite>
-0.00676604

> <r_i_glide_evdw>
-40.979

> <r_i_glide_gscore>
-6.62326

> <r_i_glide_hbond>
-0.182923

> <r_i_glide_ligand_efficiency>
-0.236545

> <r_i_glide_ligand_efficiency_ln>
-1.52884

> <r_i_glide_ligand_efficiency_sa>
-0.71829

> <r_i_glide_lipo>
-2.97348

> <r_i_glide_metal>
0

> <r_i_glide_rewards>
-1.32203

> <s_i_glide_gridfile>
wee1_glide-grid

> <s_m_Source_File>
wee1_decoys_glide_SP.sdf

> <s_m_Source_Path>
/Users/zhangxujun/Desktop

> <s_m_entry_id>
5931

> <s_m_entry_name>
wee1_decoys_glide_SP.5656

> <s_m_subgroup_title>
wee1_decoys_glide_SP

> <s_m_subgroupid>
wee1_decoys_glide_SP


$$$$
