@<TRIPOS>MOLECULE
ZINC12605404_2294
44   47    1
SMALL
USER_CHARGES


@<TRIPOS>ATOM
      1 C1         -1.5228   48.0634   24.8746 C.ar      1 UNK         0.0000 
      2 C2         -0.5506   48.4526   23.9576 C.ar      1 UNK         0.0000 
      3 C3         -0.1623   49.7949   23.8395 C.ar      1 UNK         0.0000 
      4 C4         -0.7892   50.7490   24.6630 C.ar      1 UNK         0.0000 
      5 C5         -1.7649   50.3590   25.5830 C.ar      1 UNK         0.0000 
      6 C6         -2.1322   49.0171   25.6817 C.ar      1 UNK         0.0000 
      7 S7         -2.5347   51.5442   26.6753 S.o2      1 UNK         0.0000 
      8 O8         -2.2025   52.8966   26.2110 O.2       1 UNK         0.0000 
      9 O9         -3.9309   51.1273   26.8412 O.2       1 UNK         0.0000 
     10 N10        -1.7645   51.2967   28.2531 N.pl3     1 UNK         0.0000 
     11 C11        -0.6230   51.9646   28.7169 C.ar      1 UNK         0.0000 
     12 C12        -0.4782   52.0967   30.1097 C.ar      1 UNK         0.0000 
     13 C13         0.6221   52.7571   30.6699 C.ar      1 UNK         0.0000 
     14 C14         1.5628   53.2851   29.7946 C.ar      1 UNK         0.0000 
     15 C15         1.4353   53.1583   28.4392 C.ar      1 UNK         0.0000 
     16 C16         0.3584   52.4929   27.8598 C.ar      1 UNK         0.0000 
     17 O17         2.5059   53.7389   27.8356 O.3       1 UNK         0.0000 
     18 C18         3.1755   54.4368   28.8525 C.3       1 UNK         0.0000 
     19 O19         2.7191   53.9382   30.0816 O.3       1 UNK         0.0000 
     20 C20         0.9005   50.1743   22.8319 C.2       1 UNK         0.0000 
     21 O21         1.1707   49.4094   21.9044 O.2       1 UNK         0.0000 
     22 N22         1.4967   51.3663   23.0460 N.am      1 UNK         0.0000 
     23 C23         2.4739   52.0371   22.2945 C.ar      1 UNK         0.0000 
     24 C24         2.7577   53.3376   22.7147 C.ar      1 UNK         0.0000 
     25 C25         3.7049   54.0968   22.0386 C.ar      1 UNK         0.0000 
     26 C26         4.3708   53.5601   20.9415 C.ar      1 UNK         0.0000 
     27 C27         4.1140   52.2552   20.5272 C.ar      1 UNK         0.0000 
     28 C28         3.1642   51.4901   21.1997 C.ar      1 UNK         0.0000 
     29 Br29        5.6245   54.6342   19.9961 Br        1 UNK         0.0000 
     30 H30        -1.7956   47.0240   24.9728 H         1 UNK         0.0000 
     31 H31        -0.0957   47.6967   23.3390 H         1 UNK         0.0000 
     32 H32        -0.5354   51.7971   24.5975 H         1 UNK         0.0000 
     33 H33        -2.8639   48.7048   26.4146 H         1 UNK         0.0000 
     34 H34        -2.1238   50.5359   28.8147 H         1 UNK         0.0000 
     35 H35        -1.2192   51.6725   30.7761 H         1 UNK         0.0000 
     36 H36         0.7182   52.8399   31.7428 H         1 UNK         0.0000 
     37 H37         0.2822   52.3919   26.7897 H         1 UNK         0.0000 
     38 H38         2.9252   55.4974   28.7877 H         1 UNK         0.0000 
     39 H39         4.2562   54.3219   28.7609 H         1 UNK         0.0000 
     40 H40         1.1814   51.8703   23.8579 H         1 UNK         0.0000 
     41 H41         2.2423   53.7766   23.5568 H         1 UNK         0.0000 
     42 H42         3.9045   55.1090   22.3489 H         1 UNK         0.0000 
     43 H43         4.6412   51.8385   19.6814 H         1 UNK         0.0000 
     44 H44         2.9897   50.4858   20.8483 H         1 UNK         0.0000 
@<TRIPOS>BOND
     1    1    6 ar   
     2    1    2 ar   
     3    1   30 1    
     4    2    3 ar   
     5    2   31 1    
     6    3    4 ar   
     7    3   20 1    
     8    4    5 ar   
     9    4   32 1    
    10    5    6 ar   
    11    5    7 1    
    12    6   33 1    
    13    7    8 2    
    14    7    9 2    
    15    7   10 1    
    16   10   11 1    
    17   10   34 1    
    18   11   16 ar   
    19   11   12 ar   
    20   12   13 ar   
    21   12   35 1    
    22   13   14 ar   
    23   13   36 1    
    24   14   19 1    
    25   14   15 ar   
    26   15   16 ar   
    27   15   17 1    
    28   16   37 1    
    29   17   18 1    
    30   18   19 1    
    31   18   38 1    
    32   18   39 1    
    33   20   21 2    
    34   20   22 am   BACKBONE|DICT|INTERRES
    35   22   23 1    
    36   22   40 1    
    37   23   28 ar   
    38   23   24 ar   
    39   24   25 ar   
    40   24   41 1    
    41   25   26 ar   
    42   25   42 1    
    43   26   27 ar   
    44   26   29 1    
    45   27   28 ar   
    46   27   43 1    
    47   28   44 1    
@<TRIPOS>SUBSTRUCTURE
     1 UNK         1 GROUP             0       ****    0 ROOT    
