@<TRIPOS>MOLECULE
ZINC12913118_5331
48   50    1
SMALL
USER_CHARGES


@<TRIPOS>ATOM
      1 C1          6.8164   54.2756   23.5819 C.3       1 UNK         0.0000 
      2 C2          5.5260   54.1360   24.3752 C.ar      1 UNK         0.0000 
      3 C3          5.6146   54.1260   25.7718 C.ar      1 UNK         0.0000 
      4 C4          4.4650   54.0937   26.5578 C.ar      1 UNK         0.0000 
      5 C5          3.2105   54.0703   25.9518 C.ar      1 UNK         0.0000 
      6 C6          3.1045   54.0802   24.5611 C.ar      1 UNK         0.0000 
      7 C7          4.2544   54.0973   23.7651 C.ar      1 UNK         0.0000 
      8 N8          4.0672   54.1834   22.3792 N.am      1 UNK         0.0000 
      9 C9          4.5285   53.3323   21.4445 C.2       1 UNK         0.0000 
     10 O10         5.1047   52.2704   21.6818 O.2       1 UNK         0.0000 
     11 C11         4.3008   53.7986   20.0021 C.3       1 UNK         0.0000 
     12 C12         2.5630   52.1606   19.0437 C.3       1 UNK         0.0000 
     13 C13         2.1467   51.6294   20.4003 C.2       1 UNK         0.0000 
     14 C14         1.2967   52.0836   21.3991 C.2       1 UNK         0.0000 
     15 C15         1.3807   51.1703   22.4526 C.2       1 UNK         0.0000 
     16 C16         2.2758   50.1936   22.0502 C.2       1 UNK         0.0000 
     17 O17         2.7334   50.4700   20.8023 O.3       1 UNK         0.0000 
     18 C18         4.5498   52.9272   17.6077 C.3       1 UNK         0.0000 
     19 H19         4.2152   52.0821   17.0051 H         1 UNK         0.0000 
     20 C20         3.9869   54.2524   17.0090 C.3       1 UNK         0.0000 
     21 C21         5.0055   54.8185   16.0072 C.3       1 UNK         0.0000 
     22 S22         6.6349   54.5471   16.8792 S.o2      1 UNK         0.0000 
     23 O23         7.7156   54.3679   15.9069 O.2       1 UNK         0.0000 
     24 O24         6.7603   55.5123   17.9761 O.2       1 UNK         0.0000 
     25 C25         6.0995   52.8968   17.5701 C.3       1 UNK         0.0000 
     26 I26         4.6310   54.0985   28.6429 I         1 UNK         0.0000 
     27 H27         6.6667   54.7659   22.6200 H         1 UNK         0.0000 
     28 H28         7.5041   54.9159   24.1304 H         1 UNK         0.0000 
     29 H29         7.2889   53.3052   23.4244 H         1 UNK         0.0000 
     30 H30         6.5802   54.1542   26.2546 H         1 UNK         0.0000 
     31 H31         2.3183   54.0500   26.5595 H         1 UNK         0.0000 
     32 H32         2.1239   54.0733   24.1070 H         1 UNK         0.0000 
     33 H33         3.4999   54.9531   22.0590 H         1 UNK         0.0000 
     34 H34         3.5048   54.5309   19.8920 H         1 UNK         0.0000 
     35 H35         5.2301   54.2638   19.6772 H         1 UNK         0.0000 
     36 H36         1.9725   53.0118   18.7012 H         1 UNK         0.0000 
     37 H37         2.5125   51.3741   18.2879 H         1 UNK         0.0000 
     38 H38         0.7044   52.9857   21.3695 H         1 UNK         0.0000 
     39 H39         0.8601   51.2170   23.3981 H         1 UNK         0.0000 
     40 H40         2.6660   49.2997   22.5179 H         1 UNK         0.0000 
     41 H41         3.0034   54.1082   16.5575 H         1 UNK         0.0000 
     42 H42         3.8691   55.0239   17.7690 H         1 UNK         0.0000 
     43 H43         5.0111   54.2067   15.1048 H         1 UNK         0.0000 
     44 H44         4.9013   55.8654   15.7201 H         1 UNK         0.0000 
     45 H45         6.6437   52.6630   18.4816 H         1 UNK         0.0000 
     46 H46         6.3906   52.1307   16.8471 H         1 UNK         0.0000 
     47 N47         4.0407   52.6459   19.0549 N.4       1 UNK         0.0000 
     48 H48         4.5945   51.8334   19.3178 H         1 UNK         0.0000 
@<TRIPOS>BOND
     1    1    2 1    
     2    1   27 1    
     3    1   28 1    
     4    1   29 1    
     5    2    7 ar   
     6    2    3 ar   
     7    3    4 ar   
     8    3   30 1    
     9    4    5 ar   
    10    4   26 1    
    11    5    6 ar   
    12    5   31 1    
    13    6    7 ar   
    14    6   32 1    
    15    7    8 1    
    16    8    9 am   BACKBONE|DICT|INTERRES
    17    8   33 1    
    18    9   10 2    
    19    9   11 1    
    20   11   34 1    
    21   11   35 1    
    22   11   47 1    
    23   12   13 1    
    24   12   36 1    
    25   12   37 1    
    26   12   47 1    
    27   13   17 1    
    28   13   14 2    
    29   14   15 1    
    30   14   38 1    
    31   15   16 2    
    32   15   39 1    
    33   16   17 1    
    34   16   40 1    
    35   18   19 1    
    36   18   25 1    
    37   18   20 1    
    38   18   47 1    
    39   20   21 1    
    40   20   41 1    
    41   20   42 1    
    42   21   22 1    
    43   21   43 1    
    44   21   44 1    
    45   22   23 2    
    46   22   24 2    
    47   22   25 1    
    48   25   45 1    
    49   25   46 1    
    50   47   48 1    
@<TRIPOS>SUBSTRUCTURE
     1 UNK         1 GROUP             0       ****    0 ROOT    
