@<TRIPOS>MOLECULE
ZINC36029066_598
64   67    1
SMALL
USER_CHARGES


@<TRIPOS>ATOM
      1 C1         -4.4613   49.1241   25.7946 C.3       1 UNK         0.0000 
      2 C2         -4.5076   50.2594   26.8387 C.3       1 UNK         0.0000 
      3 C3         -4.5375   49.7380   28.2931 C.3       1 UNK         0.0000 
      4 C4         -3.4231   51.3393   26.6150 C.3       1 UNK         0.0000 
      5 C5         -1.9784   50.8798   26.9385 C.3       1 UNK         0.0000 
      6 H6         -1.9247   50.4965   27.9548 H         1 UNK         0.0000 
      7 C7         -0.9200   51.9711   26.8778 C.2       1 UNK         0.0000 
      8 O8         -0.8950   52.8980   27.6753 O.2       1 UNK         0.0000 
      9 N9         -0.0598   51.7243   25.8647 N.am      1 UNK         0.0000 
     10 C10        -0.4198   50.5090   25.1152 C.3       1 UNK         0.0000 
     11 N11        -1.3814   49.8144   26.0815 N.4       1 UNK         0.0000 
     12 C12        -1.1768   50.7947   23.7881 C.3       1 UNK         0.0000 
     13 C13        -0.2755   51.2615   22.6216 C.3       1 UNK         0.0000 
     14 N14         0.8581   50.3177   22.4939 N.pl3     1 UNK         0.0000 
     15 C15         1.6887   50.0296   23.6811 C.3       1 UNK         0.0000 
     16 C16         0.7456   49.5369   24.8087 C.3       1 UNK         0.0000 
     17 C17         1.2198   49.8099   21.2725 C.2       1 UNK         0.0000 
     18 S18         0.1608   49.0423   20.2351 S.2       1 UNK         0.0000 
     19 N19         2.5241   49.9899   20.9238 N.pl3     1 UNK         0.0000 
     20 C20         3.0578   51.1591   20.3707 C.ar      1 UNK         0.0000 
     21 C21         4.1583   51.7407   21.0032 C.ar      1 UNK         0.0000 
     22 C22         4.7003   52.9197   20.4985 C.ar      1 UNK         0.0000 
     23 C23         4.1639   53.4937   19.3484 C.ar      1 UNK         0.0000 
     24 C24         3.0817   52.9027   18.7010 C.ar      1 UNK         0.0000 
     25 C25         2.5182   51.7372   19.2155 C.ar      1 UNK         0.0000 
     26 F26         4.6939   54.6393   18.8628 F         1 UNK         0.0000 
     27 C27         0.9284   52.7503   25.4623 C.3       1 UNK         0.0000 
     28 C28         2.0992   53.0854   26.3980 C.ar      1 UNK         0.0000 
     29 C29         3.0673   53.9791   25.9267 C.ar      1 UNK         0.0000 
     30 C30         4.1541   54.3310   26.7233 C.ar      1 UNK         0.0000 
     31 C31         4.2757   53.7902   28.0005 C.ar      1 UNK         0.0000 
     32 C32         3.3231   52.8969   28.4830 C.ar      1 UNK         0.0000 
     33 C33         2.2410   52.5384   27.6824 C.ar      1 UNK         0.0000 
     34 H34        -3.9968   48.2185   26.1873 H         1 UNK         0.0000 
     35 H35        -5.4706   48.8562   25.4801 H         1 UNK         0.0000 
     36 H36        -3.9188   49.4171   24.8948 H         1 UNK         0.0000 
     37 H37        -5.4564   50.7754   26.6770 H         1 UNK         0.0000 
     38 H38        -4.1011   48.7427   28.3893 H         1 UNK         0.0000 
     39 H39        -3.9921   50.3921   28.9760 H         1 UNK         0.0000 
     40 H40        -5.5608   49.6820   28.6615 H         1 UNK         0.0000 
     41 H41        -3.6688   52.1927   27.2510 H         1 UNK         0.0000 
     42 H42        -3.4920   51.7197   25.5944 H         1 UNK         0.0000 
     43 H43        -0.8968   49.1485   26.6813 H         1 UNK         0.0000 
     44 H44        -1.7032   49.8971   23.4581 H         1 UNK         0.0000 
     45 H45        -1.9601   51.5372   23.9419 H         1 UNK         0.0000 
     46 H46        -0.8579   51.3416   21.7021 H         1 UNK         0.0000 
     47 H47         0.1351   52.2529   22.8110 H         1 UNK         0.0000 
     48 H48         2.4606   49.2967   23.4682 H         1 UNK         0.0000 
     49 H49         2.2388   50.9230   23.9560 H         1 UNK         0.0000 
     50 H50         1.3109   49.3077   25.7137 H         1 UNK         0.0000 
     51 H51         0.3475   48.5662   24.5033 H         1 UNK         0.0000 
     52 H52         3.1954   49.3704   21.3494 H         1 UNK         0.0000 
     53 H53         4.5869   51.2980   21.8891 H         1 UNK         0.0000 
     54 H54         5.5325   53.3925   20.9945 H         1 UNK         0.0000 
     55 H55         2.6765   53.3541   17.8077 H         1 UNK         0.0000 
     56 H56         1.6816   51.2815   18.7069 H         1 UNK         0.0000 
     57 H57         0.3935   53.6805   25.2816 H         1 UNK         0.0000 
     58 H58         1.3368   52.5243   24.4865 H         1 UNK         0.0000 
     59 H59         2.9803   54.4057   24.9371 H         1 UNK         0.0000 
     60 H60         4.8981   55.0196   26.3522 H         1 UNK         0.0000 
     61 H61         5.1199   54.0616   28.6185 H         1 UNK         0.0000 
     62 H62         3.4271   52.4761   29.4711 H         1 UNK         0.0000 
     63 H63         1.5275   51.8300   28.0735 H         1 UNK         0.0000 
     64 H64        -2.0835   49.2775   25.5958 H         1 UNK         0.0000 
@<TRIPOS>BOND
     1    1    2 1    
     2    1   34 1    
     3    1   35 1    
     4    1   36 1    
     5    2    3 1    
     6    2    4 1    
     7    2   37 1    
     8    3   38 1    
     9    3   39 1    
    10    3   40 1    
    11    4    5 1    
    12    4   41 1    
    13    4   42 1    
    14    5    6 1    
    15    5   11 1    
    16    5    7 1    
    17    7    8 2    
    18    7    9 am   BACKBONE|DICT|INTERRES
    19    9   10 1    
    20    9   27 1    
    21   10   16 1    
    22   10   11 1    
    23   10   12 1    
    24   11   43 1    
    25   11   64 1    
    26   12   13 1    
    27   12   44 1    
    28   12   45 1    
    29   13   14 1    
    30   13   46 1    
    31   13   47 1    
    32   14   15 1    
    33   14   17 1    
    34   15   16 1    
    35   15   48 1    
    36   15   49 1    
    37   16   50 1    
    38   16   51 1    
    39   17   18 2    
    40   17   19 1    
    41   19   20 1    
    42   19   52 1    
    43   20   25 ar   
    44   20   21 ar   
    45   21   22 ar   
    46   21   53 1    
    47   22   23 ar   
    48   22   54 1    
    49   23   24 ar   
    50   23   26 1    
    51   24   25 ar   
    52   24   55 1    
    53   25   56 1    
    54   27   28 1    
    55   27   57 1    
    56   27   58 1    
    57   28   33 ar   
    58   28   29 ar   
    59   29   30 ar   
    60   29   59 1    
    61   30   31 ar   
    62   30   60 1    
    63   31   32 ar   
    64   31   61 1    
    65   32   33 ar   
    66   32   62 1    
    67   33   63 1    
@<TRIPOS>SUBSTRUCTURE
     1 UNK         1 GROUP             0       ****    0 ROOT    
