ZINC38051342_1897
                    3D
 Schrodinger Suite 2024-2.
 35 37  0  0  1  0            999 V2000
    0.6848   52.3926   22.0310 C   0  0  0  0  0  0
   -0.1246   52.0518   20.9508 C   0  0  0  0  0  0
   -1.4153   51.5788   21.1758 C   0  0  0  0  0  0
   -1.8970   51.4190   22.4733 C   0  0  0  0  0  0
   -1.0888   51.7521   23.5578 C   0  0  0  0  0  0
    0.1921   52.2637   23.3387 C   0  0  0  0  0  0
    0.9547   52.6039   24.4666 N   0  0  0  0  0  0
    1.7862   53.6677   24.5875 C   0  0  0  0  0  0
    1.9081   54.4968   23.6840 O   0  0  0  0  0  0
    2.5517   53.6906   25.7257 N   0  0  0  0  0  0
    1.8757   53.2673   26.9806 C   0  0  0  0  0  0
    2.2354   54.2694   28.0849 C   0  0  0  0  0  0
    3.9647   54.0418   28.5287 S   0  0  0  0  0  0
    4.6714   54.2656   26.9181 C   0  0  0  0  0  0
    3.9465   54.0585   25.7141 C   0  0  0  0  0  0
    4.6728   54.1710   24.5033 C   0  0  0  0  0  0
    6.0233   54.4962   24.4800 C   0  0  0  0  0  0
    6.7019   54.6881   25.6695 C   0  0  0  0  0  0
    6.0335   54.5718   26.8811 C   0  0  0  0  0  0
    6.7044   54.6167   23.2722 N   0  0  0  0  0  0
   -2.2118   51.2794   20.1257 F   0  0  0  0  0  0
    1.6821   52.7652   21.8430 H   0  0  0  0  0  0
    0.2445   52.1667   19.9418 H   0  0  0  0  0  0
   -2.8950   51.0404   22.6360 H   0  0  0  0  0  0
   -1.4703   51.6296   24.5618 H   0  0  0  0  0  0
    0.8394   52.0085   25.2720 H   0  0  0  0  0  0
    0.7886   53.2083   26.8974 H   0  0  0  0  0  0
    2.2658   52.2960   27.2904 H   0  0  0  0  0  0
    2.0819   55.3035   27.7727 H   0  0  0  0  0  0
    1.6340   54.1027   28.9790 H   0  0  0  0  0  0
    4.2089   53.9887   23.5470 H   0  0  0  0  0  0
    7.7547   54.8967   25.6427 H   0  0  0  0  0  0
    6.5817   54.7055   27.8033 H   0  0  0  0  0  0
    6.2020   54.5054   22.4039 H   0  0  0  0  0  0
    7.6852   54.8767   23.2819 H   0  0  0  0  0  0
  1  6  2  0  0  0
  1  2  1  0  0  0
  1 22  1  0  0  0
  2  3  2  0  0  0
  2 23  1  0  0  0
  3  4  1  0  0  0
  3 21  1  0  0  0
  4  5  2  0  0  0
  4 24  1  0  0  0
  5  6  1  0  0  0
  5 25  1  0  0  0
  6  7  1  0  0  0
  7  8  1  0  0  0
  7 26  1  0  0  0
  8  9  2  0  0  0
  8 10  1  0  0  0
 10 15  1  0  0  0
 10 11  1  0  0  0
 11 12  1  0  0  0
 11 27  1  0  0  0
 11 28  1  0  0  0
 12 13  1  0  0  0
 12 29  1  0  0  0
 12 30  1  0  0  0
 13 14  1  0  0  0
 14 19  2  0  0  0
 14 15  1  0  0  0
 15 16  2  0  0  0
 16 17  1  0  0  0
 16 31  1  0  0  0
 17 18  2  0  0  0
 17 20  1  0  0  0
 18 19  1  0  0  0
 18 32  1  0  0  0
 19 33  1  0  0  0
 20 34  1  0  0  0
 20 35  1  0  0  0
M  END
> <i_i_glide_confnum>
3

> <i_i_glide_lignum>
1898

> <i_i_glide_posenum>
16

> <i_i_glide_rotatable_bonds>
3

> <i_m_Source_File_Index>
1147

> <b_m_subgroup_collapsed>
0

> <r_i_docking_score>
-6.08904

> <r_i_glide_ecoul>
-2.06075

> <r_i_glide_eff_state_penalty>
0

> <r_i_glide_einternal>
0.847736

> <r_i_glide_emodel>
-50.8204

> <r_i_glide_energy>
-37.1755

> <r_i_glide_erotb>
0.600686

> <r_i_glide_esite>
-0.0206101

> <r_i_glide_evdw>
-35.1148

> <r_i_glide_gscore>
-6.08904

> <r_i_glide_hbond>
-0.314898

> <r_i_glide_ligand_efficiency>
-0.289954

> <r_i_glide_ligand_efficiency_ln>
-1.5055

> <r_i_glide_ligand_efficiency_sa>
-0.799962

> <r_i_glide_lipo>
-2.37579

> <r_i_glide_metal>
0

> <r_i_glide_rewards>
-1.91358

> <s_i_glide_gridfile>
wee1_glide-grid

> <s_m_Source_File>
wee1_decoys_glide_SP.sdf

> <s_m_Source_Path>
/Users/zhangxujun/Desktop

> <s_m_entry_id>
1422

> <s_m_entry_name>
wee1_decoys_glide_SP.1147

> <s_m_subgroup_title>
wee1_decoys_glide_SP

> <s_m_subgroupid>
wee1_decoys_glide_SP


$$$$
