ZINC35886246_6001
                    3D
 Schrodinger Suite 2024-2.
 65 68  0  0  1  0            999 V2000
    1.8808   55.2303   29.7026 C   0  0  0  0  0  0
    1.9685   53.6838   29.7403 C   0  0  1  0  0  0
    1.8695   53.4025   30.7910 H   0  0  0  0  0  0
    0.7885   52.9619   29.0435 C   0  0  0  0  0  0
   -0.1963   52.6510   29.7182 O   0  0  0  0  0  0
    0.8980   52.7487   27.6989 N   0  0  0  0  0  0
    1.7420   53.6081   26.8480 C   0  0  0  0  0  0
    3.2505   53.7556   27.0319 C   0  0  0  0  0  0
    4.0205   54.1164   25.9186 C   0  0  0  0  0  0
    5.4155   54.2572   25.9927 C   0  0  0  0  0  0
    6.0375   54.0643   27.2248 C   0  0  0  0  0  0
    5.2845   53.6946   28.3377 C   0  0  0  0  0  0
    3.9022   53.5171   28.2522 C   0  0  0  0  0  0
    3.2465   53.1423   29.4012 O   0  0  0  0  0  0
    6.2307   54.6123   24.8964 N   0  0  0  0  0  0
    5.9538   54.4963   23.5795 C   0  0  0  0  0  0
    4.9422   53.9610   23.1297 O   0  0  0  0  0  0
    6.9225   55.0580   22.8255 N   0  0  0  0  0  0
    6.9407   55.2971   21.4365 C   0  0  0  0  0  0
    8.1640   55.6967   20.8938 C   0  0  0  0  0  0
    8.2822   55.9737   19.5367 C   0  0  0  0  0  0
    7.1670   55.8682   18.7021 C   0  0  0  0  0  0
    5.9382   55.4756   19.2394 C   0  0  0  0  0  0
    5.8221   55.1906   20.5961 C   0  0  0  0  0  0
    7.2946   56.1854   17.2117 C   0  0  0  0  0  0
    7.0046   54.9522   16.3355 C   0  0  0  0  0  0
    6.4274   57.3934   16.8052 C   0  0  0  0  0  0
   -0.2713   52.0881   27.0596 C   0  0  0  0  0  0
    0.0075   51.2437   25.8193 C   0  0  0  0  0  0
    0.0888   49.8520   25.9275 C   0  0  0  0  0  0
    0.3044   49.0680   24.7958 C   0  0  0  0  0  0
    0.4420   49.6677   23.5456 C   0  0  0  0  0  0
    0.3315   51.0576   23.4109 C   0  0  0  0  0  0
    0.0892   51.8337   24.5521 C   0  0  0  0  0  0
    0.4873   51.7245   22.0446 C   0  0  0  0  0  0
   -0.7211   51.9337   21.5159 F   0  0  0  0  0  0
    1.1092   52.8979   22.1649 F   0  0  0  0  0  0
    1.1950   50.9656   21.2035 F   0  0  0  0  0  0
    0.9288   55.5881   30.0972 H   0  0  0  0  0  0
    2.6714   55.6720   30.3047 H   0  0  0  0  0  0
    1.9930   55.6447   28.7028 H   0  0  0  0  0  0
    1.3055   54.6010   26.8813 H   0  0  0  0  0  0
    1.6346   53.2820   25.8190 H   0  0  0  0  0  0
    3.5037   54.2984   24.9887 H   0  0  0  0  0  0
    7.1057   54.1779   27.3317 H   0  0  0  0  0  0
    5.7811   53.5383   29.2811 H   0  0  0  0  0  0
    7.1551   54.9318   25.1342 H   0  0  0  0  0  0
    7.7874   55.2984   23.2906 H   0  0  0  0  0  0
    9.0391   55.7906   21.5196 H   0  0  0  0  0  0
    9.2423   56.2749   19.1410 H   0  0  0  0  0  0
    5.0678   55.3877   18.6033 H   0  0  0  0  0  0
    4.8505   54.9043   20.9673 H   0  0  0  0  0  0
    8.3319   56.4678   17.0178 H   0  0  0  0  0  0
    7.6365   54.1104   16.6189 H   0  0  0  0  0  0
    7.1988   55.1636   15.2846 H   0  0  0  0  0  0
    5.9671   54.6285   16.4184 H   0  0  0  0  0  0
    6.6502   58.2674   17.4202 H   0  0  0  0  0  0
    6.6056   57.6740   15.7660 H   0  0  0  0  0  0
    5.3623   57.1824   16.9090 H   0  0  0  0  0  0
   -0.7967   51.4375   27.7628 H   0  0  0  0  0  0
   -0.9961   52.8576   26.7899 H   0  0  0  0  0  0
   -0.0239   49.3631   26.8843 H   0  0  0  0  0  0
    0.3831   47.9952   24.9002 H   0  0  0  0  0  0
    0.6253   49.0447   22.6816 H   0  0  0  0  0  0
   -0.0219   52.9046   24.4534 H   0  0  0  0  0  0
  1  2  1  0  0  0
  1 39  1  0  0  0
  1 40  1  0  0  0
  1 41  1  0  0  0
  2  3  1  0  0  0
  2 14  1  0  0  0
  2  4  1  0  0  0
  4  5  2  0  0  0
  4  6  1  0  0  0
  6  7  1  0  0  0
  6 28  1  0  0  0
  7  8  1  0  0  0
  7 42  1  0  0  0
  7 43  1  0  0  0
  8 13  2  0  0  0
  8  9  1  0  0  0
  9 10  2  0  0  0
  9 44  1  0  0  0
 10 11  1  0  0  0
 10 15  1  0  0  0
 11 12  2  0  0  0
 11 45  1  0  0  0
 12 13  1  0  0  0
 12 46  1  0  0  0
 13 14  1  0  0  0
 15 16  1  0  0  0
 15 47  1  0  0  0
 16 17  2  0  0  0
 16 18  1  0  0  0
 18 19  1  0  0  0
 18 48  1  0  0  0
 19 24  2  0  0  0
 19 20  1  0  0  0
 20 21  2  0  0  0
 20 49  1  0  0  0
 21 22  1  0  0  0
 21 50  1  0  0  0
 22 23  2  0  0  0
 22 25  1  0  0  0
 23 24  1  0  0  0
 23 51  1  0  0  0
 24 52  1  0  0  0
 25 26  1  0  0  0
 25 27  1  0  0  0
 25 53  1  0  0  0
 26 54  1  0  0  0
 26 55  1  0  0  0
 26 56  1  0  0  0
 27 57  1  0  0  0
 27 58  1  0  0  0
 27 59  1  0  0  0
 28 29  1  0  0  0
 28 60  1  0  0  0
 28 61  1  0  0  0
 29 34  2  0  0  0
 29 30  1  0  0  0
 30 31  2  0  0  0
 30 62  1  0  0  0
 31 32  1  0  0  0
 31 63  1  0  0  0
 32 33  2  0  0  0
 32 64  1  0  0  0
 33 34  1  0  0  0
 33 35  1  0  0  0
 34 65  1  0  0  0
 35 36  1  0  0  0
 35 37  1  0  0  0
 35 38  1  0  0  0
M  END
> <i_i_glide_confnum>
78

> <i_i_glide_lignum>
6002

> <i_i_glide_posenum>
337

> <i_i_glide_rotatable_bonds>
8

> <i_m_Source_File_Index>
2550

> <b_m_subgroup_collapsed>
0

> <r_i_docking_score>
-6.7457

> <r_i_glide_ecoul>
-3.13813

> <r_i_glide_eff_state_penalty>
0

> <r_i_glide_einternal>
5.66139

> <r_i_glide_emodel>
-73.1542

> <r_i_glide_energy>
-54.6797

> <r_i_glide_erotb>
0.469916

> <r_i_glide_esite>
-0.00654124

> <r_i_glide_evdw>
-51.5416

> <r_i_glide_gscore>
-6.7457

> <r_i_glide_hbond>
-0.32

> <r_i_glide_ligand_efficiency>
-0.182316

> <r_i_glide_ligand_efficiency_ln>
-1.46298

> <r_i_glide_ligand_efficiency_sa>
-0.607518

> <r_i_glide_lipo>
-2.9658

> <r_i_glide_metal>
0

> <r_i_glide_rewards>
-0.875474

> <s_i_glide_gridfile>
wee1_glide-grid

> <s_m_Source_File>
wee1_decoys_glide_SP.sdf

> <s_m_Source_Path>
/Users/zhangxujun/Desktop

> <s_m_entry_id>
2825

> <s_m_entry_name>
wee1_decoys_glide_SP.2550

> <s_m_subgroup_title>
wee1_decoys_glide_SP

> <s_m_subgroupid>
wee1_decoys_glide_SP


$$$$
