@<TRIPOS>MOLECULE
ZINC63236996_3498
60   65    1
SMALL
USER_CHARGES


@<TRIPOS>ATOM
      1 C1          0.2747   52.5440   17.6268 C.ar      1 UNK         0.0000 
      2 C2          1.0535   53.3843   16.8370 C.ar      1 UNK         0.0000 
      3 C3          2.3753   53.6357   17.1934 C.ar      1 UNK         0.0000 
      4 C4          2.9278   53.0485   18.3347 C.ar      1 UNK         0.0000 
      5 C5          2.1505   52.1929   19.1463 C.ar      1 UNK         0.0000 
      6 C6          0.8167   51.9528   18.7671 C.ar      1 UNK         0.0000 
      7 C7          2.7495   51.5432   20.4108 C.3       1 UNK         0.0000 
      8 H8          3.7815   51.3128   20.1392 H         1 UNK         0.0000 
      9 C9          2.1301   50.1797   20.8456 C.3       1 UNK         0.0000 
     10 N10         0.8552   50.2880   21.5736 N.3       1 UNK         0.0000 
     11 C11         0.8895   51.1718   22.7438 C.3       1 UNK         0.0000 
     12 H12         1.5976   50.7252   23.4470 H         1 UNK         0.0000 
     13 C13         1.4102   52.5890   22.3607 C.3       1 UNK         0.0000 
     14 H14         0.6988   53.1463   21.7520 H         1 UNK         0.0000 
     15 C15         2.7250   52.4649   21.6275 C.2       1 UNK         0.0000 
     16 C16         3.6679   53.1361   22.3061 C.2       1 UNK         0.0000 
     17 C17         5.1047   53.2829   22.0753 C.2       1 UNK         0.0000 
     18 C18         5.8855   53.9434   22.9566 C.2       1 UNK         0.0000 
     19 C19         5.2512   54.4964   24.1425 C.2       1 UNK         0.0000 
     20 C20         3.9136   54.3886   24.3628 C.2       1 UNK         0.0000 
     21 C21         3.1014   53.7014   23.4520 C.2       1 UNK         0.0000 
     22 N22         1.8140   53.4445   23.5015 N.pl3     1 UNK         0.0000 
     23 C23        -0.4417   51.1604   23.5086 C.ar      1 UNK         0.0000 
     24 C24        -1.2314   52.3119   23.6889 C.ar      1 UNK         0.0000 
     25 C25        -2.4260   52.2488   24.4065 C.ar      1 UNK         0.0000 
     26 C26        -2.8521   51.0382   24.9509 C.ar      1 UNK         0.0000 
     27 C27        -2.0857   49.8871   24.7686 C.ar      1 UNK         0.0000 
     28 C28        -0.8804   49.9485   24.0634 C.ar      1 UNK         0.0000 
     29 N29        -2.5418   48.6785   25.2950 N.am      1 UNK         0.0000 
     30 C30        -3.2965   47.8057   24.5916 C.2       1 UNK         0.0000 
     31 O31        -3.4916   47.9164   23.3742 O.2       1 UNK         0.0000 
     32 C32        -3.9538   46.6830   25.3708 C.ar      1 UNK         0.0000 
     33 C33        -4.8868   45.8487   24.7378 C.ar      1 UNK         0.0000 
     34 C34        -5.5313   44.8341   25.4436 C.ar      1 UNK         0.0000 
     35 C35        -5.2511   44.6463   26.7938 C.ar      1 UNK         0.0000 
     36 C36        -4.3304   45.4649   27.4337 C.ar      1 UNK         0.0000 
     37 C37        -3.6779   46.4704   26.7309 C.ar      1 UNK         0.0000 
     38 Cl38       -6.0381   43.3875   27.6768 Cl        1 UNK         0.0000 
     39 Cl39        4.5754   53.4247   18.7025 Cl        1 UNK         0.0000 
     40 H40        -0.7503   52.3443   17.3502 H         1 UNK         0.0000 
     41 H41         0.6372   53.8389   15.9492 H         1 UNK         0.0000 
     42 H42         2.9814   54.2856   16.5782 H         1 UNK         0.0000 
     43 H43         0.1709   51.3041   19.3360 H         1 UNK         0.0000 
     44 H44         2.0052   49.5378   19.9699 H         1 UNK         0.0000 
     45 H45         2.8456   49.6857   21.5059 H         1 UNK         0.0000 
     46 H46         0.0818   50.5133   20.9665 H         1 UNK         0.0000 
     47 H47         5.5614   52.8669   21.1897 H         1 UNK         0.0000 
     48 H48         6.9470   54.0631   22.7916 H         1 UNK         0.0000 
     49 H49         5.8619   55.0204   24.8671 H         1 UNK         0.0000 
     50 H50         3.4973   54.8269   25.2583 H         1 UNK         0.0000 
     51 H51        -0.9411   53.2727   23.2887 H         1 UNK         0.0000 
     52 H52        -3.0240   53.1374   24.5432 H         1 UNK         0.0000 
     53 H53        -3.7840   50.9917   25.4976 H         1 UNK         0.0000 
     54 H54        -0.2856   49.0552   23.9358 H         1 UNK         0.0000 
     55 H55        -2.3755   48.5139   26.2825 H         1 UNK         0.0000 
     56 H56        -5.1345   45.9873   23.6941 H         1 UNK         0.0000 
     57 H57        -6.2542   44.2038   24.9508 H         1 UNK         0.0000 
     58 H58        -4.0888   45.2988   28.4726 H         1 UNK         0.0000 
     59 H59        -2.9648   47.0724   27.2732 H         1 UNK         0.0000 
     60 H60         1.1873   53.7316   24.2484 H         1 UNK         0.0000 
@<TRIPOS>BOND
     1    1    6 ar   
     2    1    2 ar   
     3    1   40 1    
     4    2    3 ar   
     5    2   41 1    
     6    3    4 ar   
     7    3   42 1    
     8    4    5 ar   
     9    4   39 1    
    10    5    6 ar   
    11    5    7 1    
    12    6   43 1    
    13    7    8 1    
    14    7   15 1    
    15    7    9 1    
    16    9   10 1    
    17    9   44 1    
    18    9   45 1    
    19   10   11 1    
    20   10   46 1    
    21   11   12 1    
    22   11   13 1    
    23   11   23 1    
    24   13   14 1    
    25   13   22 1    
    26   13   15 1    
    27   15   16 2    
    28   16   21 1    
    29   16   17 1    
    30   17   18 2    
    31   17   47 1    
    32   18   19 1    
    33   18   48 1    
    34   19   20 2    
    35   19   49 1    
    36   20   21 1    
    37   20   50 1    
    38   21   22 2    
    39   22   60 1    
    40   23   28 ar   
    41   23   24 ar   
    42   24   25 ar   
    43   24   51 1    
    44   25   26 ar   
    45   25   52 1    
    46   26   27 ar   
    47   26   53 1    
    48   27   28 ar   
    49   27   29 1    
    50   28   54 1    
    51   29   30 am   BACKBONE|DICT|INTERRES
    52   29   55 1    
    53   30   31 2    
    54   30   32 1    
    55   32   37 ar   
    56   32   33 ar   
    57   33   34 ar   
    58   33   56 1    
    59   34   35 ar   
    60   34   57 1    
    61   35   36 ar   
    62   35   38 1    
    63   36   37 ar   
    64   36   58 1    
    65   37   59 1    
@<TRIPOS>SUBSTRUCTURE
     1 UNK         1 GROUP             0       ****    0 ROOT    
