@<TRIPOS>MOLECULE
ZINC09012063_3009
67   69    1
SMALL
USER_CHARGES


@<TRIPOS>ATOM
      1 C1          4.0970   54.2543   29.5083 C.3       1 UNK         0.0000 
      2 C2          5.3830   54.4024   28.6867 C.3       1 UNK         0.0000 
      3 O3          5.0131   54.4121   27.3186 O.3       1 UNK         0.0000 
      4 C4          5.9131   54.6346   26.3308 C.2       1 UNK         0.0000 
      5 O5          7.1037   54.8902   26.5289 O.2       1 UNK         0.0000 
      6 C6          5.3116   54.4876   24.9658 C.ar      1 UNK         0.0000 
      7 C7          6.1413   54.4837   23.8351 C.ar      1 UNK         0.0000 
      8 C8          5.6066   54.2560   22.5679 C.ar      1 UNK         0.0000 
      9 C9          4.2300   54.0421   22.4188 C.ar      1 UNK         0.0000 
     10 C10         3.3962   54.0965   23.5337 C.ar      1 UNK         0.0000 
     11 C11         3.9294   54.3141   24.7970 C.ar      1 UNK         0.0000 
     12 N12         3.5853   53.6934   21.2242 N.am      1 UNK         0.0000 
     13 C13         4.0590   53.4556   19.9814 C.2       1 UNK         0.0000 
     14 O14         5.2179   53.7181   19.6610 O.2       1 UNK         0.0000 
     15 C15         3.0815   52.8205   19.0732 C.2       1 UNK         0.0000 
     16 C16         3.3587   52.5602   17.7575 C.2       1 UNK         0.0000 
     17 N17         2.4319   51.9229   16.9546 N.pl3     1 UNK         0.0000 
     18 C18         1.1453   51.6273   17.3367 C.2       1 UNK         0.0000 
     19 C19         0.7128   51.9180   18.5776 C.2       1 UNK         0.0000 
     20 C20         1.6809   52.4081   19.6583 C.3       1 UNK         0.0000 
     21 H21         1.1960   53.2967   20.0357 H         1 UNK         0.0000 
     22 C22         1.7387   51.4359   20.8254 C.2       1 UNK         0.0000 
     23 C23         2.6289   50.4514   21.2232 C.2       1 UNK         0.0000 
     24 C24         2.2142   50.0186   22.4814 C.2       1 UNK         0.0000 
     25 C25         1.0524   50.7078   22.7718 C.2       1 UNK         0.0000 
     26 O26         0.7674   51.5738   21.7683 O.3       1 UNK         0.0000 
     27 C27        -0.6492   51.6943   18.9501 C.1       1 UNK         0.0000 
     28 N28        -1.7541   51.5738   19.2762 N.1       1 UNK         0.0000 
     29 S29         0.1601   50.8871   16.0493 S.3       1 UNK         0.0000 
     30 C30         1.1722   49.4612   15.5341 C.3       1 UNK         0.0000 
     31 C31         1.8546   49.6275   14.1753 C.2       1 UNK         0.0000 
     32 O32         1.2501   50.1475   13.2378 O.2       1 UNK         0.0000 
     33 N33         3.1056   49.1417   14.0816 N.am      1 UNK         0.0000 
     34 C34         3.9784   49.0970   12.8995 C.3       1 UNK         0.0000 
     35 C35         5.2455   48.3051   13.2778 C.3       1 UNK         0.0000 
     36 C36         4.3928   50.5251   12.4789 C.3       1 UNK         0.0000 
     37 C37         3.3013   48.3710   11.7114 C.3       1 UNK         0.0000 
     38 C38         4.6391   52.8954   16.9925 C.3       1 UNK         0.0000 
     39 H39         4.3059   54.2029   30.5741 H         1 UNK         0.0000 
     40 H40         3.4280   55.0992   29.3405 H         1 UNK         0.0000 
     41 H41         3.5609   53.3447   29.2351 H         1 UNK         0.0000 
     42 H42         6.0606   53.5695   28.8818 H         1 UNK         0.0000 
     43 H43         5.9023   55.3216   28.9538 H         1 UNK         0.0000 
     44 H44         7.2111   54.6213   23.9268 H         1 UNK         0.0000 
     45 H45         6.2812   54.2283   21.7283 H         1 UNK         0.0000 
     46 H46         2.3321   53.9318   23.4363 H         1 UNK         0.0000 
     47 H47         3.2513   54.3165   25.6389 H         1 UNK         0.0000 
     48 H48         2.5933   53.5493   21.3249 H         1 UNK         0.0000 
     49 H49         2.7514   51.5700   16.0651 H         1 UNK         0.0000 
     50 H50         3.5041   50.1295   20.6793 H         1 UNK         0.0000 
     51 H51         2.7050   49.2966   23.1139 H         1 UNK         0.0000 
     52 H52         0.3775   50.7070   23.6154 H         1 UNK         0.0000 
     53 H53         1.8974   49.2173   16.3133 H         1 UNK         0.0000 
     54 H54         0.5084   48.6026   15.4469 H         1 UNK         0.0000 
     55 H55         3.5508   48.8998   14.9698 H         1 UNK         0.0000 
     56 H56         5.0062   47.2970   13.6143 H         1 UNK         0.0000 
     57 H57         5.9330   48.2110   12.4363 H         1 UNK         0.0000 
     58 H58         5.7924   48.7936   14.0814 H         1 UNK         0.0000 
     59 H59         3.5321   51.1239   12.1806 H         1 UNK         0.0000 
     60 H60         4.8862   51.0520   13.2967 H         1 UNK         0.0000 
     61 H61         5.0832   50.5101   11.6347 H         1 UNK         0.0000 
     62 H62         2.4529   48.9317   11.3188 H         1 UNK         0.0000 
     63 H63         3.9936   48.2295   10.8805 H         1 UNK         0.0000 
     64 H64         2.9315   47.3873   12.0018 H         1 UNK         0.0000 
     65 H65         4.7513   53.9754   16.9038 H         1 UNK         0.0000 
     66 H66         5.5166   52.4971   17.5029 H         1 UNK         0.0000 
     67 H67         4.6532   52.4733   15.9867 H         1 UNK         0.0000 
@<TRIPOS>BOND
     1    1    2 1    
     2    1   39 1    
     3    1   40 1    
     4    1   41 1    
     5    2    3 1    
     6    2   42 1    
     7    2   43 1    
     8    3    4 1    
     9    4    5 2    
    10    4    6 1    
    11    6   11 ar   
    12    6    7 ar   
    13    7    8 ar   
    14    7   44 1    
    15    8    9 ar   
    16    8   45 1    
    17    9   10 ar   
    18    9   12 1    
    19   10   11 ar   
    20   10   46 1    
    21   11   47 1    
    22   12   13 am   BACKBONE|DICT|INTERRES
    23   12   48 1    
    24   13   14 2    
    25   13   15 1    
    26   15   20 1    
    27   15   16 2    
    28   16   17 1    
    29   16   38 1    
    30   17   18 1    
    31   17   49 1    
    32   18   19 2    
    33   18   29 1    
    34   19   20 1    
    35   19   27 1    
    36   20   21 1    
    37   20   22 1    
    38   22   26 1    
    39   22   23 2    
    40   23   24 1    
    41   23   50 1    
    42   24   25 2    
    43   24   51 1    
    44   25   26 1    
    45   25   52 1    
    46   27   28 3    
    47   29   30 1    
    48   30   31 1    
    49   30   53 1    
    50   30   54 1    
    51   31   32 2    
    52   31   33 am   BACKBONE|DICT|INTERRES
    53   33   34 1    
    54   33   55 1    
    55   34   35 1    
    56   34   36 1    
    57   34   37 1    
    58   35   56 1    
    59   35   57 1    
    60   35   58 1    
    61   36   59 1    
    62   36   60 1    
    63   36   61 1    
    64   37   62 1    
    65   37   63 1    
    66   37   64 1    
    67   38   65 1    
    68   38   66 1    
    69   38   67 1    
@<TRIPOS>SUBSTRUCTURE
     1 UNK         1 GROUP             0       ****    0 ROOT    
