@<TRIPOS>MOLECULE
ZINC49544575_2679
52   54    1
SMALL
USER_CHARGES


@<TRIPOS>ATOM
      1 C1          3.5363   58.1785   16.6817 C.3       1 UNK         0.0000 
      2 C2          2.5136   57.0765   16.4822 C.2       1 UNK         0.0000 
      3 C3          1.2518   57.1964   15.8957 C.2       1 UNK         0.0000 
      4 S4          0.4899   55.6311   15.9643 S.3       1 UNK         0.0000 
      5 C5          1.9098   54.9925   16.7408 C.2       1 UNK         0.0000 
      6 N6          2.8467   55.8816   16.9376 N.2       1 UNK         0.0000 
      7 N7          2.0675   53.6796   17.1670 N.am      1 UNK         0.0000 
      8 C8          1.2865   52.6103   16.8759 C.2       1 UNK         0.0000 
      9 O9          0.3047   52.6339   16.1317 O.2       1 UNK         0.0000 
     10 C10         1.7236   51.2616   17.5055 C.3       1 UNK         0.0000 
     11 H11         2.5236   50.8978   16.8608 H         1 UNK         0.0000 
     12 C12         0.6301   50.1683   17.4695 C.3       1 UNK         0.0000 
     13 N13         2.3067   51.3624   18.8543 N.am      1 UNK         0.0000 
     14 C14         1.6912   51.8135   19.9702 C.2       1 UNK         0.0000 
     15 O15         0.4894   52.0970   19.9750 O.2       1 UNK         0.0000 
     16 N16         2.4662   51.8950   21.0874 N.am      1 UNK         0.0000 
     17 C17         1.8571   52.2641   22.3787 C.3       1 UNK         0.0000 
     18 C18         2.3643   53.6648   22.7868 C.3       1 UNK         0.0000 
     19 N19         3.8305   53.7942   22.8054 N.pl3     1 UNK         0.0000 
     20 C20         4.4067   53.3368   21.5261 C.3       1 UNK         0.0000 
     21 C21         3.9396   51.9365   21.0639 C.3       1 UNK         0.0000 
     22 C22         4.5918   54.0969   23.9392 C.ar      1 UNK         0.0000 
     23 C23         5.9314   54.4977   23.8156 C.ar      1 UNK         0.0000 
     24 C24         6.7045   54.7736   24.9378 C.ar      1 UNK         0.0000 
     25 C25         6.1526   54.6564   26.2033 C.ar      1 UNK         0.0000 
     26 C26         4.8210   54.2963   26.3581 C.ar      1 UNK         0.0000 
     27 C27         4.0454   54.0293   25.2334 C.ar      1 UNK         0.0000 
     28 F28         6.9218   54.8966   27.2842 F         1 UNK         0.0000 
     29 C29         0.5631   58.4042   15.3064 C.3       1 UNK         0.0000 
     30 H30         3.1039   59.0293   17.2108 H         1 UNK         0.0000 
     31 H31         3.8987   58.5639   15.7291 H         1 UNK         0.0000 
     32 H32         4.4118   57.8685   17.2516 H         1 UNK         0.0000 
     33 H33         0.3187   49.9624   16.4448 H         1 UNK         0.0000 
     34 H34         0.9993   49.2346   17.8946 H         1 UNK         0.0000 
     35 H35        -0.2576   50.4656   18.0280 H         1 UNK         0.0000 
     36 H36         3.2544   51.0120   18.9188 H         1 UNK         0.0000 
     37 H37         0.7653   52.2568   22.3468 H         1 UNK         0.0000 
     38 H38         2.1534   51.5388   23.1381 H         1 UNK         0.0000 
     39 H39         1.9046   53.9481   23.7303 H         1 UNK         0.0000 
     40 H40         2.0044   54.4119   22.0821 H         1 UNK         0.0000 
     41 H41         5.4947   53.3177   21.5495 H         1 UNK         0.0000 
     42 H42         4.1305   54.0872   20.7829 H         1 UNK         0.0000 
     43 H43         4.3245   51.1879   21.7573 H         1 UNK         0.0000 
     44 H44         4.3735   51.7151   20.0882 H         1 UNK         0.0000 
     45 H45         6.4005   54.6145   22.8515 H         1 UNK         0.0000 
     46 H46         7.7348   55.0697   24.8340 H         1 UNK         0.0000 
     47 H47         4.3985   54.2118   27.3471 H         1 UNK         0.0000 
     48 H48         3.0295   53.7167   25.4029 H         1 UNK         0.0000 
     49 H49         1.2078   58.9187   14.5886 H         1 UNK         0.0000 
     50 H50        -0.3587   58.1418   14.7849 H         1 UNK         0.0000 
     51 H51         0.3047   59.1317   16.0800 H         1 UNK         0.0000 
     52 H52         2.8719   53.5030   17.7479 H         1 UNK         0.0000 
@<TRIPOS>BOND
     1    1    2 1    
     2    1   30 1    
     3    1   31 1    
     4    1   32 1    
     5    2    6 1    
     6    2    3 2    
     7    3    4 1    
     8    3   29 1    
     9    4    5 1    
    10    5    6 2    
    11    5    7 am   BACKBONE|DICT|INTERRES
    12    7    8 am   BACKBONE|DICT|INTERRES
    13    7   52 1    
    14    8    9 2    
    15    8   10 1    
    16   10   11 1    
    17   10   12 1    
    18   10   13 1    
    19   12   33 1    
    20   12   34 1    
    21   12   35 1    
    22   13   14 am   BACKBONE|DICT|INTERRES
    23   13   36 1    
    24   14   15 2    
    25   14   16 am   BACKBONE|DICT|INTERRES
    26   16   21 1    
    27   16   17 1    
    28   17   18 1    
    29   17   37 1    
    30   17   38 1    
    31   18   19 1    
    32   18   39 1    
    33   18   40 1    
    34   19   20 1    
    35   19   22 1    
    36   20   21 1    
    37   20   41 1    
    38   20   42 1    
    39   21   43 1    
    40   21   44 1    
    41   22   27 ar   
    42   22   23 ar   
    43   23   24 ar   
    44   23   45 1    
    45   24   25 ar   
    46   24   46 1    
    47   25   26 ar   
    48   25   28 1    
    49   26   27 ar   
    50   26   47 1    
    51   27   48 1    
    52   29   49 1    
    53   29   50 1    
    54   29   51 1    
@<TRIPOS>SUBSTRUCTURE
     1 UNK         1 GROUP             0       ****    0 ROOT    
