@<TRIPOS>MOLECULE
ZINC44785804_1692
48   49    1
SMALL
USER_CHARGES


@<TRIPOS>ATOM
      1 C1          6.4385   55.4355   27.2223 C.3       1 UNK         0.0000 
      2 C2          5.5838   54.2373   27.5318 C.3       1 UNK         0.0000 
      3 C3          5.9847   53.2967   26.4232 C.3       1 UNK         0.0000 
      4 O4          5.5745   53.7383   25.1281 O.3       1 UNK         0.0000 
      5 C5          4.1722   53.8789   24.9794 C.3       1 UNK         0.0000 
      6 C6          3.5305   54.7418   26.0730 C.3       1 UNK         0.0000 
      7 N7          4.0991   54.3826   27.3887 N.am      1 UNK         0.0000 
      8 C8          3.2681   54.4405   28.4678 C.2       1 UNK         0.0000 
      9 O9          3.4423   55.2967   29.3297 O.2       1 UNK         0.0000 
     10 C10         2.1058   53.3879   28.6626 C.3       1 UNK         0.0000 
     11 C11         0.7682   54.1220   28.3122 C.3       1 UNK         0.0000 
     12 C12        -0.4955   53.2936   27.9498 C.3       1 UNK         0.0000 
     13 C13        -0.4515   52.3944   26.6950 C.3       1 UNK         0.0000 
     14 C14         0.1452   51.0017   26.8999 C.3       1 UNK         0.0000 
     15 C15         1.3395   50.9801   27.8525 C.3       1 UNK         0.0000 
     16 C16         2.3073   52.1659   27.7135 C.3       1 UNK         0.0000 
     17 C17         2.1592   52.8449   30.1497 C.2       1 UNK         0.0000 
     18 N18         3.2149   52.1952   30.4819 N.2       1 UNK         0.0000 
     19 O19         3.2548   51.7150   31.8060 O.3       1 UNK         0.0000 
     20 N20         1.0246   53.0792   30.9122 N.pl3     1 UNK         0.0000 
     21 C21         6.0497   53.6967   28.8817 C.3       1 UNK         0.0000 
     22 H22         7.5043   55.2021   27.2197 H         1 UNK         0.0000 
     23 H23         6.1996   55.9195   26.2741 H         1 UNK         0.0000 
     24 H24         6.3044   56.1298   28.0383 H         1 UNK         0.0000 
     25 H25         5.4929   52.3708   26.6730 H         1 UNK         0.0000 
     26 H26         7.0550   53.0794   26.4089 H         1 UNK         0.0000 
     27 H27         3.7091   52.8967   24.9994 H         1 UNK         0.0000 
     28 H28         3.9542   54.2992   23.9975 H         1 UNK         0.0000 
     29 H29         2.4706   54.4967   26.0238 H         1 UNK         0.0000 
     30 H30         3.7609   55.7882   25.8920 H         1 UNK         0.0000 
     31 H31         0.9540   54.7797   27.4676 H         1 UNK         0.0000 
     32 H32         0.5115   54.8309   29.1017 H         1 UNK         0.0000 
     33 H33        -1.2504   54.0305   27.6817 H         1 UNK         0.0000 
     34 H34        -0.8750   52.7387   28.8090 H         1 UNK         0.0000 
     35 H35         0.0972   52.8967   25.8986 H         1 UNK         0.0000 
     36 H36        -1.4634   52.2702   26.3054 H         1 UNK         0.0000 
     37 H37         0.4387   50.5939   25.9314 H         1 UNK         0.0000 
     38 H38        -0.6205   50.3245   27.2814 H         1 UNK         0.0000 
     39 H39         1.9044   50.0682   27.6817 H         1 UNK         0.0000 
     40 H40         0.9651   50.8967   28.8718 H         1 UNK         0.0000 
     41 H41         3.3101   51.7800   27.8877 H         1 UNK         0.0000 
     42 H42         2.3071   52.4652   26.6700 H         1 UNK         0.0000 
     43 H43         2.4710   52.0967   32.2096 H         1 UNK         0.0000 
     44 H44         0.8830   52.6849   31.8304 H         1 UNK         0.0000 
     45 H45         0.2211   53.4915   30.4635 H         1 UNK         0.0000 
     46 H46         7.1124   53.4496   28.8816 H         1 UNK         0.0000 
     47 H47         5.9060   54.4854   29.6326 H         1 UNK         0.0000 
     48 H48         5.5044   52.8025   29.1823 H         1 UNK         0.0000 
@<TRIPOS>BOND
     1    1    2 1    
     2    1   22 1    
     3    1   23 1    
     4    1   24 1    
     5    2    7 1    
     6    2    3 1    
     7    2   21 1    
     8    3    4 1    
     9    3   25 1    
    10    3   26 1    
    11    4    5 1    
    12    5    6 1    
    13    5   27 1    
    14    5   28 1    
    15    6    7 1    
    16    6   29 1    
    17    6   30 1    
    18    7    8 am   BACKBONE|DICT|INTERRES
    19    8    9 2    
    20    8   10 1    
    21   10   16 1    
    22   10   11 1    
    23   10   17 1    
    24   11   12 1    
    25   11   31 1    
    26   11   32 1    
    27   12   13 1    
    28   12   33 1    
    29   12   34 1    
    30   13   14 1    
    31   13   35 1    
    32   13   36 1    
    33   14   15 1    
    34   14   37 1    
    35   14   38 1    
    36   15   16 1    
    37   15   39 1    
    38   15   40 1    
    39   16   41 1    
    40   16   42 1    
    41   17   18 2    
    42   17   20 1    
    43   18   19 1    
    44   19   43 1    
    45   20   44 1    
    46   20   45 1    
    47   21   46 1    
    48   21   47 1    
    49   21   48 1    
@<TRIPOS>SUBSTRUCTURE
     1 UNK         1 GROUP             0       ****    0 ROOT    
