ZINC44016887_4583
                    3D
 Schrodinger Suite 2024-2.
 59 61  0  0  1  0            999 V2000
    4.1455   61.9784   12.4273 C   0  0  0  0  0  0
    3.1702   61.0842   13.2272 C   0  0  0  0  0  0
    2.3197   61.9736   14.1580 C   0  0  0  0  0  0
    2.2118   60.3458   12.2573 C   0  0  0  0  0  0
    3.9128   60.1503   14.0817 N   0  0  0  0  0  0
    4.6799   59.0956   13.7284 C   0  0  0  0  0  0
    4.8944   58.7908   12.5534 O   0  0  0  0  0  0
    5.2781   58.2803   14.8598 C   0  0  0  0  0  0
    4.9101   58.4968   16.1972 C   0  0  0  0  0  0
    5.4850   57.7525   17.2196 C   0  0  0  0  0  0
    6.4466   56.7765   16.9299 C   0  0  0  0  0  0
    6.7909   56.5250   15.6012 C   0  0  0  0  0  0
    6.2168   57.2746   14.5764 C   0  0  0  0  0  0
    7.0737   56.0019   17.9215 N   0  0  0  0  0  0
    7.3084   56.3578   19.1997 C   0  0  0  0  0  0
    7.0800   57.4675   19.6816 O   0  0  0  0  0  0
    7.8082   55.3449   19.9205 N   0  0  0  0  0  0
    7.9602   55.3706   21.3771 C   0  0  0  0  0  0
    6.6402   55.4365   22.1744 C   0  0  1  0  0  0
    6.3045   56.4684   22.1079 H   0  0  0  0  0  0
    5.5193   54.4932   21.7458 C   0  0  0  0  0  0
    4.6641   54.3280   23.0071 C   0  0  0  0  0  0
    5.4938   54.6440   24.1725 N   0  0  0  0  0  0
    6.7913   55.0692   23.6529 C   0  0  0  0  0  0
    5.1581   54.4457   25.5223 C   0  0  0  0  0  0
    3.8520   54.0968   25.8903 C   0  0  0  0  0  0
    3.5208   53.8953   27.2278 C   0  0  0  0  0  0
    4.4979   54.0392   28.2091 C   0  0  0  0  0  0
    5.8014   54.3809   27.8631 C   0  0  0  0  0  0
    6.1272   54.5838   26.5256 C   0  0  0  0  0  0
    3.6103   62.7091   11.8193 H   0  0  0  0  0  0
    4.7703   61.3930   11.7516 H   0  0  0  0  0  0
    4.8108   62.5301   13.0951 H   0  0  0  0  0  0
    1.6077   61.3803   14.7361 H   0  0  0  0  0  0
    2.9383   62.5165   14.8781 H   0  0  0  0  0  0
    1.7484   62.7142   13.5954 H   0  0  0  0  0  0
    1.5484   59.6672   12.7938 H   0  0  0  0  0  0
    1.5845   61.0472   11.7055 H   0  0  0  0  0  0
    2.7528   59.7542   11.5180 H   0  0  0  0  0  0
    3.9432   60.4332   15.0574 H   0  0  0  0  0  0
    4.1858   59.2529   16.4717 H   0  0  0  0  0  0
    5.1727   57.9443   18.2334 H   0  0  0  0  0  0
    7.5161   55.7621   15.3572 H   0  0  0  0  0  0
    6.5167   57.0736   13.5566 H   0  0  0  0  0  0
    7.4709   55.1331   17.6007 H   0  0  0  0  0  0
    8.1016   54.5054   19.4449 H   0  0  0  0  0  0
    8.5170   54.4972   21.6806 H   0  0  0  0  0  0
    8.6068   56.2014   21.6634 H   0  0  0  0  0  0
    4.9600   54.8609   20.8846 H   0  0  0  0  0  0
    5.9039   53.5081   21.4870 H   0  0  0  0  0  0
    3.7627   54.9363   22.9585 H   0  0  0  0  0  0
    4.3577   53.2838   23.0770 H   0  0  0  0  0  0
    7.5101   54.2652   23.7981 H   0  0  0  0  0  0
    7.1757   55.9281   24.2030 H   0  0  0  0  0  0
    3.0842   53.9787   25.1409 H   0  0  0  0  0  0
    2.5113   53.6244   27.5000 H   0  0  0  0  0  0
    4.2423   53.8811   29.2461 H   0  0  0  0  0  0
    6.5557   54.4909   28.6295 H   0  0  0  0  0  0
    7.1438   54.8417   26.2773 H   0  0  0  0  0  0
  1  2  1  0  0  0
  1 31  1  0  0  0
  1 32  1  0  0  0
  1 33  1  0  0  0
  2  3  1  0  0  0
  2  4  1  0  0  0
  2  5  1  0  0  0
  3 34  1  0  0  0
  3 35  1  0  0  0
  3 36  1  0  0  0
  4 37  1  0  0  0
  4 38  1  0  0  0
  4 39  1  0  0  0
  5  6  1  0  0  0
  5 40  1  0  0  0
  6  7  2  0  0  0
  6  8  1  0  0  0
  8 13  2  0  0  0
  8  9  1  0  0  0
  9 10  2  0  0  0
  9 41  1  0  0  0
 10 11  1  0  0  0
 10 42  1  0  0  0
 11 12  2  0  0  0
 11 14  1  0  0  0
 12 13  1  0  0  0
 12 43  1  0  0  0
 13 44  1  0  0  0
 14 15  1  0  0  0
 14 45  1  0  0  0
 15 16  2  0  0  0
 15 17  1  0  0  0
 17 18  1  0  0  0
 17 46  1  0  0  0
 18 19  1  0  0  0
 18 47  1  0  0  0
 18 48  1  0  0  0
 19 20  1  0  0  0
 19 24  1  0  0  0
 19 21  1  0  0  0
 21 22  1  0  0  0
 21 49  1  0  0  0
 21 50  1  0  0  0
 22 23  1  0  0  0
 22 51  1  0  0  0
 22 52  1  0  0  0
 23 24  1  0  0  0
 23 25  1  0  0  0
 24 53  1  0  0  0
 24 54  1  0  0  0
 25 30  2  0  0  0
 25 26  1  0  0  0
 26 27  2  0  0  0
 26 55  1  0  0  0
 27 28  1  0  0  0
 27 56  1  0  0  0
 28 29  2  0  0  0
 28 57  1  0  0  0
 29 30  1  0  0  0
 29 58  1  0  0  0
 30 59  1  0  0  0
M  END
> <i_i_glide_confnum>
104

> <i_i_glide_lignum>
4584

> <i_i_glide_posenum>
203

> <i_i_glide_rotatable_bonds>
9

> <i_m_Source_File_Index>
2059

> <b_m_subgroup_collapsed>
0

> <r_i_docking_score>
-5.59995

> <r_i_glide_ecoul>
-6.93461

> <r_i_glide_eff_state_penalty>
0

> <r_i_glide_einternal>
5.72921

> <r_i_glide_emodel>
-50.6706

> <r_i_glide_energy>
-36.4518

> <r_i_glide_erotb>
1.00467

> <r_i_glide_esite>
-0.105184

> <r_i_glide_evdw>
-29.5172

> <r_i_glide_gscore>
-5.59995

> <r_i_glide_hbond>
-0.420369

> <r_i_glide_ligand_efficiency>
-0.193102

> <r_i_glide_ligand_efficiency_ln>
-1.28225

> <r_i_glide_ligand_efficiency_sa>
-0.59327

> <r_i_glide_lipo>
-2.40228

> <r_i_glide_metal>
0

> <r_i_glide_rewards>
-1.16074

> <s_i_glide_gridfile>
wee1_glide-grid

> <s_m_Source_File>
wee1_decoys_glide_SP.sdf

> <s_m_Source_Path>
/Users/zhangxujun/Desktop

> <s_m_entry_id>
2334

> <s_m_entry_name>
wee1_decoys_glide_SP.2059

> <s_m_subgroup_title>
wee1_decoys_glide_SP

> <s_m_subgroupid>
wee1_decoys_glide_SP


$$$$
