@<TRIPOS>MOLECULE
ZINC22320295_725
70   74    1
SMALL
USER_CHARGES


@<TRIPOS>ATOM
      1 C1          6.2145   60.7552   14.3361 C.3       1 UNK         0.0000 
      2 C2          5.2708   59.5484   14.4689 C.3       1 UNK         0.0000 
      3 N3          5.8975   58.4269   15.3369 N.4       1 UNK         0.0000 
      4 C4          6.1545   58.8966   16.7826 C.3       1 UNK         0.0000 
      5 C5          6.7344   57.7433   17.6227 C.3       1 UNK         0.0000 
      6 N6          5.9278   56.5106   17.5972 N.pl3     1 UNK         0.0000 
      7 C7          5.5975   56.0831   16.2260 C.3       1 UNK         0.0000 
      8 C8          4.9686   57.1955   15.3596 C.3       1 UNK         0.0000 
      9 C9          5.7214   55.7173   18.7240 C.ar      1 UNK         0.0000 
     10 C10         4.5967   54.8926   18.8243 C.ar      1 UNK         0.0000 
     11 C11         4.3026   54.2199   20.0074 C.ar      1 UNK         0.0000 
     12 C12         5.1041   54.3796   21.1470 C.ar      1 UNK         0.0000 
     13 C13         6.3070   55.1000   21.0151 C.ar      1 UNK         0.0000 
     14 C14         6.5964   55.7584   19.8159 C.ar      1 UNK         0.0000 
     15 C15         7.3521   55.1794   22.1182 C.3       1 UNK         0.0000 
     16 N16         4.7154   53.9030   22.4225 N.am      1 UNK         0.0000 
     17 C17         3.4545   53.7550   22.8998 C.2       1 UNK         0.0000 
     18 O18         2.4428   53.6949   22.2039 O.2       1 UNK         0.0000 
     19 C19         3.3260   53.6969   24.3446 C.ar      1 UNK         0.0000 
     20 C20         4.1422   54.3141   25.3247 C.ar      1 UNK         0.0000 
     21 C21         3.5441   54.0283   26.5444 C.ar      1 UNK         0.0000 
     22 N22         2.4271   53.2663   26.2476 N.pl3     1 UNK         0.0000 
     23 N23         2.2953   53.1165   24.9203 N.2       1 UNK         0.0000 
     24 C24         1.4527   52.6784   27.1054 C.ar      1 UNK         0.0000 
     25 C25         1.7843   52.2744   28.4055 C.ar      1 UNK         0.0000 
     26 C26         0.7915   51.8504   29.2811 C.ar      1 UNK         0.0000 
     27 C27        -0.5177   51.7154   28.8320 C.ar      1 UNK         0.0000 
     28 C28        -0.8452   52.0098   27.5141 C.ar      1 UNK         0.0000 
     29 C29         0.1337   52.4967   26.6557 C.ar      1 UNK         0.0000 
     30 F30        -1.4793   51.2970   29.6815 F         1 UNK         0.0000 
     31 C31         4.0489   54.4543   27.9148 C.3       1 UNK         0.0000 
     32 C32         5.4612   53.9134   28.2223 C.3       1 UNK         0.0000 
     33 C33         6.6219   54.5707   27.4356 C.3       1 UNK         0.0000 
     34 C34         6.6047   54.4422   25.8981 C.3       1 UNK         0.0000 
     35 C35         5.4123   55.1252   25.2107 C.3       1 UNK         0.0000 
     36 H36         5.8219   61.4655   13.6086 H         1 UNK         0.0000 
     37 H37         6.3085   61.2989   15.2772 H         1 UNK         0.0000 
     38 H38         7.2101   60.4612   14.0056 H         1 UNK         0.0000 
     39 H39         5.0841   59.0946   13.4936 H         1 UNK         0.0000 
     40 H40         4.3159   59.8200   14.9276 H         1 UNK         0.0000 
     41 H41         6.8957   59.6947   16.7218 H         1 UNK         0.0000 
     42 H42         5.2188   59.2948   17.1826 H         1 UNK         0.0000 
     43 H43         6.9014   58.0986   18.6385 H         1 UNK         0.0000 
     44 H44         7.7079   57.4543   17.2229 H         1 UNK         0.0000 
     45 H45         6.5502   55.7786   15.7893 H         1 UNK         0.0000 
     46 H46         4.9744   55.1890   16.2081 H         1 UNK         0.0000 
     47 H47         4.8889   56.8590   14.3241 H         1 UNK         0.0000 
     48 H48         3.9900   57.5125   15.7269 H         1 UNK         0.0000 
     49 H49         3.8919   54.8116   18.0112 H         1 UNK         0.0000 
     50 H50         3.3961   53.6349   20.0330 H         1 UNK         0.0000 
     51 H51         7.5145   56.3227   19.7435 H         1 UNK         0.0000 
     52 H52         8.3525   55.1746   21.6819 H         1 UNK         0.0000 
     53 H53         7.2520   56.0960   22.6954 H         1 UNK         0.0000 
     54 H54         7.3194   54.3196   22.7868 H         1 UNK         0.0000 
     55 H55         5.4451   53.8989   23.1173 H         1 UNK         0.0000 
     56 H56         2.7996   52.2864   28.7654 H         1 UNK         0.0000 
     57 H57         1.0354   51.6305   30.3074 H         1 UNK         0.0000 
     58 H58        -1.8613   51.8811   27.1734 H         1 UNK         0.0000 
     59 H59        -0.1545   52.7600   25.6484 H         1 UNK         0.0000 
     60 H60         4.1030   55.5355   27.9474 H         1 UNK         0.0000 
     61 H61         3.3669   54.2547   28.7336 H         1 UNK         0.0000 
     62 H62         5.6566   54.0757   29.2808 H         1 UNK         0.0000 
     63 H63         5.4827   52.8307   28.0804 H         1 UNK         0.0000 
     64 H64         6.6610   55.6320   27.6815 H         1 UNK         0.0000 
     65 H65         7.5569   54.1524   27.8069 H         1 UNK         0.0000 
     66 H66         7.5096   54.8940   25.4993 H         1 UNK         0.0000 
     67 H67         6.6564   53.3908   25.6100 H         1 UNK         0.0000 
     68 H68         5.6614   55.3745   24.1878 H         1 UNK         0.0000 
     69 H69         5.2588   56.0963   25.6764 H         1 UNK         0.0000 
     70 H70         6.7792   58.1440   14.9320 H         1 UNK         0.0000 
@<TRIPOS>BOND
     1    1    2 1    
     2    1   36 1    
     3    1   37 1    
     4    1   38 1    
     5    2    3 1    
     6    2   39 1    
     7    2   40 1    
     8    3    8 1    
     9    3    4 1    
    10    3   70 1    
    11    4    5 1    
    12    4   41 1    
    13    4   42 1    
    14    5    6 1    
    15    5   43 1    
    16    5   44 1    
    17    6    7 1    
    18    6    9 1    
    19    7    8 1    
    20    7   45 1    
    21    7   46 1    
    22    8   47 1    
    23    8   48 1    
    24    9   14 ar   
    25    9   10 ar   
    26   10   11 ar   
    27   10   49 1    
    28   11   12 ar   
    29   11   50 1    
    30   12   13 ar   
    31   12   16 1    
    32   13   14 ar   
    33   13   15 1    
    34   14   51 1    
    35   15   52 1    
    36   15   53 1    
    37   15   54 1    
    38   16   17 am   BACKBONE|DICT|INTERRES
    39   16   55 1    
    40   17   18 2    
    41   17   19 1    
    42   19   23 ar   
    43   19   20 ar   
    44   20   35 1    
    45   20   21 ar   
    46   21   22 ar   
    47   21   31 1    
    48   22   23 ar   
    49   22   24 1    
    50   24   29 ar   
    51   24   25 ar   
    52   25   26 ar   
    53   25   56 1    
    54   26   27 ar   
    55   26   57 1    
    56   27   28 ar   
    57   27   30 1    
    58   28   29 ar   
    59   28   58 1    
    60   29   59 1    
    61   31   32 1    
    62   31   60 1    
    63   31   61 1    
    64   32   33 1    
    65   32   62 1    
    66   32   63 1    
    67   33   34 1    
    68   33   64 1    
    69   33   65 1    
    70   34   35 1    
    71   34   66 1    
    72   34   67 1    
    73   35   68 1    
    74   35   69 1    
@<TRIPOS>SUBSTRUCTURE
     1 UNK         1 GROUP             0       ****    0 ROOT    
