@<TRIPOS>MOLECULE
ZINC61900158_235
58   60    1
SMALL
USER_CHARGES


@<TRIPOS>ATOM
      1 C1         -3.7223   48.1848   25.2765 C.3       1 UNK         0.0000 
      2 C2         -2.4248   48.9960   25.4218 C.3       1 UNK         0.0000 
      3 C3         -1.2005   48.2398   24.8790 C.3       1 UNK         0.0000 
      4 C4          0.0966   49.0582   25.0497 C.3       1 UNK         0.0000 
      5 N5         -0.0266   50.4071   24.4235 N.pl3     1 UNK         0.0000 
      6 C6         -1.2181   51.1668   24.8928 C.3       1 UNK         0.0000 
      7 C7         -2.5059   50.3433   24.6961 C.3       1 UNK         0.0000 
      8 C8          0.8324   50.8855   23.3733 C.ar      1 UNK         0.0000 
      9 C9          0.9225   52.2440   23.0326 C.ar      1 UNK         0.0000 
     10 C10         1.7158   52.6439   21.9558 C.ar      1 UNK         0.0000 
     11 C11         2.4312   51.6857   21.2252 C.ar      1 UNK         0.0000 
     12 C12         2.3624   50.3479   21.6253 C.ar      1 UNK         0.0000 
     13 N13         1.5883   50.0066   22.6746 N.pl3     1 UNK         0.0000 
     14 C14         3.3068   52.1052   20.0436 C.3       1 UNK         0.0000 
     15 N15         4.1816   53.2589   20.2869 N.am      1 UNK         0.0000 
     16 C16         5.1014   53.3369   21.2720 C.2       1 UNK         0.0000 
     17 O17         5.2637   52.4168   22.0733 O.2       1 UNK         0.0000 
     18 C18         5.8935   54.5617   21.3331 C.2       1 UNK         0.0000 
     19 C19         6.2214   55.1107   22.5443 C.2       1 UNK         0.0000 
     20 C20         5.7770   54.7395   23.9197 C.ar      1 UNK         0.0000 
     21 C21         4.4364   54.4390   24.2038 C.ar      1 UNK         0.0000 
     22 C22         4.0420   54.1080   25.4963 C.ar      1 UNK         0.0000 
     23 C23         4.9849   54.0968   26.5195 C.ar      1 UNK         0.0000 
     24 C24         6.3138   54.4136   26.2596 C.ar      1 UNK         0.0000 
     25 C25         6.7048   54.7361   24.9620 C.ar      1 UNK         0.0000 
     26 N26         6.2726   55.0641   20.1033 N.am      1 UNK         0.0000 
     27 C27         6.6764   56.3030   19.7504 C.2       1 UNK         0.0000 
     28 O28         6.7040   57.2904   20.4842 O.2       1 UNK         0.0000 
     29 C29         7.1049   56.4534   18.2975 C.3       1 UNK         0.0000 
     30 H30        -3.9430   47.9684   24.2299 H         1 UNK         0.0000 
     31 H31        -3.6563   47.2359   25.8100 H         1 UNK         0.0000 
     32 H32        -4.5724   48.7305   25.6886 H         1 UNK         0.0000 
     33 H33        -2.2518   49.2010   26.4817 H         1 UNK         0.0000 
     34 H34        -1.3521   47.9888   23.8277 H         1 UNK         0.0000 
     35 H35        -1.1062   47.2778   25.3895 H         1 UNK         0.0000 
     36 H36         0.9181   48.4984   24.6049 H         1 UNK         0.0000 
     37 H37         0.3651   49.1977   26.0976 H         1 UNK         0.0000 
     38 H38        -1.0492   51.4627   25.9287 H         1 UNK         0.0000 
     39 H39        -1.3325   52.0839   24.3183 H         1 UNK         0.0000 
     40 H40        -3.3689   50.9073   25.0564 H         1 UNK         0.0000 
     41 H41        -2.7003   50.1877   23.6312 H         1 UNK         0.0000 
     42 H42         0.3835   53.0034   23.5816 H         1 UNK         0.0000 
     43 H43         1.7756   53.6906   21.6852 H         1 UNK         0.0000 
     44 H44         2.8981   49.5387   21.1453 H         1 UNK         0.0000 
     45 H45         2.6433   52.3499   19.2097 H         1 UNK         0.0000 
     46 H46         3.9044   51.2655   19.6834 H         1 UNK         0.0000 
     47 H47         4.0535   54.0522   19.6788 H         1 UNK         0.0000 
     48 H48         6.8685   55.9747   22.5468 H         1 UNK         0.0000 
     49 H49         3.6927   54.4638   23.4210 H         1 UNK         0.0000 
     50 H50         3.0097   53.8619   25.7017 H         1 UNK         0.0000 
     51 H51         4.6842   53.8354   27.5229 H         1 UNK         0.0000 
     52 H52         7.0396   54.4030   27.0608 H         1 UNK         0.0000 
     53 H53         7.7365   54.9756   24.7654 H         1 UNK         0.0000 
     54 H54         6.2522   54.3869   19.3537 H         1 UNK         0.0000 
     55 H55         6.2380   56.3808   17.6382 H         1 UNK         0.0000 
     56 H56         7.5713   57.4260   18.1353 H         1 UNK         0.0000 
     57 H57         7.8253   55.6813   18.0187 H         1 UNK         0.0000 
     58 H58         1.5573   49.0360   22.9552 H         1 UNK         0.0000 
@<TRIPOS>BOND
     1    1    2 1    
     2    1   30 1    
     3    1   31 1    
     4    1   32 1    
     5    2    7 1    
     6    2    3 1    
     7    2   33 1    
     8    3    4 1    
     9    3   34 1    
    10    3   35 1    
    11    4    5 1    
    12    4   36 1    
    13    4   37 1    
    14    5    6 1    
    15    5    8 1    
    16    6    7 1    
    17    6   38 1    
    18    6   39 1    
    19    7   40 1    
    20    7   41 1    
    21    8   13 ar   
    22    8    9 ar   
    23    9   10 ar   
    24    9   42 1    
    25   10   11 ar   
    26   10   43 1    
    27   11   12 ar   
    28   11   14 1    
    29   12   13 ar   
    30   12   44 1    
    31   13   58 1    
    32   14   15 1    
    33   14   45 1    
    34   14   46 1    
    35   15   16 am   BACKBONE|DICT|INTERRES
    36   15   47 1    
    37   16   17 2    
    38   16   18 1    
    39   18   19 2    
    40   18   26 1    
    41   19   20 1    
    42   19   48 1    
    43   20   25 ar   
    44   20   21 ar   
    45   21   22 ar   
    46   21   49 1    
    47   22   23 ar   
    48   22   50 1    
    49   23   24 ar   
    50   23   51 1    
    51   24   25 ar   
    52   24   52 1    
    53   25   53 1    
    54   26   27 am   BACKBONE|DICT|INTERRES
    55   26   54 1    
    56   27   28 2    
    57   27   29 1    
    58   29   55 1    
    59   29   56 1    
    60   29   57 1    
@<TRIPOS>SUBSTRUCTURE
     1 UNK         1 GROUP             0       ****    0 ROOT    
