ZINC40361645_6154
                    3D
 Schrodinger Suite 2024-2.
 40 40  0  0  1  0            999 V2000
    6.6837   54.3319   24.8545 C   0  0  0  0  0  0
    5.8734   55.0732   25.9281 C   0  0  2  0  0  0
    6.6574   54.9695   27.2759 C   0  0  0  0  0  0
    6.2427   53.8919   28.2893 C   0  0  0  0  0  0
    4.7211   53.7177   28.3862 C   0  0  1  0  0  0
    4.2292   53.3403   26.9780 C   0  0  0  0  0  0
    4.4431   54.4639   25.9541 C   0  0  0  0  0  0
    4.5068   52.5703   29.2824 C   0  0  0  0  0  0
    4.3039   51.6973   30.0087 N   0  0  0  0  0  0
    4.0308   54.8974   28.9401 N   0  0  0  0  0  0
    2.7329   55.0179   29.2751 C   0  0  0  0  0  0
    2.1533   56.0978   29.2799 O   0  0  0  0  0  0
    2.1673   53.8544   29.6200 N   0  0  0  0  0  0
    0.7837   53.4235   29.6298 C   0  0  0  0  0  0
    0.1044   53.7012   28.2751 C   0  0  0  0  0  0
    0.0520   54.0829   30.8048 C   0  0  0  0  0  0
    0.7967   51.9073   29.8700 C   0  0  0  0  0  0
    6.8604   53.2968   25.1321 H   0  0  0  0  0  0
    6.1852   54.3411   23.8840 H   0  0  0  0  0  0
    7.6507   54.8049   24.7140 H   0  0  0  0  0  0
    5.7873   56.1209   25.6473 H   0  0  0  0  0  0
    6.4648   55.9223   27.7600 H   0  0  0  0  0  0
    7.7376   54.9663   27.1492 H   0  0  0  0  0  0
    6.6597   54.1363   29.2704 H   0  0  0  0  0  0
    6.7083   52.9508   27.9883 H   0  0  0  0  0  0
    4.8105   52.4970   26.6279 H   0  0  0  0  0  0
    3.1796   53.0424   26.9869 H   0  0  0  0  0  0
    3.7603   55.2697   26.2267 H   0  0  0  0  0  0
    4.0941   54.1872   24.9577 H   0  0  0  0  0  0
    4.5571   55.7560   28.8922 H   0  0  0  0  0  0
    2.8062   53.1142   29.8678 H   0  0  0  0  0  0
   -0.8956   53.2757   28.2291 H   0  0  0  0  0  0
    0.6691   53.2636   27.4503 H   0  0  0  0  0  0
    0.0303   54.7702   28.0826 H   0  0  0  0  0  0
    0.6058   53.9732   31.7390 H   0  0  0  0  0  0
   -0.1027   55.1496   30.6458 H   0  0  0  0  0  0
   -0.8955   53.5773   30.9558 H   0  0  0  0  0  0
    1.2645   51.6969   30.8324 H   0  0  0  0  0  0
   -0.2113   51.4892   29.8950 H   0  0  0  0  0  0
    1.3532   51.3696   29.1002 H   0  0  0  0  0  0
  1  2  1  0  0  0
  1 18  1  0  0  0
  1 19  1  0  0  0
  1 20  1  0  0  0
  2  7  1  0  0  0
  2  3  1  0  0  0
  2 21  1  0  0  0
  3  4  1  0  0  0
  3 22  1  0  0  0
  3 23  1  0  0  0
  4  5  1  0  0  0
  4 24  1  0  0  0
  4 25  1  0  0  0
  5  6  1  0  0  0
  5  8  1  0  0  0
  5 10  1  0  0  0
  6  7  1  0  0  0
  6 26  1  0  0  0
  6 27  1  0  0  0
  7 28  1  0  0  0
  7 29  1  0  0  0
  8  9  3  0  0  0
 10 11  1  0  0  0
 10 30  1  0  0  0
 11 12  2  0  0  0
 11 13  1  0  0  0
 13 14  1  0  0  0
 13 31  1  0  0  0
 14 15  1  0  0  0
 14 16  1  0  0  0
 14 17  1  0  0  0
 15 32  1  0  0  0
 15 33  1  0  0  0
 15 34  1  0  0  0
 16 35  1  0  0  0
 16 36  1  0  0  0
 16 37  1  0  0  0
 17 38  1  0  0  0
 17 39  1  0  0  0
 17 40  1  0  0  0
M  END
> <i_i_glide_confnum>
15

> <i_i_glide_lignum>
6155

> <i_i_glide_posenum>
82

> <i_i_glide_rotatable_bonds>
5

> <i_m_Source_File_Index>
1196

> <b_m_subgroup_collapsed>
0

> <r_i_docking_score>
-3.9046

> <r_i_glide_ecoul>
-2.30501

> <r_i_glide_eff_state_penalty>
0

> <r_i_glide_einternal>
2.34841

> <r_i_glide_emodel>
-28.3517

> <r_i_glide_energy>
-26.8571

> <r_i_glide_erotb>
0.918004

> <r_i_glide_esite>
0

> <r_i_glide_evdw>
-24.5521

> <r_i_glide_gscore>
-3.9046

> <r_i_glide_hbond>
-0.119299

> <r_i_glide_ligand_efficiency>
-0.229682

> <r_i_glide_ligand_efficiency_ln>
-1.01862

> <r_i_glide_ligand_efficiency_sa>
-0.590578

> <r_i_glide_lipo>
-2.12753

> <r_i_glide_metal>
0

> <r_i_glide_rewards>
-1.00242

> <s_i_glide_gridfile>
wee1_glide-grid

> <s_m_Source_File>
wee1_decoys_glide_SP.sdf

> <s_m_Source_Path>
/Users/zhangxujun/Desktop

> <s_m_entry_id>
1471

> <s_m_entry_name>
wee1_decoys_glide_SP.1196

> <s_m_subgroup_title>
wee1_decoys_glide_SP

> <s_m_subgroupid>
wee1_decoys_glide_SP


$$$$
