@<TRIPOS>MOLECULE
ZINC12706206_3113
62   65    1
SMALL
USER_CHARGES


@<TRIPOS>ATOM
      1 C1          1.9275   52.5012   31.2048 C.3       1 UNK         0.0000 
      2 C2          1.7583   52.6788   29.7067 C.ar      1 UNK         0.0000 
      3 C3          1.6699   51.5624   28.8802 C.ar      1 UNK         0.0000 
      4 C4          1.5041   51.7108   27.5116 C.ar      1 UNK         0.0000 
      5 C5          1.4230   52.9798   26.9334 C.ar      1 UNK         0.0000 
      6 C6          1.5043   54.0968   27.7754 C.ar      1 UNK         0.0000 
      7 C7          1.6667   53.9544   29.1521 C.ar      1 UNK         0.0000 
      8 C8          1.2521   53.1688   25.4232 C.3       1 UNK         0.0000 
      9 H9          0.7044   54.0927   25.2756 H         1 UNK         0.0000 
     10 C10         2.5793   53.6090   24.7341 C.2       1 UNK         0.0000 
     11 O11         3.6243   53.6969   25.3815 O.2       1 UNK         0.0000 
     12 N12         2.5036   53.9301   23.4331 N.am      1 UNK         0.0000 
     13 C13         3.6224   54.4595   22.6524 C.3       1 UNK         0.0000 
     14 C14         4.3134   53.4276   21.7345 C.3       1 UNK         0.0000 
     15 H15         4.8675   52.7143   22.3490 H         1 UNK         0.0000 
     16 C16         5.1192   54.0362   20.5828 C.3       1 UNK         0.0000 
     17 C17         5.0412   53.0180   19.4645 C.3       1 UNK         0.0000 
     18 C18         3.8925   52.0966   19.8720 C.3       1 UNK         0.0000 
     19 O19         3.3102   52.7072   21.0207 O.3       1 UNK         0.0000 
     20 N20         0.3598   52.1061   24.8143 N.am      1 UNK         0.0000 
     21 C21        -1.0017   52.1190   25.2263 C.ar      1 UNK         0.0000 
     22 C22        -1.9098   52.8963   24.4979 C.ar      1 UNK         0.0000 
     23 C23        -3.2584   52.8969   24.8445 C.ar      1 UNK         0.0000 
     24 C24        -3.6978   52.1367   25.9253 C.ar      1 UNK         0.0000 
     25 C25        -2.8024   51.3599   26.6558 C.ar      1 UNK         0.0000 
     26 C26        -1.4557   51.3472   26.3069 C.ar      1 UNK         0.0000 
     27 F27        -5.0048   52.1555   26.2684 F         1 UNK         0.0000 
     28 C28         0.7760   51.1228   23.9358 C.2       1 UNK         0.0000 
     29 O29         1.9044   51.0380   23.4592 O.2       1 UNK         0.0000 
     30 C30        -0.1547   50.0638   23.6051 C.2       1 UNK         0.0000 
     31 C31        -0.4399   48.9108   24.3210 C.2       1 UNK         0.0000 
     32 C32        -1.5888   48.2653   23.8258 C.2       1 UNK         0.0000 
     33 N33        -2.1400   48.7878   22.7442 N.2       1 UNK         0.0000 
     34 S34        -1.2972   50.2178   22.3138 S.3       1 UNK         0.0000 
     35 C35        -2.2028   47.0751   24.3707 C.2       1 UNK         0.0000 
     36 O36        -2.4964   46.0970   23.6845 O.2       1 UNK         0.0000 
     37 N37        -2.4603   47.1236   25.6818 N.am      1 UNK         0.0000 
     38 N38         0.3055   48.4970   25.3876 N.pl3     1 UNK         0.0000 
     39 H39         1.4127   53.2970   31.7420 H         1 UNK         0.0000 
     40 H40         1.4819   51.5771   31.5598 H         1 UNK         0.0000 
     41 H41         2.9823   52.4979   31.4792 H         1 UNK         0.0000 
     42 H42         1.7267   50.5665   29.2814 H         1 UNK         0.0000 
     43 H43         1.4463   50.8242   26.9010 H         1 UNK         0.0000 
     44 H44         1.4355   55.0876   27.3649 H         1 UNK         0.0000 
     45 H45         1.7228   54.8331   29.7785 H         1 UNK         0.0000 
     46 H46         1.6335   53.7951   22.9395 H         1 UNK         0.0000 
     47 H47         4.3840   54.8960   23.3010 H         1 UNK         0.0000 
     48 H48         3.2390   55.2936   22.0692 H         1 UNK         0.0000 
     49 H49         6.1309   54.3158   20.8842 H         1 UNK         0.0000 
     50 H50         4.6590   54.9693   20.2544 H         1 UNK         0.0000 
     51 H51         5.9690   52.4559   19.3636 H         1 UNK         0.0000 
     52 H52         4.8460   53.4964   18.5027 H         1 UNK         0.0000 
     53 H53         4.2427   51.0963   20.1320 H         1 UNK         0.0000 
     54 H54         3.1473   51.9760   19.0854 H         1 UNK         0.0000 
     55 H55        -1.5745   53.4897   23.6604 H         1 UNK         0.0000 
     56 H56        -3.9630   53.4934   24.2856 H         1 UNK         0.0000 
     57 H57        -3.1470   50.7581   27.4856 H         1 UNK         0.0000 
     58 H58        -0.7922   50.7048   26.8649 H         1 UNK         0.0000 
     59 H59        -2.0963   47.8728   26.2622 H         1 UNK         0.0000 
     60 H60        -2.9430   46.3642   26.1350 H         1 UNK         0.0000 
     61 H61         0.1121   47.6458   25.9148 H         1 UNK         0.0000 
     62 H62         1.2267   48.8778   25.5487 H         1 UNK         0.0000 
@<TRIPOS>BOND
     1    1    2 1    
     2    1   39 1    
     3    1   40 1    
     4    1   41 1    
     5    2    7 ar   
     6    2    3 ar   
     7    3    4 ar   
     8    3   42 1    
     9    4    5 ar   
    10    4   43 1    
    11    5    6 ar   
    12    5    8 1    
    13    6    7 ar   
    14    6   44 1    
    15    7   45 1    
    16    8    9 1    
    17    8   10 1    
    18    8   20 1    
    19   10   11 2    
    20   10   12 am   BACKBONE|DICT|INTERRES
    21   12   13 1    
    22   12   46 1    
    23   13   14 1    
    24   13   47 1    
    25   13   48 1    
    26   14   15 1    
    27   14   19 1    
    28   14   16 1    
    29   16   17 1    
    30   16   49 1    
    31   16   50 1    
    32   17   18 1    
    33   17   51 1    
    34   17   52 1    
    35   18   19 1    
    36   18   53 1    
    37   18   54 1    
    38   20   21 1    
    39   20   28 am   BACKBONE|DICT|INTERRES
    40   21   26 ar   
    41   21   22 ar   
    42   22   23 ar   
    43   22   55 1    
    44   23   24 ar   
    45   23   56 1    
    46   24   25 ar   
    47   24   27 1    
    48   25   26 ar   
    49   25   57 1    
    50   26   58 1    
    51   28   29 2    
    52   28   30 1    
    53   30   34 1    
    54   30   31 2    
    55   31   32 1    
    56   31   38 1    
    57   32   33 2    
    58   32   35 1    
    59   33   34 1    
    60   35   36 2    
    61   35   37 am   BACKBONE|DICT|INTERRES
    62   37   59 1    
    63   37   60 1    
    64   38   61 1    
    65   38   62 1    
@<TRIPOS>SUBSTRUCTURE
     1 UNK         1 GROUP             0       ****    0 ROOT    
