@<TRIPOS>MOLECULE
ZINC01768885_4514
46   48    1
SMALL
USER_CHARGES


@<TRIPOS>ATOM
      1 C1          5.3128   54.4963   27.0977 C.ar      1 UNK         0.0000 
      2 C2          6.5819   54.4842   26.5189 C.ar      1 UNK         0.0000 
      3 C3          6.7155   54.4638   25.1283 C.ar      1 UNK         0.0000 
      4 C4          5.5851   54.4506   24.3151 C.ar      1 UNK         0.0000 
      5 C5          4.3153   54.4967   24.8983 C.ar      1 UNK         0.0000 
      6 C6          4.1777   54.4979   26.2846 C.ar      1 UNK         0.0000 
      7 N7          3.1841   54.4869   24.0696 N.pl3     1 UNK         0.0000 
      8 C8          3.3034   54.1305   22.6335 C.3       1 UNK         0.0000 
      9 H9          2.7037   54.8555   22.0811 H         1 UNK         0.0000 
     10 C10         4.7459   54.2380   22.0261 C.2       1 UNK         0.0000 
     11 O11         4.9920   54.1885   20.8246 O.2       1 UNK         0.0000 
     12 N12         5.7260   54.3951   22.9326 N.am      1 UNK         0.0000 
     13 C13         2.7365   52.7097   22.3239 C.3       1 UNK         0.0000 
     14 C14         1.4964   52.2802   23.1216 C.2       1 UNK         0.0000 
     15 O15         0.5923   53.0874   23.3350 O.2       1 UNK         0.0000 
     16 N16         1.4772   50.9940   23.5194 N.am      1 UNK         0.0000 
     17 C17         0.4536   50.3775   24.2480 C.ar      1 UNK         0.0000 
     18 C18        -0.0547   49.2046   23.6828 C.ar      1 UNK         0.0000 
     19 C19        -1.0990   48.5185   24.2943 C.ar      1 UNK         0.0000 
     20 C20        -1.6338   48.9972   25.4855 C.ar      1 UNK         0.0000 
     21 C21        -1.1064   50.1410   26.0817 C.ar      1 UNK         0.0000 
     22 C22        -0.0515   50.8405   25.4878 C.ar      1 UNK         0.0000 
     23 S23         0.7036   52.1855   26.3949 S.3       1 UNK         0.0000 
     24 C24         1.0586   51.6339   28.1049 C.3       1 UNK         0.0000 
     25 C25         1.8142   52.6532   29.0075 C.3       1 UNK         0.0000 
     26 C26         1.0840   54.0092   29.2156 C.3       1 UNK         0.0000 
     27 F27         0.9745   54.7087   28.0841 F         1 UNK         0.0000 
     28 F28         1.7487   54.7784   30.0815 F         1 UNK         0.0000 
     29 F29        -0.1526   53.8510   29.6913 F         1 UNK         0.0000 
     30 F30         3.0295   52.8816   28.5066 F         1 UNK         0.0000 
     31 F31         2.0222   52.0979   30.2076 F         1 UNK         0.0000 
     32 F32         1.8018   50.5292   28.0341 F         1 UNK         0.0000 
     33 F33        -0.0861   51.2977   28.7001 F         1 UNK         0.0000 
     34 H34         5.2105   54.5102   28.1729 H         1 UNK         0.0000 
     35 H35         7.4564   54.4801   27.1538 H         1 UNK         0.0000 
     36 H36         7.7005   54.4428   24.6866 H         1 UNK         0.0000 
     37 H37         3.1934   54.5169   26.7268 H         1 UNK         0.0000 
     38 H38         2.2470   54.4406   24.4506 H         1 UNK         0.0000 
     39 H39         6.6490   54.4336   22.5307 H         1 UNK         0.0000 
     40 H40         3.5075   51.9565   22.4762 H         1 UNK         0.0000 
     41 H41         2.4507   52.6610   21.2719 H         1 UNK         0.0000 
     42 H42         2.0656   50.3703   22.9898 H         1 UNK         0.0000 
     43 H43         0.3420   48.8289   22.7494 H         1 UNK         0.0000 
     44 H44        -1.4948   47.6180   23.8478 H         1 UNK         0.0000 
     45 H45        -2.4310   48.4634   25.9822 H         1 UNK         0.0000 
     46 H46        -1.5188   50.4541   27.0275 H         1 UNK         0.0000 
@<TRIPOS>BOND
     1    1    6 ar   
     2    1    2 ar   
     3    1   34 1    
     4    2    3 ar   
     5    2   35 1    
     6    3    4 ar   
     7    3   36 1    
     8    4   12 1    
     9    4    5 ar   
    10    5    6 ar   
    11    5    7 1    
    12    6   37 1    
    13    7    8 1    
    14    7   38 1    
    15    8    9 1    
    16    8   10 1    
    17    8   13 1    
    18   10   11 2    
    19   10   12 am   BACKBONE|DICT|INTERRES
    20   12   39 1    
    21   13   14 1    
    22   13   40 1    
    23   13   41 1    
    24   14   15 2    
    25   14   16 am   BACKBONE|DICT|INTERRES
    26   16   17 1    
    27   16   42 1    
    28   17   22 ar   
    29   17   18 ar   
    30   18   19 ar   
    31   18   43 1    
    32   19   20 ar   
    33   19   44 1    
    34   20   21 ar   
    35   20   45 1    
    36   21   22 ar   
    37   21   46 1    
    38   22   23 1    
    39   23   24 1    
    40   24   25 1    
    41   24   32 1    
    42   24   33 1    
    43   25   26 1    
    44   25   30 1    
    45   25   31 1    
    46   26   27 1    
    47   26   28 1    
    48   26   29 1    
@<TRIPOS>SUBSTRUCTURE
     1 UNK         1 GROUP             0       ****    0 ROOT    
