@<TRIPOS>MOLECULE
ZINC41645280_6193
55   56    1
SMALL
USER_CHARGES


@<TRIPOS>ATOM
      1 C1          0.8016   53.6332   23.5529 C.3       1 UNK         0.0000 
      2 C2          1.0409   52.4722   22.5600 C.3       1 UNK         0.0000 
      3 H3          0.7495   52.7551   21.5454 H         1 UNK         0.0000 
      4 C4          0.2505   51.2251   23.0339 C.3       1 UNK         0.0000 
      5 C5          0.5403   49.9555   22.2202 C.3       1 UNK         0.0000 
      6 C6          2.0437   49.6691   22.1901 C.3       1 UNK         0.0000 
      7 C7          2.8261   50.8613   21.6238 C.3       1 UNK         0.0000 
      8 N8          2.5671   52.1338   22.4812 N.4       1 UNK         0.0000 
      9 C9          3.4780   53.3644   22.1272 C.3       1 UNK         0.0000 
     10 H10         2.7969   54.0928   21.6815 H         1 UNK         0.0000 
     11 C11         4.0597   53.9286   23.4448 C.3       1 UNK         0.0000 
     12 C12         4.6193   53.0774   21.0981 C.3       1 UNK         0.0000 
     13 N13         5.0009   54.2540   20.3208 N.am      1 UNK         0.0000 
     14 C14         5.9729   55.1361   20.6533 C.2       1 UNK         0.0000 
     15 O15         6.5990   55.0699   21.7132 O.2       1 UNK         0.0000 
     16 C16         6.2215   56.2384   19.6765 C.2       1 UNK         0.0000 
     17 O17         6.7047   57.3048   20.0632 O.2       1 UNK         0.0000 
     18 N18         5.8664   55.9540   18.3963 N.am      1 UNK         0.0000 
     19 C19         5.7545   56.7991   17.2795 C.ar      1 UNK         0.0000 
     20 C20         6.1969   58.1271   17.2379 C.ar      1 UNK         0.0000 
     21 C21         5.9660   58.8966   16.1019 C.ar      1 UNK         0.0000 
     22 C22         5.2752   58.3704   15.0059 C.ar      1 UNK         0.0000 
     23 C23         4.8870   57.0258   15.0300 C.ar      1 UNK         0.0000 
     24 C24         5.1271   56.2465   16.1588 C.ar      1 UNK         0.0000 
     25 C25         4.9417   59.2368   13.8168 C.2       1 UNK         0.0000 
     26 O26         4.8375   58.7460   12.6908 O.2       1 UNK         0.0000 
     27 N27         4.7427   60.5420   14.0796 N.am      1 UNK         0.0000 
     28 C28         4.4203   61.5622   13.0901 C.3       1 UNK         0.0000 
     29 H29        -0.2657   53.8165   23.6831 H         1 UNK         0.0000 
     30 H30         1.1941   53.4073   24.5448 H         1 UNK         0.0000 
     31 H31         1.2305   54.5772   23.2169 H         1 UNK         0.0000 
     32 H32        -0.8201   51.4313   22.9935 H         1 UNK         0.0000 
     33 H33         0.4804   51.0205   24.0818 H         1 UNK         0.0000 
     34 H34         0.1617   50.0699   21.2027 H         1 UNK         0.0000 
     35 H35         0.0074   49.1057   22.6507 H         1 UNK         0.0000 
     36 H36         2.2418   48.7842   21.5826 H         1 UNK         0.0000 
     37 H37         2.4006   49.4291   23.1933 H         1 UNK         0.0000 
     38 H38         2.5476   51.0845   20.5913 H         1 UNK         0.0000 
     39 H39         3.8892   50.6302   21.6914 H         1 UNK         0.0000 
     40 H40         4.5229   54.8960   23.2679 H         1 UNK         0.0000 
     41 H41         3.3184   54.0871   24.2233 H         1 UNK         0.0000 
     42 H42         4.8381   53.2961   23.8670 H         1 UNK         0.0000 
     43 H43         4.3311   52.3621   20.3309 H         1 UNK         0.0000 
     44 H44         5.4942   52.6462   21.5928 H         1 UNK         0.0000 
     45 H45         4.4798   54.3938   19.4677 H         1 UNK         0.0000 
     46 H46         5.5648   55.0109   18.2131 H         1 UNK         0.0000 
     47 H47         6.7014   58.5980   18.0675 H         1 UNK         0.0000 
     48 H48         6.3049   59.9238   16.0828 H         1 UNK         0.0000 
     49 H49         4.3719   56.5867   14.1858 H         1 UNK         0.0000 
     50 H50         4.7912   55.2188   16.1607 H         1 UNK         0.0000 
     51 H51         4.7064   60.8479   15.0545 H         1 UNK         0.0000 
     52 H52         3.4495   62.0015   13.3222 H         1 UNK         0.0000 
     53 H53         4.3827   61.1759   12.0704 H         1 UNK         0.0000 
     54 H54         5.1697   62.3534   13.1250 H         1 UNK         0.0000 
     55 H55         2.8331   51.8658   23.4180 H         1 UNK         0.0000 
@<TRIPOS>BOND
     1    1    2 1    
     2    1   29 1    
     3    1   30 1    
     4    1   31 1    
     5    2    3 1    
     6    2    8 1    
     7    2    4 1    
     8    4    5 1    
     9    4   32 1    
    10    4   33 1    
    11    5    6 1    
    12    5   34 1    
    13    5   35 1    
    14    6    7 1    
    15    6   36 1    
    16    6   37 1    
    17    7    8 1    
    18    7   38 1    
    19    7   39 1    
    20    8    9 1    
    21    8   55 1    
    22    9   10 1    
    23    9   11 1    
    24    9   12 1    
    25   11   40 1    
    26   11   41 1    
    27   11   42 1    
    28   12   13 1    
    29   12   43 1    
    30   12   44 1    
    31   13   14 am   BACKBONE|DICT|INTERRES
    32   13   45 1    
    33   14   15 2    
    34   14   16 1    
    35   16   17 2    
    36   16   18 am   BACKBONE|DICT|INTERRES
    37   18   19 1    
    38   18   46 1    
    39   19   24 ar   
    40   19   20 ar   
    41   20   21 ar   
    42   20   47 1    
    43   21   22 ar   
    44   21   48 1    
    45   22   23 ar   
    46   22   25 1    
    47   23   24 ar   
    48   23   49 1    
    49   24   50 1    
    50   25   26 2    
    51   25   27 am   BACKBONE|DICT|INTERRES
    52   27   28 1    
    53   27   51 1    
    54   28   52 1    
    55   28   53 1    
    56   28   54 1    
@<TRIPOS>SUBSTRUCTURE
     1 UNK         1 GROUP             0       ****    0 ROOT    
