ZINC20612748_531
                    3D
 Schrodinger Suite 2024-2.
 60 62  0  0  1  0            999 V2000
    9.7826   50.7478   15.9902 C   0  0  0  0  0  0
    9.7369   52.1816   16.4810 C   0  0  0  0  0  0
   10.8979   52.8823   16.8040 C   0  0  0  0  0  0
   10.7283   54.1771   17.2842 C   0  0  0  0  0  0
    9.5024   54.7384   17.4342 N   0  0  0  0  0  0
    8.4063   54.0090   17.0697 C   0  0  0  0  0  0
    8.5025   52.7332   16.6027 N   0  0  0  0  0  0
    7.1302   54.5052   17.1443 N   0  5  0  0  0  0
    6.7332   55.9147   17.7117 S   0  0  0  0  0  0
    5.3995   56.3432   17.2785 O   0  0  0  0  0  0
    7.7866   56.9371   17.7132 O   0  0  0  0  0  0
    6.4993   55.4714   19.4348 C   0  0  0  0  0  0
    5.3987   54.6905   19.7908 C   0  0  0  0  0  0
    5.1885   54.3550   21.1236 C   0  0  0  0  0  0
    6.0722   54.8032   22.1087 C   0  0  0  0  0  0
    7.1836   55.5781   21.7474 C   0  0  0  0  0  0
    7.4006   55.9018   20.4103 C   0  0  0  0  0  0
    5.7670   54.4015   23.4188 N   0  0  0  0  0  0
    6.2314   54.8494   24.6050 C   0  0  0  0  0  0
    7.1044   55.6968   24.7467 O   0  0  0  0  0  0
    5.6582   54.1458   25.8460 C   0  0  0  0  0  0
    6.2251   54.6482   27.1958 C   0  0  0  0  0  0
    5.6340   53.8331   28.3760 C   0  0  0  0  0  0
    4.1521   53.8540   28.2598 N   0  0  0  0  0  0
    3.6596   53.2896   26.9972 C   0  0  0  0  0  0
    4.1139   54.1871   25.8419 C   0  0  0  0  0  0
    3.3781   53.9669   29.3745 C   0  0  0  0  0  0
    3.9044   53.8552   30.4808 O   0  0  0  0  0  0
    1.8713   54.4227   29.3821 C   0  0  0  0  0  0
    1.1442   54.4804   28.0292 C   0  0  0  0  0  0
    1.8447   55.8882   29.9056 C   0  0  0  0  0  0
    1.0389   53.5219   30.3370 C   0  0  0  0  0  0
   10.7804   50.4758   15.6448 H   0  0  0  0  0  0
    9.5051   50.0699   16.7982 H   0  0  0  0  0  0
    9.0888   50.5957   15.1626 H   0  0  0  0  0  0
   11.8770   52.4370   16.7116 H   0  0  0  0  0  0
   11.5741   54.7794   17.5806 H   0  0  0  0  0  0
    4.7092   54.3477   19.0311 H   0  0  0  0  0  0
    4.3283   53.7511   21.3775 H   0  0  0  0  0  0
    7.8994   55.9187   22.4779 H   0  0  0  0  0  0
    8.2700   56.4804   20.1304 H   0  0  0  0  0  0
    5.0308   53.7143   23.4730 H   0  0  0  0  0  0
    5.9525   53.1136   25.6790 H   0  0  0  0  0  0
    5.9673   55.6922   27.3762 H   0  0  0  0  0  0
    7.3052   54.5058   27.2516 H   0  0  0  0  0  0
    5.9830   54.3251   29.2839 H   0  0  0  0  0  0
    5.9862   52.8017   28.3423 H   0  0  0  0  0  0
    4.2060   52.3644   26.9015 H   0  0  0  0  0  0
    2.6312   52.9474   26.9621 H   0  0  0  0  0  0
    3.6860   53.7344   24.9462 H   0  0  0  0  0  0
    3.7112   55.1893   26.0043 H   0  0  0  0  0  0
    0.3005   55.1519   28.0816 H   0  0  0  0  0  0
    0.7600   53.5120   27.7046 H   0  0  0  0  0  0
    1.7660   54.8968   27.2522 H   0  0  0  0  0  0
    2.3040   55.9982   30.8814 H   0  0  0  0  0  0
    2.3642   56.5747   29.2304 H   0  0  0  0  0  0
    0.8255   56.2646   30.0179 H   0  0  0  0  0  0
    1.4801   53.4305   31.3283 H   0  0  0  0  0  0
    0.0289   53.9120   30.4775 H   0  0  0  0  0  0
    0.9370   52.5081   29.9430 H   0  0  0  0  0  0
  1  2  1  0  0  0
  1 33  1  0  0  0
  1 34  1  0  0  0
  1 35  1  0  0  0
  2  7  2  0  0  0
  2  3  1  0  0  0
  3  4  2  0  0  0
  3 36  1  0  0  0
  4  5  1  0  0  0
  4 37  1  0  0  0
  5  6  2  0  0  0
  6  7  1  0  0  0
  6  8  1  0  0  0
  8  9  1  0  0  0
  9 10  2  0  0  0
  9 11  2  0  0  0
  9 12  1  0  0  0
 12 17  2  0  0  0
 12 13  1  0  0  0
 13 14  2  0  0  0
 13 38  1  0  0  0
 14 15  1  0  0  0
 14 39  1  0  0  0
 15 16  2  0  0  0
 15 18  1  0  0  0
 16 17  1  0  0  0
 16 40  1  0  0  0
 17 41  1  0  0  0
 18 19  1  0  0  0
 18 42  1  0  0  0
 19 20  2  0  0  0
 19 21  1  0  0  0
 21 26  1  0  0  0
 21 22  1  0  0  0
 21 43  1  0  0  0
 22 23  1  0  0  0
 22 44  1  0  0  0
 22 45  1  0  0  0
 23 24  1  0  0  0
 23 46  1  0  0  0
 23 47  1  0  0  0
 24 25  1  0  0  0
 24 27  1  0  0  0
 25 26  1  0  0  0
 25 48  1  0  0  0
 25 49  1  0  0  0
 26 50  1  0  0  0
 26 51  1  0  0  0
 27 28  2  0  0  0
 27 29  1  0  0  0
 29 30  1  0  0  0
 29 31  1  0  0  0
 29 32  1  0  0  0
 30 52  1  0  0  0
 30 53  1  0  0  0
 30 54  1  0  0  0
 31 55  1  0  0  0
 31 56  1  0  0  0
 31 57  1  0  0  0
 32 58  1  0  0  0
 32 59  1  0  0  0
 32 60  1  0  0  0
M  CHG  1   8  -1
M  END
> <i_i_glide_confnum>
79

> <i_i_glide_lignum>
532

> <i_i_glide_posenum>
201

> <i_i_glide_rotatable_bonds>
8

> <i_m_Source_File_Index>
377

> <b_m_subgroup_collapsed>
0

> <r_i_docking_score>
-6.70505

> <r_i_glide_ecoul>
-5.89424

> <r_i_glide_eff_state_penalty>
0

> <r_i_glide_einternal>
5.24155

> <r_i_glide_emodel>
-64.5951

> <r_i_glide_energy>
-47.3859

> <r_i_glide_erotb>
0.669587

> <r_i_glide_esite>
0

> <r_i_glide_evdw>
-41.4917

> <r_i_glide_gscore>
-6.70505

> <r_i_glide_hbond>
-0.575575

> <r_i_glide_ligand_efficiency>
-0.209533

> <r_i_glide_ligand_efficiency_ln>
-1.50144

> <r_i_glide_ligand_efficiency_sa>
-0.665225

> <r_i_glide_lipo>
-3.09989

> <r_i_glide_metal>
0

> <r_i_glide_rewards>
-0.740449

> <s_i_glide_gridfile>
wee1_glide-grid

> <s_m_Source_File>
wee1_decoys_glide_SP.sdf

> <s_m_Source_Path>
/Users/zhangxujun/Desktop

> <s_m_entry_id>
652

> <s_m_entry_name>
wee1_decoys_glide_SP.377

> <s_m_subgroup_title>
wee1_decoys_glide_SP

> <s_m_subgroupid>
wee1_decoys_glide_SP


$$$$
