ZINC48052399_4591
                    3D
 Schrodinger Suite 2024-2.
 52 54  0  0  1  0            999 V2000
   -1.0028   51.6976   29.6466 C   0  0  0  0  0  0
   -0.5987   52.4675   28.3849 C   0  0  2  0  0  0
   -0.8954   53.5039   28.5415 H   0  0  0  0  0  0
   -1.3205   51.9302   27.1420 C   0  0  0  0  0  0
   -2.2753   52.7030   26.4815 C   0  0  0  0  0  0
   -2.9340   52.2101   25.3558 C   0  0  0  0  0  0
   -2.6740   50.9149   24.9074 C   0  0  0  0  0  0
   -1.7535   50.1052   25.5851 C   0  0  0  0  0  0
   -1.0596   50.6400   26.6707 C   0  0  0  0  0  0
   -1.5171   48.7561   25.2818 N   0  0  0  0  0  0
   -2.0493   47.8973   23.8288 S   0  0  0  0  0  0
   -3.4340   48.2755   23.5334 O   0  0  0  0  0  0
   -1.6967   46.4884   24.0294 O   0  0  0  0  0  0
   -0.9141   48.6296   22.5216 C   0  0  0  0  0  0
    0.8469   52.4313   28.2107 N   0  0  0  0  0  0
    1.5508   53.4237   27.6626 C   0  0  0  0  0  0
    1.5419   54.5837   28.0768 O   0  0  0  0  0  0
    2.2347   52.9606   26.6112 N   0  0  0  0  0  0
    3.1939   53.6338   25.8500 C   0  0  0  0  0  0
    2.9323   53.6930   24.4816 C   0  0  0  0  0  0
    3.9209   54.1049   23.6015 C   0  0  0  0  0  0
    5.1582   54.4972   24.0981 C   0  0  0  0  0  0
    5.4290   54.4988   25.4709 C   0  0  0  0  0  0
    4.4461   54.0260   26.3768 C   0  0  0  0  0  0
    4.8138   53.7847   27.8528 C   0  0  0  0  0  0
    6.0909   54.4959   28.3123 C   0  0  0  0  0  0
    7.2072   54.3661   27.2841 C   0  0  0  0  0  0
    6.7783   55.0138   25.9605 C   0  0  0  0  0  0
   -2.0773   51.5112   29.6812 H   0  0  0  0  0  0
   -0.5143   50.7291   29.6775 H   0  0  0  0  0  0
   -0.7205   52.2262   30.5568 H   0  0  0  0  0  0
   -2.5118   53.6864   26.8622 H   0  0  0  0  0  0
   -3.6669   52.8202   24.8487 H   0  0  0  0  0  0
   -3.2251   50.5571   24.0549 H   0  0  0  0  0  0
   -0.3509   50.0248   27.2055 H   0  0  0  0  0  0
   -0.9367   48.2355   25.9251 H   0  0  0  0  0  0
   -1.0941   48.1176   21.5750 H   0  0  0  0  0  0
    0.1183   48.4971   22.8421 H   0  0  0  0  0  0
   -1.1316   49.6923   22.4230 H   0  0  0  0  0  0
    1.2496   51.5083   28.1969 H   0  0  0  0  0  0
    1.8690   52.1205   26.1916 H   0  0  0  0  0  0
    1.9828   53.3593   24.0869 H   0  0  0  0  0  0
    3.7287   54.1245   22.5388 H   0  0  0  0  0  0
    5.9135   54.8360   23.4040 H   0  0  0  0  0  0
    4.0113   54.0813   28.5249 H   0  0  0  0  0  0
    4.9465   52.7104   27.9875 H   0  0  0  0  0  0
    6.4240   54.0967   29.2709 H   0  0  0  0  0  0
    5.8981   55.5530   28.4807 H   0  0  0  0  0  0
    7.4754   53.3185   27.1350 H   0  0  0  0  0  0
    8.0875   54.8654   27.6821 H   0  0  0  0  0  0
    7.5375   54.8526   25.1946 H   0  0  0  0  0  0
    6.7036   56.0925   26.0898 H   0  0  0  0  0  0
  1  2  1  0  0  0
  1 29  1  0  0  0
  1 30  1  0  0  0
  1 31  1  0  0  0
  2  3  1  0  0  0
  2  4  1  0  0  0
  2 15  1  0  0  0
  4  9  2  0  0  0
  4  5  1  0  0  0
  5  6  2  0  0  0
  5 32  1  0  0  0
  6  7  1  0  0  0
  6 33  1  0  0  0
  7  8  2  0  0  0
  7 34  1  0  0  0
  8  9  1  0  0  0
  8 10  1  0  0  0
  9 35  1  0  0  0
 10 11  1  0  0  0
 10 36  1  0  0  0
 11 12  2  0  0  0
 11 13  2  0  0  0
 11 14  1  0  0  0
 14 37  1  0  0  0
 14 38  1  0  0  0
 14 39  1  0  0  0
 15 16  1  0  0  0
 15 40  1  0  0  0
 16 17  2  0  0  0
 16 18  1  0  0  0
 18 19  1  0  0  0
 18 41  1  0  0  0
 19 24  2  0  0  0
 19 20  1  0  0  0
 20 21  2  0  0  0
 20 42  1  0  0  0
 21 22  1  0  0  0
 21 43  1  0  0  0
 22 23  2  0  0  0
 22 44  1  0  0  0
 23 28  1  0  0  0
 23 24  1  0  0  0
 24 25  1  0  0  0
 25 26  1  0  0  0
 25 45  1  0  0  0
 25 46  1  0  0  0
 26 27  1  0  0  0
 26 47  1  0  0  0
 26 48  1  0  0  0
 27 28  1  0  0  0
 27 49  1  0  0  0
 27 50  1  0  0  0
 28 51  1  0  0  0
 28 52  1  0  0  0
M  END
> <i_i_glide_confnum>
12

> <i_i_glide_lignum>
4592

> <i_i_glide_posenum>
206

> <i_i_glide_rotatable_bonds>
7

> <i_m_Source_File_Index>
832

> <b_m_subgroup_collapsed>
0

> <r_i_docking_score>
-2.72839

> <r_i_glide_ecoul>
-1.80193

> <r_i_glide_eff_state_penalty>
0

> <r_i_glide_einternal>
11.4678

> <r_i_glide_emodel>
-30.432

> <r_i_glide_energy>
-33.7714

> <r_i_glide_erotb>
0.648479

> <r_i_glide_esite>
-0.16613

> <r_i_glide_evdw>
-31.9695

> <r_i_glide_gscore>
-2.72839

> <r_i_glide_hbond>
0

> <r_i_glide_ligand_efficiency>
-0.101052

> <r_i_glide_ligand_efficiency_ln>
-0.635125

> <r_i_glide_ligand_efficiency_sa>
-0.303155

> <r_i_glide_lipo>
-1.98676

> <r_i_glide_metal>
0

> <r_i_glide_rewards>
0.644779

> <s_i_glide_gridfile>
wee1_glide-grid

> <s_m_Source_File>
wee1_decoys_glide_SP.sdf

> <s_m_Source_Path>
/Users/zhangxujun/Desktop

> <s_m_entry_id>
1107

> <s_m_entry_name>
wee1_decoys_glide_SP.832

> <s_m_subgroup_title>
wee1_decoys_glide_SP

> <s_m_subgroupid>
wee1_decoys_glide_SP


$$$$
