@<TRIPOS>MOLECULE
ZINC09965920_73
52   55    1
SMALL
USER_CHARGES


@<TRIPOS>ATOM
      1 C1          0.6287   53.1021   30.6017 C.3       1 UNK         0.0000 
      2 C2          0.7848   52.9113   29.0992 C.ar      1 UNK         0.0000 
      3 C3         -0.3363   52.5974   28.3308 C.ar      1 UNK         0.0000 
      4 C4         -0.2355   52.4113   26.9533 C.ar      1 UNK         0.0000 
      5 C5          1.0119   52.4698   26.3138 C.ar      1 UNK         0.0000 
      6 C6          2.1370   52.8058   27.0950 C.ar      1 UNK         0.0000 
      7 C7          2.0305   53.0279   28.4696 C.ar      1 UNK         0.0000 
      8 Cl8         3.4577   53.4234   29.3670 Cl        1 UNK         0.0000 
      9 N9          1.1517   52.1443   24.9208 N.pl3     1 UNK         0.0000 
     10 C10         1.7968   53.1136   24.1392 C.ar      1 UNK         0.0000 
     11 O11         1.9448   54.2882   24.4817 O.2       1 UNK         0.0000 
     12 C12         2.3033   52.5549   22.8890 C.ar      1 UNK         0.0000 
     13 C13         3.1542   53.1525   21.9380 C.2       1 UNK         0.0000 
     14 C14         3.3890   52.3047   20.8431 C.2       1 UNK         0.0000 
     15 S15         2.5513   50.7894   20.9964 S.3       1 UNK         0.0000 
     16 C16         1.8941   51.2881   22.5165 C.ar      1 UNK         0.0000 
     17 N17         1.1178   50.4741   23.2691 N.2       1 UNK         0.0000 
     18 C18         0.7794   50.8615   24.4523 C.ar      1 UNK         0.0000 
     19 S19        -0.0905   49.6327   25.4897 S.3       1 UNK         0.0000 
     20 C20        -0.0960   48.0964   24.4873 C.3       1 UNK         0.0000 
     21 C21        -1.4011   47.2962   24.5487 C.2       1 UNK         0.0000 
     22 O22        -1.8026   46.7586   23.5128 O.2       1 UNK         0.0000 
     23 N23        -2.0022   47.1929   25.7559 N.am      1 UNK         0.0000 
     24 C24        -3.0516   46.4141   26.0853 C.2       1 UNK         0.0000 
     25 O25        -3.6965   45.6969   25.3141 O.2       1 UNK         0.0000 
     26 N26        -3.2958   46.4967   27.3989 N.am      1 UNK         0.0000 
     27 C27        -4.3276   45.7562   28.1090 C.3       1 UNK         0.0000 
     28 C28         4.3238   52.6217   19.6838 C.3       1 UNK         0.0000 
     29 C29         4.6263   54.1342   19.6732 C.3       1 UNK         0.0000 
     30 C30         5.0082   54.6430   21.0750 C.3       1 UNK         0.0000 
     31 C31         3.8424   54.5082   22.0819 C.3       1 UNK         0.0000 
     32 H32         0.7880   54.1467   30.8717 H         1 UNK         0.0000 
     33 H33        -0.3550   52.7919   30.9593 H         1 UNK         0.0000 
     34 H34         1.3644   52.5028   31.1397 H         1 UNK         0.0000 
     35 H35        -1.2957   52.4914   28.8088 H         1 UNK         0.0000 
     36 H36        -1.1281   52.1715   26.3933 H         1 UNK         0.0000 
     37 H37         3.1137   52.8744   26.6366 H         1 UNK         0.0000 
     38 H38         0.6993   47.4598   24.8724 H         1 UNK         0.0000 
     39 H39         0.1274   48.2696   23.4371 H         1 UNK         0.0000 
     40 H40        -1.5796   47.6951   26.5327 H         1 UNK         0.0000 
     41 H41        -2.7249   47.1332   27.9556 H         1 UNK         0.0000 
     42 H42        -4.0150   45.6333   29.1450 H         1 UNK         0.0000 
     43 H43        -4.4939   44.7673   27.6786 H         1 UNK         0.0000 
     44 H44        -5.2661   46.3104   28.0942 H         1 UNK         0.0000 
     45 H45         5.2629   52.0833   19.8067 H         1 UNK         0.0000 
     46 H46         3.9036   52.3051   18.7283 H         1 UNK         0.0000 
     47 H47         5.4297   54.3402   18.9652 H         1 UNK         0.0000 
     48 H48         3.7561   54.6827   19.3069 H         1 UNK         0.0000 
     49 H49         5.8713   54.0835   21.4388 H         1 UNK         0.0000 
     50 H50         5.3334   55.6828   21.0223 H         1 UNK         0.0000 
     51 H51         3.1077   55.2965   21.9225 H         1 UNK         0.0000 
     52 H52         4.2163   54.6537   23.0955 H         1 UNK         0.0000 
@<TRIPOS>BOND
     1    1    2 1    
     2    1   32 1    
     3    1   33 1    
     4    1   34 1    
     5    2    7 ar   
     6    2    3 ar   
     7    3    4 ar   
     8    3   35 1    
     9    4    5 ar   
    10    4   36 1    
    11    5    6 ar   
    12    5    9 1    
    13    6    7 ar   
    14    6   37 1    
    15    7    8 1    
    16    9   18 ar   
    17    9   10 ar   
    18   10   11 2    
    19   10   12 ar   
    20   12   16 ar   
    21   12   13 1    
    22   13   31 1    
    23   13   14 2    
    24   14   15 1    
    25   14   28 1    
    26   15   16 1    
    27   16   17 ar   
    28   17   18 ar   
    29   18   19 1    
    30   19   20 1    
    31   20   21 1    
    32   20   38 1    
    33   20   39 1    
    34   21   22 2    
    35   21   23 am   BACKBONE|DICT|INTERRES
    36   23   24 am   BACKBONE|DICT|INTERRES
    37   23   40 1    
    38   24   25 2    
    39   24   26 am   BACKBONE|DICT|INTERRES
    40   26   27 1    
    41   26   41 1    
    42   27   42 1    
    43   27   43 1    
    44   27   44 1    
    45   28   29 1    
    46   28   45 1    
    47   28   46 1    
    48   29   30 1    
    49   29   47 1    
    50   29   48 1    
    51   30   31 1    
    52   30   49 1    
    53   30   50 1    
    54   31   51 1    
    55   31   52 1    
@<TRIPOS>SUBSTRUCTURE
     1 UNK         1 GROUP             0       ****    0 ROOT    
