@<TRIPOS>MOLECULE
ZINC35863310_1186
70   74    1
SMALL
USER_CHARGES


@<TRIPOS>ATOM
      1 C1         -0.5863   51.7491   30.4874 C.3       1 UNK         0.0000 
      2 C2         -1.0311   51.7765   29.0230 C.3       1 UNK         0.0000 
      3 C3         -0.0956   52.6893   28.1986 C.2       1 UNK         0.0000 
      4 O4         -0.0955   53.8881   28.4817 O.2       1 UNK         0.0000 
      5 N5          0.6237   52.1966   27.1548 N.am      1 UNK         0.0000 
      6 C6          0.8733   50.7531   27.0205 C.3       1 UNK         0.0000 
      7 C7          0.4559   50.3833   25.5900 C.3       1 UNK         0.0000 
      8 C8          1.1044   51.2695   24.5360 C.ar      1 UNK         0.0000 
      9 C9          1.3097   50.7624   23.2525 C.ar      1 UNK         0.0000 
     10 C10         1.9678   51.5042   22.2825 C.ar      1 UNK         0.0000 
     11 C11         2.3907   52.8097   22.5564 C.ar      1 UNK         0.0000 
     12 C12         2.1061   53.3406   23.8185 C.ar      1 UNK         0.0000 
     13 C13         1.5574   52.5709   24.8646 C.ar      1 UNK         0.0000 
     14 C14         1.5364   53.0691   26.3481 C.3       1 UNK         0.0000 
     15 H15         1.1044   54.0677   26.3421 H         1 UNK         0.0000 
     16 C16         2.9384   53.3341   26.9909 C.ar      1 UNK         0.0000 
     17 C17         3.2413   52.8680   28.2852 C.ar      1 UNK         0.0000 
     18 C18         4.4780   53.1093   28.8816 C.ar      1 UNK         0.0000 
     19 C19         5.4474   53.8426   28.2055 C.ar      1 UNK         0.0000 
     20 C20         5.1715   54.3385   26.9366 C.ar      1 UNK         0.0000 
     21 C21         3.9308   54.0967   26.3449 C.ar      1 UNK         0.0000 
     22 F22         6.1060   55.0630   26.2791 F         1 UNK         0.0000 
     23 O23         3.1045   53.6018   21.6686 O.3       1 UNK         0.0000 
     24 C24         3.8111   52.9682   20.5911 C.3       1 UNK         0.0000 
     25 C25         4.2858   53.9747   19.5598 C.2       1 UNK         0.0000 
     26 C26         4.0847   54.0797   18.1931 C.2       1 UNK         0.0000 
     27 C27         4.8085   55.1850   17.7523 C.2       1 UNK         0.0000 
     28 C28         5.3856   55.7673   18.8782 C.2       1 UNK         0.0000 
     29 O29         5.1044   54.9844   19.9649 O.3       1 UNK         0.0000 
     30 C30         6.3051   56.8780   19.0456 C.2       1 UNK         0.0000 
     31 O31         7.0296   56.8967   20.0454 O.2       1 UNK         0.0000 
     32 N32         6.3730   57.8355   18.0691 N.am      1 UNK         0.0000 
     33 C33         5.1948   58.2709   17.2774 C.3       1 UNK         0.0000 
     34 C34         5.6418   58.5839   15.8373 C.3       1 UNK         0.0000 
     35 N35         6.7043   59.6942   15.8792 N.4       1 UNK         0.0000 
     36 C36         7.9180   59.2277   16.7017 C.3       1 UNK         0.0000 
     37 H37         8.3940   58.3966   16.1750 H         1 UNK         0.0000 
     38 C38         7.4797   58.8194   18.1346 C.3       1 UNK         0.0000 
     39 C39         8.8904   60.4173   16.7128 C.3       1 UNK         0.0000 
     40 H40        -1.0487   50.9079   31.0078 H         1 UNK         0.0000 
     41 H41         0.4969   51.6967   30.6026 H         1 UNK         0.0000 
     42 H42        -0.8956   52.6532   31.0104 H         1 UNK         0.0000 
     43 H43        -2.0636   52.0967   28.9517 H         1 UNK         0.0000 
     44 H44        -1.1424   50.7671   28.6552 H         1 UNK         0.0000 
     45 H45         1.9044   50.5165   27.2817 H         1 UNK         0.0000 
     46 H46         0.3188   50.0967   27.6776 H         1 UNK         0.0000 
     47 H47         0.6994   49.3342   25.4120 H         1 UNK         0.0000 
     48 H48        -0.6302   50.4443   25.5050 H         1 UNK         0.0000 
     49 H49         0.9881   49.7587   23.0154 H         1 UNK         0.0000 
     50 H50         2.1294   51.0326   21.3276 H         1 UNK         0.0000 
     51 H51         2.3798   54.3681   23.9840 H         1 UNK         0.0000 
     52 H52         2.5288   52.2921   28.8531 H         1 UNK         0.0000 
     53 H53         4.6850   52.7206   29.8672 H         1 UNK         0.0000 
     54 H54         6.4068   54.0346   28.6640 H         1 UNK         0.0000 
     55 H55         3.7841   54.5368   25.3789 H         1 UNK         0.0000 
     56 H56         4.6729   52.4368   20.9971 H         1 UNK         0.0000 
     57 H57         3.1907   52.2516   20.0557 H         1 UNK         0.0000 
     58 H58         3.5049   53.4023   17.5828 H         1 UNK         0.0000 
     59 H59         4.9025   55.5112   16.7271 H         1 UNK         0.0000 
     60 H60         4.3409   57.5962   17.3082 H         1 UNK         0.0000 
     61 H61         4.8225   59.2124   17.6817 H         1 UNK         0.0000 
     62 H62         6.0638   57.7234   15.3143 H         1 UNK         0.0000 
     63 H63         4.8211   58.9947   15.2458 H         1 UNK         0.0000 
     64 H64         6.3076   60.5182   16.3412 H         1 UNK         0.0000 
     65 H65         7.0453   59.6967   18.6131 H         1 UNK         0.0000 
     66 H66         8.3373   58.4873   18.7240 H         1 UNK         0.0000 
     67 H67         9.7945   60.1768   17.2731 H         1 UNK         0.0000 
     68 H68         9.2031   60.6912   15.7038 H         1 UNK         0.0000 
     69 H69         8.4405   61.3000   17.1713 H         1 UNK         0.0000 
     70 H70         6.9789   59.9725   14.9482 H         1 UNK         0.0000 
@<TRIPOS>BOND
     1    1    2 1    
     2    1   40 1    
     3    1   41 1    
     4    1   42 1    
     5    2    3 1    
     6    2   43 1    
     7    2   44 1    
     8    3    4 2    
     9    3    5 am   BACKBONE|DICT|INTERRES
    10    5   14 1    
    11    5    6 1    
    12    6    7 1    
    13    6   45 1    
    14    6   46 1    
    15    7    8 1    
    16    7   47 1    
    17    7   48 1    
    18    8   13 ar   
    19    8    9 ar   
    20    9   10 ar   
    21    9   49 1    
    22   10   11 ar   
    23   10   50 1    
    24   11   12 ar   
    25   11   23 1    
    26   12   13 ar   
    27   12   51 1    
    28   13   14 1    
    29   14   15 1    
    30   14   16 1    
    31   16   21 ar   
    32   16   17 ar   
    33   17   18 ar   
    34   17   52 1    
    35   18   19 ar   
    36   18   53 1    
    37   19   20 ar   
    38   19   54 1    
    39   20   21 ar   
    40   20   22 1    
    41   21   55 1    
    42   23   24 1    
    43   24   25 1    
    44   24   56 1    
    45   24   57 1    
    46   25   29 1    
    47   25   26 2    
    48   26   27 1    
    49   26   58 1    
    50   27   28 2    
    51   27   59 1    
    52   28   29 1    
    53   28   30 1    
    54   30   31 2    
    55   30   32 am   BACKBONE|DICT|INTERRES
    56   32   38 1    
    57   32   33 1    
    58   33   34 1    
    59   33   60 1    
    60   33   61 1    
    61   34   35 1    
    62   34   62 1    
    63   34   63 1    
    64   35   36 1    
    65   35   64 1    
    66   35   70 1    
    67   36   37 1    
    68   36   38 1    
    69   36   39 1    
    70   38   65 1    
    71   38   66 1    
    72   39   67 1    
    73   39   68 1    
    74   39   69 1    
@<TRIPOS>SUBSTRUCTURE
     1 UNK         1 GROUP             0       ****    0 ROOT    
