@<TRIPOS>MOLECULE
ZINC19757554_1572
40   42    1
SMALL
USER_CHARGES


@<TRIPOS>ATOM
      1 C1          4.6411   52.3805   20.4335 C.3       1 UNK         0.0000 
      2 C2          3.1085   52.3611   20.5551 C.3       1 UNK         0.0000 
      3 C3          2.6175   52.1418   21.9970 C.3       1 UNK         0.0000 
      4 H4          3.1044   51.2478   22.3939 H         1 UNK         0.0000 
      5 C5          1.0843   51.9434   22.0956 C.3       1 UNK         0.0000 
      6 N6          0.7559   51.6549   23.5025 N.pl3     1 UNK         0.0000 
      7 C7          1.3836   52.4668   24.4589 C.ar      1 UNK         0.0000 
      8 C8          0.9742   52.5088   25.7945 C.ar      1 UNK         0.0000 
      9 C9          1.6523   53.2756   26.7523 C.ar      1 UNK         0.0000 
     10 C10         2.7790   54.0061   26.3566 C.ar      1 UNK         0.0000 
     11 C11         3.2040   53.9886   25.0282 C.ar      1 UNK         0.0000 
     12 C12         2.5192   53.2184   24.0893 C.ar      1 UNK         0.0000 
     13 O13         2.9901   53.2739   22.7912 O.3       1 UNK         0.0000 
     14 C14         1.1512   53.3174   28.1640 C.2       1 UNK         0.0000 
     15 C15         1.4071   54.3155   29.1116 C.2       1 UNK         0.0000 
     16 S16         0.5489   53.9715   30.5861 S.3       1 UNK         0.0000 
     17 C17        -0.0502   52.5394   29.8284 C.2       1 UNK         0.0000 
     18 N18         0.3579   52.3523   28.6054 N.2       1 UNK         0.0000 
     19 N19        -0.8956   51.6967   30.4817 N.pl3     1 UNK         0.0000 
     20 C20        -0.5471   50.9730   23.6578 C.3       1 UNK         0.0000 
     21 C21        -0.4156   49.7288   24.5610 C.2       1 UNK         0.0000 
     22 O22         0.3044   48.7909   24.2342 O.2       1 UNK         0.0000 
     23 N23        -1.1384   49.6884   25.6817 N.am      1 UNK         0.0000 
     24 H24         4.9463   52.5146   19.3948 H         1 UNK         0.0000 
     25 H25         5.0770   53.1929   21.0158 H         1 UNK         0.0000 
     26 H26         5.0785   51.4444   20.7816 H         1 UNK         0.0000 
     27 H27         2.7170   51.5720   19.9113 H         1 UNK         0.0000 
     28 H28         2.7044   53.2967   20.1667 H         1 UNK         0.0000 
     29 H29         0.6962   51.1713   21.4300 H         1 UNK         0.0000 
     30 H30         0.6092   52.8967   21.8599 H         1 UNK         0.0000 
     31 H31         0.1058   51.9511   26.1006 H         1 UNK         0.0000 
     32 H32         3.3244   54.6015   27.0737 H         1 UNK         0.0000 
     33 H33         4.0663   54.5647   24.7265 H         1 UNK         0.0000 
     34 H34         2.0031   55.2099   29.0094 H         1 UNK         0.0000 
     35 H35        -1.2461   50.8517   30.0438 H         1 UNK         0.0000 
     36 H36        -1.1085   51.7677   31.4846 H         1 UNK         0.0000 
     37 H37        -0.9377   50.5982   22.7106 H         1 UNK         0.0000 
     38 H38        -1.2953   51.6751   24.0287 H         1 UNK         0.0000 
     39 H39        -1.0558   48.8967   26.3123 H         1 UNK         0.0000 
     40 H40        -1.7560   50.4420   25.9352 H         1 UNK         0.0000 
@<TRIPOS>BOND
     1    1    2 1    
     2    1   24 1    
     3    1   25 1    
     4    1   26 1    
     5    2    3 1    
     6    2   27 1    
     7    2   28 1    
     8    3    4 1    
     9    3   13 1    
    10    3    5 1    
    11    5    6 1    
    12    5   29 1    
    13    5   30 1    
    14    6    7 1    
    15    6   20 1    
    16    7   12 ar   
    17    7    8 ar   
    18    8    9 ar   
    19    8   31 1    
    20    9   10 ar   
    21    9   14 1    
    22   10   11 ar   
    23   10   32 1    
    24   11   12 ar   
    25   11   33 1    
    26   12   13 1    
    27   14   18 1    
    28   14   15 2    
    29   15   16 1    
    30   15   34 1    
    31   16   17 1    
    32   17   18 2    
    33   17   19 1    
    34   19   35 1    
    35   19   36 1    
    36   20   21 1    
    37   20   37 1    
    38   20   38 1    
    39   21   22 2    
    40   21   23 am   BACKBONE|DICT|INTERRES
    41   23   39 1    
    42   23   40 1    
@<TRIPOS>SUBSTRUCTURE
     1 UNK         1 GROUP             0       ****    0 ROOT    
