@<TRIPOS>MOLECULE
ZINC09970047_4645
70   74    1
SMALL
USER_CHARGES


@<TRIPOS>ATOM
      1 C1         -0.1986   52.7686   24.6565 C.ar      1 UNK         0.0000 
      2 C2          1.0226   53.2869   24.2516 C.ar      1 UNK         0.0000 
      3 C3          2.0698   53.4431   25.1841 C.ar      1 UNK         0.0000 
      4 C4          1.8985   53.0583   26.5488 C.ar      1 UNK         0.0000 
      5 C5          0.6351   52.4970   26.9150 C.ar      1 UNK         0.0000 
      6 C6         -0.3977   52.3794   25.9765 C.ar      1 UNK         0.0000 
      7 S7         -2.0227   51.8184   26.4676 S.o2      1 UNK         0.0000 
      8 O8         -2.9542   52.8887   26.0826 O.2       1 UNK         0.0000 
      9 O9         -1.9183   51.3828   27.8650 O.2       1 UNK         0.0000 
     10 N10        -2.3515   50.3895   25.4640 N.pl3     1 UNK         0.0000 
     11 C11        -1.5330   49.1651   25.6388 C.3       1 UNK         0.0000 
     12 C12        -0.6987   48.8448   24.3843 C.3       1 UNK         0.0000 
     13 C13        -1.6292   48.7989   23.1343 C.3       1 UNK         0.0000 
     14 C14        -2.3492   50.1595   22.9554 C.3       1 UNK         0.0000 
     15 C15        -3.1617   50.4985   24.2199 C.3       1 UNK         0.0000 
     16 C16        -0.8062   48.4964   21.8644 C.2       1 UNK         0.0000 
     17 O17        -1.2051   47.6501   21.0655 O.2       1 UNK         0.0000 
     18 N18         0.3324   49.1906   21.6857 N.am      1 UNK         0.0000 
     19 C19         1.2914   49.0535   20.5883 C.3       1 UNK         0.0000 
     20 C20         0.7361   49.4992   19.2151 C.3       1 UNK         0.0000 
     21 C21        -0.0190   50.8409   19.1336 C.3       1 UNK         0.0000 
     22 C22         0.4205   51.9785   20.0759 C.3       1 UNK         0.0000 
     23 C23         1.9341   52.1663   20.2852 C.3       1 UNK         0.0000 
     24 C24         2.5433   51.2468   21.3513 C.3       1 UNK         0.0000 
     25 C25         2.6148   49.7671   20.9457 C.3       1 UNK         0.0000 
     26 C26         3.0025   53.2847   27.4499 C.ar      1 UNK         0.0000 
     27 C27         4.2121   53.8141   26.9310 C.ar      1 UNK         0.0000 
     28 C28         4.2798   54.0954   25.5478 C.ar      1 UNK         0.0000 
     29 N29         3.2215   53.9707   24.7231 N.ar      1 UNK         0.0000 
     30 C30         5.5779   54.4975   24.8565 C.3       1 UNK         0.0000 
     31 C31         6.6069   55.0936   25.8130 C.3       1 UNK         0.0000 
     32 C32         6.7584   54.1940   27.0446 C.3       1 UNK         0.0000 
     33 C33         5.4357   54.1051   27.8234 C.3       1 UNK         0.0000 
     34 C34         2.8835   52.9650   28.9128 C.2       1 UNK         0.0000 
     35 O35         3.0064   53.9076   29.7316 O.co2     1 UNK         0.0000 
     36 O36         2.6967   51.7674   29.2293 O.co2     1 UNK         0.0000 
     37 H37        -1.0074   52.7042   23.9460 H         1 UNK         0.0000 
     38 H38         1.1676   53.5942   23.2247 H         1 UNK         0.0000 
     39 H39         0.4589   52.2025   27.9393 H         1 UNK         0.0000 
     40 H40        -2.1943   48.3479   25.9349 H         1 UNK         0.0000 
     41 H41        -0.8581   49.3177   26.4818 H         1 UNK         0.0000 
     42 H42        -0.2178   47.8802   24.5683 H         1 UNK         0.0000 
     43 H43         0.0432   49.6468   24.3231 H         1 UNK         0.0000 
     44 H44        -2.3252   47.9626   23.2410 H         1 UNK         0.0000 
     45 H45        -1.6327   50.9704   22.8158 H         1 UNK         0.0000 
     46 H46        -3.0665   50.1279   22.1282 H         1 UNK         0.0000 
     47 H47        -4.0266   49.8438   24.3355 H         1 UNK         0.0000 
     48 H48        -3.5640   51.5098   24.1474 H         1 UNK         0.0000 
     49 H49         0.5895   49.8588   22.3975 H         1 UNK         0.0000 
     50 H50         1.5523   47.9964   20.4850 H         1 UNK         0.0000 
     51 H51         0.0680   48.7192   18.8492 H         1 UNK         0.0000 
     52 H52         1.5516   49.4881   18.4896 H         1 UNK         0.0000 
     53 H53        -1.0797   50.6540   19.3077 H         1 UNK         0.0000 
     54 H54         0.0391   51.1945   18.1016 H         1 UNK         0.0000 
     55 H55        -0.0674   51.8648   21.0444 H         1 UNK         0.0000 
     56 H56         0.0101   52.8965   19.6650 H         1 UNK         0.0000 
     57 H57         2.1154   53.1926   20.6061 H         1 UNK         0.0000 
     58 H58         2.4661   52.0595   19.3385 H         1 UNK         0.0000 
     59 H59         1.9960   51.3481   22.2882 H         1 UNK         0.0000 
     60 H60         3.5552   51.5913   21.5706 H         1 UNK         0.0000 
     61 H61         3.2989   49.6852   20.1013 H         1 UNK         0.0000 
     62 H62         3.1040   49.2114   21.7469 H         1 UNK         0.0000 
     63 H63         6.0029   53.5995   24.4024 H         1 UNK         0.0000 
     64 H64         5.3872   55.1926   24.0382 H         1 UNK         0.0000 
     65 H65         6.3056   56.0967   26.1041 H         1 UNK         0.0000 
     66 H66         7.5503   55.1934   25.2831 H         1 UNK         0.0000 
     67 H67         7.5413   54.5772   27.6980 H         1 UNK         0.0000 
     68 H68         7.0784   53.1946   26.7400 H         1 UNK         0.0000 
     69 H69         5.2628   55.0510   28.3396 H         1 UNK         0.0000 
     70 H70         5.5459   53.3525   28.6042 H         1 UNK         0.0000 
@<TRIPOS>BOND
     1    1    6 ar   
     2    1    2 ar   
     3    1   37 1    
     4    2    3 ar   
     5    2   38 1    
     6    3   29 ar   
     7    3    4 ar   
     8    4    5 ar   
     9    4   26 ar   
    10    5    6 ar   
    11    5   39 1    
    12    6    7 1    
    13    7    8 2    
    14    7    9 2    
    15    7   10 1    
    16   10   15 1    
    17   10   11 1    
    18   11   12 1    
    19   11   40 1    
    20   11   41 1    
    21   12   13 1    
    22   12   42 1    
    23   12   43 1    
    24   13   14 1    
    25   13   16 1    
    26   13   44 1    
    27   14   15 1    
    28   14   45 1    
    29   14   46 1    
    30   15   47 1    
    31   15   48 1    
    32   16   17 2    
    33   16   18 am   BACKBONE|DICT|INTERRES
    34   18   19 1    
    35   18   49 1    
    36   19   25 1    
    37   19   20 1    
    38   19   50 1    
    39   20   21 1    
    40   20   51 1    
    41   20   52 1    
    42   21   22 1    
    43   21   53 1    
    44   21   54 1    
    45   22   23 1    
    46   22   55 1    
    47   22   56 1    
    48   23   24 1    
    49   23   57 1    
    50   23   58 1    
    51   24   25 1    
    52   24   59 1    
    53   24   60 1    
    54   25   61 1    
    55   25   62 1    
    56   26   27 ar   
    57   26   34 1    
    58   27   33 1    
    59   27   28 ar   
    60   28   29 ar   
    61   28   30 1    
    62   30   31 1    
    63   30   63 1    
    64   30   64 1    
    65   31   32 1    
    66   31   65 1    
    67   31   66 1    
    68   32   33 1    
    69   32   67 1    
    70   32   68 1    
    71   33   69 1    
    72   33   70 1    
    73   34   35 2    
    74   34   36 1    
@<TRIPOS>SUBSTRUCTURE
     1 UNK         1 GROUP             0       ****    0 ROOT    
