@<TRIPOS>MOLECULE
ZINC26458636_5088
61   64    1
SMALL
USER_CHARGES


@<TRIPOS>ATOM
      1 C1          3.1967   53.7178   21.9933 C.3       1 UNK         0.0000 
      2 C2          4.3795   54.0968   22.8714 C.ar      1 UNK         0.0000 
      3 C3          4.2112   54.0962   24.2582 C.ar      1 UNK         0.0000 
      4 C4          5.2611   54.4257   25.1241 C.ar      1 UNK         0.0000 
      5 C5          6.4982   54.7632   24.5652 C.ar      1 UNK         0.0000 
      6 C6          6.6767   54.7984   23.1852 C.ar      1 UNK         0.0000 
      7 C7          5.6108   54.4966   22.3241 C.ar      1 UNK         0.0000 
      8 N8          5.7399   54.6034   20.9250 N.am      1 UNK         0.0000 
      9 C9          6.4393   55.5365   20.2435 C.2       1 UNK         0.0000 
     10 O10         7.0672   56.4645   20.7669 O.2       1 UNK         0.0000 
     11 C11         6.3900   55.4147   18.7161 C.3       1 UNK         0.0000 
     12 N12         7.6032   56.1596   18.0994 N.4       1 UNK         0.0000 
     13 C13         7.4203   56.8054   16.7111 C.3       1 UNK         0.0000 
     14 C14         8.8575   57.1244   16.2549 C.3       1 UNK         0.0000 
     15 C15         9.8086   56.5402   17.3175 C.3       1 UNK         0.0000 
     16 C16         8.9884   55.4616   18.0429 C.3       1 UNK         0.0000 
     17 H17         9.3077   55.2211   19.0591 H         1 UNK         0.0000 
     18 C18         8.9831   54.1164   17.2501 C.2       1 UNK         0.0000 
     19 O19         7.9508   53.6684   16.7544 O.2       1 UNK         0.0000 
     20 N20        10.1875   53.5179   17.1384 N.am      1 UNK         0.0000 
     21 C21        10.5361   52.3136   16.4924 C.ar      1 UNK         0.0000 
     22 C22         9.6163   51.2785   16.2296 C.ar      1 UNK         0.0000 
     23 C23        10.0353   50.1013   15.6088 C.ar      1 UNK         0.0000 
     24 C24        11.3737   49.9443   15.2462 C.ar      1 UNK         0.0000 
     25 C25        12.2910   50.9589   15.5071 C.ar      1 UNK         0.0000 
     26 C26        11.8829   52.1381   16.1315 C.ar      1 UNK         0.0000 
     27 Cl27       13.0767   53.3566   16.4443 Cl        1 UNK         0.0000 
     28 Cl28       11.9039   48.4942   14.4819 Cl        1 UNK         0.0000 
     29 N29         5.0691   54.4217   26.5134 N.pl3     1 UNK         0.0000 
     30 C30         3.8280   54.0931   27.2205 C.3       1 UNK         0.0000 
     31 C31         4.0168   54.4705   28.6850 C.3       1 UNK         0.0000 
     32 C32         5.5045   54.2736   28.8821 C.3       1 UNK         0.0000 
     33 C33         6.0944   54.6614   27.5309 C.3       1 UNK         0.0000 
     34 H34         3.1044   54.4339   21.1818 H         1 UNK         0.0000 
     35 H35         3.3421   52.7296   21.5553 H         1 UNK         0.0000 
     36 H36         2.2520   53.7382   22.5396 H         1 UNK         0.0000 
     37 H37         3.2508   53.8130   24.6624 H         1 UNK         0.0000 
     38 H38         7.3354   55.0137   25.1960 H         1 UNK         0.0000 
     39 H39         7.6361   55.0874   22.7897 H         1 UNK         0.0000 
     40 H40         5.1601   53.9723   20.3906 H         1 UNK         0.0000 
     41 H41         6.3462   54.3882   18.3617 H         1 UNK         0.0000 
     42 H42         5.5140   55.9498   18.3500 H         1 UNK         0.0000 
     43 H43         6.9313   56.0582   16.0815 H         1 UNK         0.0000 
     44 H44         6.7623   57.6696   16.8236 H         1 UNK         0.0000 
     45 H45         9.0407   56.6644   15.2821 H         1 UNK         0.0000 
     46 H46         9.0073   58.1975   16.1310 H         1 UNK         0.0000 
     47 H47        10.7500   56.1844   16.8945 H         1 UNK         0.0000 
     48 H48        10.0823   57.3203   18.0316 H         1 UNK         0.0000 
     49 H49        10.9804   54.0212   17.5082 H         1 UNK         0.0000 
     50 H50         8.5779   51.3561   16.5158 H         1 UNK         0.0000 
     51 H51         9.3262   49.3073   15.4154 H         1 UNK         0.0000 
     52 H52        13.3248   50.8281   15.2238 H         1 UNK         0.0000 
     53 H53         3.5772   53.0371   27.1029 H         1 UNK         0.0000 
     54 H54         3.0142   54.6877   26.8037 H         1 UNK         0.0000 
     55 H55         3.4279   53.8354   29.3464 H         1 UNK         0.0000 
     56 H56         3.7079   55.5002   28.8668 H         1 UNK         0.0000 
     57 H57         5.9026   54.8966   29.6839 H         1 UNK         0.0000 
     58 H58         5.7390   53.2321   29.1077 H         1 UNK         0.0000 
     59 H59         6.4307   55.6964   27.5310 H         1 UNK         0.0000 
     60 H60         6.9486   54.0115   27.3329 H         1 UNK         0.0000 
     61 H61         7.7350   56.9405   18.7294 H         1 UNK         0.0000 
@<TRIPOS>BOND
     1    1    2 1    
     2    1   34 1    
     3    1   35 1    
     4    1   36 1    
     5    2    7 ar   
     6    2    3 ar   
     7    3    4 ar   
     8    3   37 1    
     9    4    5 ar   
    10    4   29 1    
    11    5    6 ar   
    12    5   38 1    
    13    6    7 ar   
    14    6   39 1    
    15    7    8 1    
    16    8    9 am   BACKBONE|DICT|INTERRES
    17    8   40 1    
    18    9   10 2    
    19    9   11 1    
    20   11   12 1    
    21   11   41 1    
    22   11   42 1    
    23   12   16 1    
    24   12   13 1    
    25   12   61 1    
    26   13   14 1    
    27   13   43 1    
    28   13   44 1    
    29   14   15 1    
    30   14   45 1    
    31   14   46 1    
    32   15   16 1    
    33   15   47 1    
    34   15   48 1    
    35   16   17 1    
    36   16   18 1    
    37   18   19 2    
    38   18   20 am   BACKBONE|DICT|INTERRES
    39   20   21 1    
    40   20   49 1    
    41   21   26 ar   
    42   21   22 ar   
    43   22   23 ar   
    44   22   50 1    
    45   23   24 ar   
    46   23   51 1    
    47   24   25 ar   
    48   24   28 1    
    49   25   26 ar   
    50   25   52 1    
    51   26   27 1    
    52   29   33 1    
    53   29   30 1    
    54   30   31 1    
    55   30   53 1    
    56   30   54 1    
    57   31   32 1    
    58   31   55 1    
    59   31   56 1    
    60   32   33 1    
    61   32   57 1    
    62   32   58 1    
    63   33   59 1    
    64   33   60 1    
@<TRIPOS>SUBSTRUCTURE
     1 UNK         1 GROUP             0       ****    0 ROOT    
