@<TRIPOS>MOLECULE
ZINC39227442_6052
65   69    1
SMALL
USER_CHARGES


@<TRIPOS>ATOM
      1 C1         -3.8654   47.5255   25.9889 C.3       1 UNK         0.0000 
      2 C2         -2.6300   48.0717   25.2547 C.3       1 UNK         0.0000 
      3 C3         -2.9090   48.4825   23.7954 C.3       1 UNK         0.0000 
      4 N4         -2.0203   49.2348   26.0817 N.4       1 UNK         0.0000 
      5 C5         -2.8513   50.5431   26.0886 C.3       1 UNK         0.0000 
      6 C6         -2.1988   51.5029   27.0982 C.3       1 UNK         0.0000 
      7 C7         -0.7209   51.7994   26.7606 C.3       1 UNK         0.0000 
      8 C8          0.0276   50.4552   26.7878 C.3       1 UNK         0.0000 
      9 C9         -0.5234   49.4590   25.7567 C.3       1 UNK         0.0000 
     10 C10        -0.1454   52.8273   27.7576 C.3       1 UNK         0.0000 
     11 C11         1.2930   53.1848   27.3738 C.2       1 UNK         0.0000 
     12 O12         2.1972   53.3497   28.1920 O.2       1 UNK         0.0000 
     13 C13         1.5067   53.2848   25.8977 C.ar      1 UNK         0.0000 
     14 C14         2.7326   53.6971   25.3661 C.ar      1 UNK         0.0000 
     15 C15         2.9874   53.6961   23.9823 C.ar      1 UNK         0.0000 
     16 C16         1.9517   53.2758   23.1311 C.ar      1 UNK         0.0000 
     17 C17         0.7250   52.8517   23.6375 C.ar      1 UNK         0.0000 
     18 C18         0.5157   52.8359   25.0107 C.ar      1 UNK         0.0000 
     19 O19        -0.7146   52.3751   25.4421 O.3       1 UNK         0.0000 
     20 C20         4.3305   54.0965   23.4437 C.ar      1 UNK         0.0000 
     21 C21         5.4652   54.1003   24.2708 C.ar      1 UNK         0.0000 
     22 C22         6.7052   54.5120   23.8007 C.ar      1 UNK         0.0000 
     23 C23         6.8481   54.9227   22.4809 C.ar      1 UNK         0.0000 
     24 C24         5.7547   54.8971   21.6127 C.ar      1 UNK         0.0000 
     25 C25         4.5050   54.4862   22.1035 C.ar      1 UNK         0.0000 
     26 C26         5.9151   55.3665   20.1924 C.2       1 UNK         0.0000 
     27 O27         6.6390   56.3331   19.9421 O.2       1 UNK         0.0000 
     28 N28         5.2332   54.6441   19.2783 N.am      1 UNK         0.0000 
     29 C29         5.0891   54.8914   17.9061 C.ar      1 UNK         0.0000 
     30 C30         4.8242   53.7857   17.0933 C.ar      1 UNK         0.0000 
     31 C31         4.6349   53.9583   15.7241 C.ar      1 UNK         0.0000 
     32 C32         4.6995   55.2362   15.1741 C.ar      1 UNK         0.0000 
     33 C33         4.9515   56.3458   15.9780 C.ar      1 UNK         0.0000 
     34 C34         5.1437   56.1761   17.3466 C.ar      1 UNK         0.0000 
     35 H35        -4.2305   46.6143   25.5157 H         1 UNK         0.0000 
     36 H36        -4.6918   48.2350   25.9967 H         1 UNK         0.0000 
     37 H37        -3.6291   47.2766   27.0247 H         1 UNK         0.0000 
     38 H38        -1.8564   47.3010   25.2867 H         1 UNK         0.0000 
     39 H39        -3.2352   47.6231   23.2095 H         1 UNK         0.0000 
     40 H40        -3.6942   49.2346   23.7237 H         1 UNK         0.0000 
     41 H41        -2.0214   48.8811   23.3063 H         1 UNK         0.0000 
     42 H42        -2.8798   50.9422   25.0743 H         1 UNK         0.0000 
     43 H43        -3.8551   50.2908   26.4310 H         1 UNK         0.0000 
     44 H44        -2.7676   52.4329   27.1133 H         1 UNK         0.0000 
     45 H45        -2.2823   51.0866   28.1053 H         1 UNK         0.0000 
     46 H46        -0.0910   50.0957   27.8024 H         1 UNK         0.0000 
     47 H47         1.1010   50.5657   26.6291 H         1 UNK         0.0000 
     48 H48        -0.0200   48.4983   25.8936 H         1 UNK         0.0000 
     49 H49        -0.4304   49.8015   24.7250 H         1 UNK         0.0000 
     50 H50        -0.7749   53.6971   27.6770 H         1 UNK         0.0000 
     51 H51        -0.1651   52.4098   28.7645 H         1 UNK         0.0000 
     52 H52         3.4951   54.0240   26.0569 H         1 UNK         0.0000 
     53 H53         2.0869   53.2403   22.0611 H         1 UNK         0.0000 
     54 H54        -0.0508   52.5128   22.9671 H         1 UNK         0.0000 
     55 H55         5.4163   53.7743   25.2976 H         1 UNK         0.0000 
     56 H56         7.5510   54.5147   24.4689 H         1 UNK         0.0000 
     57 H57         7.8204   55.2492   22.1361 H         1 UNK         0.0000 
     58 H58         3.6522   54.5209   21.4415 H         1 UNK         0.0000 
     59 H59         4.7969   53.7958   19.6065 H         1 UNK         0.0000 
     60 H60         4.7675   52.7890   17.5108 H         1 UNK         0.0000 
     61 H61         4.4355   53.1040   15.0930 H         1 UNK         0.0000 
     62 H62         4.5506   55.3697   14.1123 H         1 UNK         0.0000 
     63 H63         4.9893   57.3351   15.5470 H         1 UNK         0.0000 
     64 H64         5.3157   57.0500   17.9588 H         1 UNK         0.0000 
     65 H65        -1.9901   48.8910   27.0538 H         1 UNK         0.0000 
@<TRIPOS>BOND
     1    1    2 1    
     2    1   35 1    
     3    1   36 1    
     4    1   37 1    
     5    2    3 1    
     6    2    4 1    
     7    2   38 1    
     8    3   39 1    
     9    3   40 1    
    10    3   41 1    
    11    4    9 1    
    12    4    5 1    
    13    4   65 1    
    14    5    6 1    
    15    5   42 1    
    16    5   43 1    
    17    6    7 1    
    18    6   44 1    
    19    6   45 1    
    20    7   19 1    
    21    7    8 1    
    22    7   10 1    
    23    8    9 1    
    24    8   46 1    
    25    8   47 1    
    26    9   48 1    
    27    9   49 1    
    28   10   11 1    
    29   10   50 1    
    30   10   51 1    
    31   11   12 2    
    32   11   13 1    
    33   13   18 ar   
    34   13   14 ar   
    35   14   15 ar   
    36   14   52 1    
    37   15   16 ar   
    38   15   20 1    
    39   16   17 ar   
    40   16   53 1    
    41   17   18 ar   
    42   17   54 1    
    43   18   19 1    
    44   20   25 ar   
    45   20   21 ar   
    46   21   22 ar   
    47   21   55 1    
    48   22   23 ar   
    49   22   56 1    
    50   23   24 ar   
    51   23   57 1    
    52   24   25 ar   
    53   24   26 1    
    54   25   58 1    
    55   26   27 2    
    56   26   28 am   BACKBONE|DICT|INTERRES
    57   28   29 1    
    58   28   59 1    
    59   29   34 ar   
    60   29   30 ar   
    61   30   31 ar   
    62   30   60 1    
    63   31   32 ar   
    64   31   61 1    
    65   32   33 ar   
    66   32   62 1    
    67   33   34 ar   
    68   33   63 1    
    69   34   64 1    
@<TRIPOS>SUBSTRUCTURE
     1 UNK         1 GROUP             0       ****    0 ROOT    
