@<TRIPOS>MOLECULE
ZINC59271729_5065
43   47    1
SMALL
USER_CHARGES


@<TRIPOS>ATOM
      1 C1          2.4912   49.5243   20.0437 C.ar      1 UNK         0.0000 
      2 C2          2.3043   50.7315   19.3730 C.ar      1 UNK         0.0000 
      3 C3          1.6728   51.8156   19.9846 C.ar      1 UNK         0.0000 
      4 C4          1.2246   51.6328   21.2954 C.ar      1 UNK         0.0000 
      5 C5          1.4170   50.4106   22.0037 C.ar      1 UNK         0.0000 
      6 C6          2.0775   49.3513   21.3640 C.ar      1 UNK         0.0000 
      7 C7          0.8475   50.5757   23.2819 C.ar      1 UNK         0.0000 
      8 C8          0.2956   51.8757   23.3366 C.ar      1 UNK         0.0000 
      9 N9          0.5589   52.4967   22.1390 N.pl3     1 UNK         0.0000 
     10 H10         0.3107   53.4444   21.9053 H         1 UNK         0.0000 
     11 N11        -0.3577   52.3795   24.3869 N.ar      1 UNK         0.0000 
     12 C12        -0.4132   51.5092   25.4277 C.ar      1 UNK         0.0000 
     13 N13         0.1200   50.2560   25.4567 N.ar      1 UNK         0.0000 
     14 N14         0.7333   49.7781   24.3557 N.ar      1 UNK         0.0000 
     15 S15        -1.2215   52.0968   26.8850 S.3       1 UNK         0.0000 
     16 C16        -0.2208   51.5830   28.3295 C.3       1 UNK         0.0000 
     17 C17         1.2219   52.1217   28.4039 C.2       1 UNK         0.0000 
     18 O18         1.8826   51.8933   29.4187 O.2       1 UNK         0.0000 
     19 N19         1.6759   52.8014   27.3302 N.am      1 UNK         0.0000 
     20 C20         2.9299   53.3466   27.1132 C.2       1 UNK         0.0000 
     21 N21         3.2803   53.6976   25.9023 N.2       1 UNK         0.0000 
     22 C22         4.5401   54.0970   25.8137 C.2       1 UNK         0.0000 
     23 C23         5.2059   54.1350   27.0481 C.2       1 UNK         0.0000 
     24 S24         4.1610   53.5783   28.3237 S.3       1 UNK         0.0000 
     25 C25         5.1294   54.4105   24.4684 C.ar      1 UNK         0.0000 
     26 C26         6.3051   55.1621   24.3888 C.ar      1 UNK         0.0000 
     27 C27         6.8565   55.4702   23.1485 C.ar      1 UNK         0.0000 
     28 C28         6.2565   55.0196   21.9805 C.ar      1 UNK         0.0000 
     29 C29         5.0951   54.2521   22.0391 C.ar      1 UNK         0.0000 
     30 C30         4.5309   53.9569   23.2801 C.ar      1 UNK         0.0000 
     31 Br31        6.9810   55.5409   20.2986 Br        1 UNK         0.0000 
     32 H32         3.0009   48.7230   19.5301 H         1 UNK         0.0000 
     33 H33         2.6732   50.8263   18.3601 H         1 UNK         0.0000 
     34 H34         1.5407   52.7504   19.4563 H         1 UNK         0.0000 
     35 H35         2.2718   48.4273   21.8842 H         1 UNK         0.0000 
     36 H36        -0.1794   50.4969   28.3359 H         1 UNK         0.0000 
     37 H37        -0.7471   51.8710   29.2404 H         1 UNK         0.0000 
     38 H38         1.0533   52.8281   26.5381 H         1 UNK         0.0000 
     39 H39         6.2272   54.4114   27.2628 H         1 UNK         0.0000 
     40 H40         6.7837   55.5372   25.2799 H         1 UNK         0.0000 
     41 H41         7.7377   56.0960   23.0895 H         1 UNK         0.0000 
     42 H42         4.6220   53.9064   21.1311 H         1 UNK         0.0000 
     43 H43         3.6242   53.3685   23.3077 H         1 UNK         0.0000 
@<TRIPOS>BOND
     1    1    6 ar   
     2    1    2 ar   
     3    1   32 1    
     4    2    3 ar   
     5    2   33 1    
     6    3    4 ar   
     7    3   34 1    
     8    4    9 ar   
     9    4    5 ar   
    10    5    6 ar   
    11    5    7 ar   
    12    6   35 1    
    13    7   14 ar   
    14    7    8 ar   
    15    8    9 ar   
    16    8   11 ar   
    17    9   10 1    
    18   11   12 ar   
    19   12   13 ar   
    20   12   15 1    
    21   13   14 ar   
    22   15   16 1    
    23   16   17 1    
    24   16   36 1    
    25   16   37 1    
    26   17   18 2    
    27   17   19 am   BACKBONE|DICT|INTERRES
    28   19   20 am   BACKBONE|DICT|INTERRES
    29   19   38 1    
    30   20   24 1    
    31   20   21 2    
    32   21   22 1    
    33   22   23 2    
    34   22   25 1    
    35   23   24 1    
    36   23   39 1    
    37   25   30 ar   
    38   25   26 ar   
    39   26   27 ar   
    40   26   40 1    
    41   27   28 ar   
    42   27   41 1    
    43   28   29 ar   
    44   28   31 1    
    45   29   30 ar   
    46   29   42 1    
    47   30   43 1    
@<TRIPOS>SUBSTRUCTURE
     1 UNK         1 GROUP             0       ****    0 ROOT    
