@<TRIPOS>MOLECULE
ZINC04150003_3961
70   73    1
SMALL
USER_CHARGES


@<TRIPOS>ATOM
      1 C1         -3.0187   52.3859   23.0324 C.3       1 UNK         0.0000 
      2 C2         -1.7813   52.5932   23.9305 C.3       1 UNK         0.0000 
      3 H3         -1.6355   53.6619   24.0969 H         1 UNK         0.0000 
      4 C4         -0.5416   52.0622   23.2048 C.2       1 UNK         0.0000 
      5 C5          0.3110   51.0887   23.7209 C.2       1 UNK         0.0000 
      6 S6          1.5002   50.6667   22.5320 S.3       1 UNK         0.0000 
      7 C7          0.7907   51.8590   21.4848 C.2       1 UNK         0.0000 
      8 N8         -0.2202   52.4918   22.0018 N.2       1 UNK         0.0000 
      9 N9          1.1992   52.0973   20.1983 N.pl3     1 UNK         0.0000 
     10 S10         2.7232   51.6198   19.4627 S.o2      1 UNK         0.0000 
     11 O11         3.1271   50.3530   20.0783 O.2       1 UNK         0.0000 
     12 O12         2.5131   51.7483   18.0167 O.2       1 UNK         0.0000 
     13 C13         3.8906   52.8823   19.9705 C.ar      1 UNK         0.0000 
     14 C14         4.4281   53.7584   19.0245 C.ar      1 UNK         0.0000 
     15 C15         5.3063   54.7609   19.4320 C.ar      1 UNK         0.0000 
     16 C16         5.6371   54.8864   20.7802 C.ar      1 UNK         0.0000 
     17 C17         5.1045   54.0097   21.7251 C.ar      1 UNK         0.0000 
     18 C18         4.2346   53.0009   21.3188 C.ar      1 UNK         0.0000 
     19 Cl19        6.7164   56.1337   21.2822 Cl        1 UNK         0.0000 
     20 C20         0.1389   50.4220   25.0587 C.3       1 UNK         0.0000 
     21 C21        -0.6112   51.4033   26.0113 C.3       1 UNK         0.0000 
     22 C22        -1.9493   51.8713   25.3144 C.3       1 UNK         0.0000 
     23 H23        -2.4464   50.9379   25.0509 H         1 UNK         0.0000 
     24 C24        -2.8915   52.5709   26.3574 C.3       1 UNK         0.0000 
     25 H25        -2.3108   53.3608   26.8327 H         1 UNK         0.0000 
     26 C26        -3.3376   51.5665   27.4665 C.3       1 UNK         0.0000 
     27 H27        -3.9473   52.0968   28.1872 H         1 UNK         0.0000 
     28 C28        -2.0284   51.2105   28.2181 C.3       1 UNK         0.0000 
     29 C29        -0.9822   50.5892   27.2687 C.3       1 UNK         0.0000 
     30 C30        -4.1978   50.3172   27.0261 C.3       1 UNK         0.0000 
     31 H31        -3.5749   49.6941   26.3950 H         1 UNK         0.0000 
     32 C32        -5.4420   50.6913   26.1870 C.3       1 UNK         0.0000 
     33 C33        -4.6663   49.4861   28.2568 C.2       1 UNK         0.0000 
     34 O34        -5.1726   50.1049   29.1987 O.2       1 UNK         0.0000 
     35 N35        -4.5025   48.1355   28.2864 N.am      1 UNK         0.0000 
     36 C36        -4.7602   47.3901   29.5326 C.3       1 UNK         0.0000 
     37 C37        -4.0967   47.3576   27.0952 C.3       1 UNK         0.0000 
     38 C38        -4.1442   45.8393   27.2035 C.2       1 UNK         0.0000 
     39 C39        -4.9115   45.0414   26.4477 C.2       1 UNK         0.0000 
     40 O40        -3.9821   53.3062   25.8391 O.3       1 UNK         0.0000 
     41 C41         0.3248   52.5731   26.4117 C.3       1 UNK         0.0000 
     42 H42        -2.8950   52.8960   22.0823 H         1 UNK         0.0000 
     43 H43        -3.1761   51.3272   22.8141 H         1 UNK         0.0000 
     44 H44        -3.9434   52.7576   23.4631 H         1 UNK         0.0000 
     45 H45         0.7139   52.7740   19.6316 H         1 UNK         0.0000 
     46 H46         4.1727   53.6636   17.9794 H         1 UNK         0.0000 
     47 H47         5.7239   55.4417   18.7036 H         1 UNK         0.0000 
     48 H48         5.3655   54.1090   22.7666 H         1 UNK         0.0000 
     49 H49         3.8234   52.3226   22.0510 H         1 UNK         0.0000 
     50 H50         1.0904   50.0870   25.4734 H         1 UNK         0.0000 
     51 H51        -0.4459   49.5164   24.8869 H         1 UNK         0.0000 
     52 H52        -1.6043   52.0917   28.6996 H         1 UNK         0.0000 
     53 H53        -2.2314   50.5072   29.0300 H         1 UNK         0.0000 
     54 H54        -0.0953   50.2644   27.8092 H         1 UNK         0.0000 
     55 H55        -1.4460   49.6964   26.8797 H         1 UNK         0.0000 
     56 H56        -6.0707   49.8246   25.9798 H         1 UNK         0.0000 
     57 H57        -6.0608   51.4335   26.6942 H         1 UNK         0.0000 
     58 H58        -5.1595   51.0920   25.2134 H         1 UNK         0.0000 
     59 H59        -5.0235   48.0269   30.3768 H         1 UNK         0.0000 
     60 H60        -5.5722   46.6799   29.3854 H         1 UNK         0.0000 
     61 H61        -3.8666   46.8349   29.8198 H         1 UNK         0.0000 
     62 H62        -3.0516   47.5945   26.8844 H         1 UNK         0.0000 
     63 H63        -4.6830   47.6733   26.2312 H         1 UNK         0.0000 
     64 H64        -3.4992   45.3978   27.9507 H         1 UNK         0.0000 
     65 H65        -5.5699   45.4412   25.6908 H         1 UNK         0.0000 
     66 H66        -4.8924   43.9693   26.5809 H         1 UNK         0.0000 
     67 H67        -3.6523   53.8784   25.1394 H         1 UNK         0.0000 
     68 H68         0.5608   53.2176   25.5653 H         1 UNK         0.0000 
     69 H69        -0.1042   53.1960   27.1979 H         1 UNK         0.0000 
     70 H70         1.2726   52.1967   26.8011 H         1 UNK         0.0000 
@<TRIPOS>BOND
     1    1    2 1    
     2    1   42 1    
     3    1   43 1    
     4    1   44 1    
     5    2    3 1    
     6    2   22 1    
     7    2    4 1    
     8    4    8 1    
     9    4    5 2    
    10    5    6 1    
    11    5   20 1    
    12    6    7 1    
    13    7    8 2    
    14    7    9 1    
    15    9   10 1    
    16    9   45 1    
    17   10   11 2    
    18   10   12 2    
    19   10   13 1    
    20   13   18 ar   
    21   13   14 ar   
    22   14   15 ar   
    23   14   46 1    
    24   15   16 ar   
    25   15   47 1    
    26   16   17 ar   
    27   16   19 1    
    28   17   18 ar   
    29   17   48 1    
    30   18   49 1    
    31   20   21 1    
    32   20   50 1    
    33   20   51 1    
    34   21   29 1    
    35   21   22 1    
    36   21   41 1    
    37   22   23 1    
    38   22   24 1    
    39   24   25 1    
    40   24   26 1    
    41   24   40 1    
    42   26   27 1    
    43   26   28 1    
    44   26   30 1    
    45   28   29 1    
    46   28   52 1    
    47   28   53 1    
    48   29   54 1    
    49   29   55 1    
    50   30   31 1    
    51   30   32 1    
    52   30   33 1    
    53   32   56 1    
    54   32   57 1    
    55   32   58 1    
    56   33   34 2    
    57   33   35 am   BACKBONE|DICT|INTERRES
    58   35   36 1    
    59   35   37 1    
    60   36   59 1    
    61   36   60 1    
    62   36   61 1    
    63   37   38 1    
    64   37   62 1    
    65   37   63 1    
    66   38   39 2    
    67   38   64 1    
    68   39   65 1    
    69   39   66 1    
    70   40   67 1    
    71   41   68 1    
    72   41   69 1    
    73   41   70 1    
@<TRIPOS>SUBSTRUCTURE
     1 UNK         1 GROUP             0       ****    0 ROOT    
