ZINC65919965_3601
                    3D
 Schrodinger Suite 2024-2.
 49 52  0  0  1  0            999 V2000
    2.2996   49.6741   21.7319 C   0  0  0  0  0  0
    2.1813   51.1234   21.2736 C   0  0  0  0  0  0
    1.2033   51.7269   22.2845 C   0  0  0  0  0  0
    0.1990   50.6045   22.6280 C   0  0  0  0  0  0
    0.8804   49.2969   22.1581 C   0  0  0  0  0  0
   -0.0954   50.5954   24.0594 N   0  0  0  0  0  0
   -1.0144   49.8295   24.6878 C   0  0  0  0  0  0
   -1.8335   49.1496   24.0700 O   0  0  0  0  0  0
   -1.0064   49.8346   26.0432 N   0  0  0  0  0  0
   -0.0139   50.4971   26.7840 N   0  0  0  0  0  0
   -0.1317   51.8132   27.0742 C   0  0  0  0  0  0
   -1.0924   52.4962   26.7073 O   0  0  0  0  0  0
    1.0368   52.4927   27.8490 C   0  0  2  0  0  0
    1.9047   51.4593   28.6320 C   0  0  0  0  0  0
    3.0765   52.1696   29.3618 C   0  0  2  0  0  0
    2.4986   53.2010   30.3523 C   0  0  0  0  0  0
    1.6484   54.2566   29.5925 C   0  0  2  0  0  0
    0.4767   53.5433   28.8663 C   0  0  0  0  0  0
    2.5371   54.9846   28.5472 C   0  0  0  0  0  0
    3.1041   53.9286   27.5628 C   0  0  1  0  0  0
    3.9732   52.9172   28.3422 C   0  0  0  0  0  0
    1.9531   53.2142   26.8123 C   0  0  0  0  0  0
    4.2659   54.8068   26.2009 Br  0  0  0  0  0  0
    2.7032   49.0246   20.9515 H   0  0  0  0  0  0
    2.9750   49.6055   22.5892 H   0  0  0  0  0  0
    1.7683   51.1684   20.2633 H   0  0  0  0  0  0
    3.1450   51.6365   21.2621 H   0  0  0  0  0  0
    0.7138   52.6301   21.9142 H   0  0  0  0  0  0
    1.7733   52.0233   23.1682 H   0  0  0  0  0  0
   -0.6946   50.7565   22.0174 H   0  0  0  0  0  0
    0.8959   48.5027   22.9079 H   0  0  0  0  0  0
    0.3516   48.9080   21.2842 H   0  0  0  0  0  0
    0.4439   51.2339   24.6247 H   0  0  0  0  0  0
   -1.6174   49.2757   26.6273 H   0  0  0  0  0  0
    0.7300   49.8895   27.0912 H   0  0  0  0  0  0
    2.3040   50.6975   27.9648 H   0  0  0  0  0  0
    1.2859   50.9168   29.3458 H   0  0  0  0  0  0
    3.6788   51.4344   29.8986 H   0  0  0  0  0  0
    1.8993   52.7021   31.1192 H   0  0  0  0  0  0
    3.3285   53.6884   30.8635 H   0  0  0  0  0  0
    1.2463   54.9832   30.3034 H   0  0  0  0  0  0
   -0.1772   53.0579   29.5957 H   0  0  0  0  0  0
   -0.1405   54.2871   28.3616 H   0  0  0  0  0  0
    1.9564   55.7406   28.0206 H   0  0  0  0  0  0
    3.3507   55.5154   29.0462 H   0  0  0  0  0  0
    4.7893   53.4295   28.8556 H   0  0  0  0  0  0
    4.4483   52.2182   27.6652 H   0  0  0  0  0  0
    1.3955   53.9443   26.2251 H   0  0  0  0  0  0
    2.3665   52.5015   26.0964 H   0  0  0  0  0  0
  1  5  1  0  0  0
  1  2  1  0  0  0
  1 24  1  0  0  0
  1 25  1  0  0  0
  2  3  1  0  0  0
  2 26  1  0  0  0
  2 27  1  0  0  0
  3  4  1  0  0  0
  3 28  1  0  0  0
  3 29  1  0  0  0
  4  5  1  0  0  0
  4  6  1  0  0  0
  4 30  1  0  0  0
  5 31  1  0  0  0
  5 32  1  0  0  0
  6  7  1  0  0  0
  6 33  1  0  0  0
  7  8  2  0  0  0
  7  9  1  0  0  0
  9 10  1  0  0  0
  9 34  1  0  0  0
 10 11  1  0  0  0
 10 35  1  0  0  0
 11 12  2  0  0  0
 11 13  1  0  0  0
 13 18  1  0  0  0
 13 22  1  0  0  0
 13 14  1  0  0  0
 14 15  1  0  0  0
 14 36  1  0  0  0
 14 37  1  0  0  0
 15 21  1  0  0  0
 15 16  1  0  0  0
 15 38  1  0  0  0
 16 17  1  0  0  0
 16 39  1  0  0  0
 16 40  1  0  0  0
 17 18  1  0  0  0
 17 19  1  0  0  0
 17 41  1  0  0  0
 18 42  1  0  0  0
 18 43  1  0  0  0
 19 20  1  0  0  0
 19 44  1  0  0  0
 19 45  1  0  0  0
 20 21  1  0  0  0
 20 22  1  0  0  0
 20 23  1  0  0  0
 21 46  1  0  0  0
 21 47  1  0  0  0
 22 48  1  0  0  0
 22 49  1  0  0  0
M  END
> <i_i_glide_confnum>
26

> <i_i_glide_lignum>
3602

> <i_i_glide_posenum>
214

> <i_i_glide_rotatable_bonds>
6

> <i_m_Source_File_Index>
4527

> <b_m_subgroup_collapsed>
0

> <r_i_docking_score>
-4.76255

> <r_i_glide_ecoul>
-1.1484

> <r_i_glide_eff_state_penalty>
0

> <r_i_glide_einternal>
2.26112

> <r_i_glide_emodel>
-42.4011

> <r_i_glide_energy>
-33.2421

> <r_i_glide_erotb>
0.526524

> <r_i_glide_esite>
-0.215066

> <r_i_glide_evdw>
-32.0937

> <r_i_glide_gscore>
-4.76255

> <r_i_glide_hbond>
-0.115226

> <r_i_glide_ligand_efficiency>
-0.207067

> <r_i_glide_ligand_efficiency_ln>
-1.15163

> <r_i_glide_ligand_efficiency_sa>
-0.588872

> <r_i_glide_lipo>
-2.32954

> <r_i_glide_metal>
0

> <r_i_glide_rewards>
-0.852292

> <s_i_glide_gridfile>
wee1_glide-grid

> <s_m_Source_File>
wee1_decoys_glide_SP.sdf

> <s_m_Source_Path>
/Users/zhangxujun/Desktop

> <s_m_entry_id>
4802

> <s_m_entry_name>
wee1_decoys_glide_SP.4527

> <s_m_subgroup_title>
wee1_decoys_glide_SP

> <s_m_subgroupid>
wee1_decoys_glide_SP


$$$$
