ZINC12604180_6093
                    3D
 Schrodinger Suite 2024-2.
 70 74  0  0  1  0            999 V2000
    0.3035   51.1940   26.7302 C   0  0  0  0  0  0
    0.3027   50.0389   25.9570 C   0  0  0  0  0  0
    0.7027   50.1015   24.6249 C   0  0  0  0  0  0
    1.0989   51.3253   24.0523 C   0  0  0  0  0  0
    1.0714   52.4848   24.8408 C   0  0  0  0  0  0
    0.6916   52.4127   26.1802 C   0  0  0  0  0  0
    1.5512   51.3779   22.7021 N   0  0  0  0  0  0
    2.2115   52.3813   22.0288 C   0  0  0  0  0  0
    2.5743   51.9028   20.7741 C   0  0  0  0  0  0
    1.9112   50.6529   20.7352 C   0  0  0  0  0  0
    1.3808   50.3291   21.8910 N   0  0  0  0  0  0
    1.7473   49.7270   19.6282 C   0  0  0  0  0  0
    1.9748   48.3532   19.6180 C   0  0  0  0  0  0
    1.6226   47.7397   18.4119 C   0  0  0  0  0  0
    1.1049   48.6360   17.4914 C   0  0  0  0  0  0
    1.0772   50.2538   18.1093 S   0  0  0  0  0  0
    3.3443   52.5416   19.6996 C   0  0  0  0  0  0
    4.3557   53.4675   19.6406 C   0  0  0  0  0  0
    4.9823   54.0972   20.8105 C   0  0  0  0  0  0
    5.4716   55.2291   20.7614 O   0  0  0  0  0  0
    5.0567   53.3552   21.9292 N   0  0  0  0  0  0
    5.4851   53.7973   23.2636 C   0  0  0  0  0  0
    6.7043   54.7410   23.3966 C   0  0  0  0  0  0
    7.0900   55.0300   24.8552 C   0  0  0  0  0  0
    5.8968   55.5034   25.6813 C   0  0  0  0  0  0
    4.7706   54.4658   25.6714 C   0  0  0  0  0  0
    4.3265   54.0980   24.2446 C   0  0  0  0  0  0
    4.7894   53.8384   18.2896 C   0  0  0  0  0  0
    4.0076   53.8992   17.3361 O   0  0  0  0  0  0
    6.1013   54.1100   18.1358 N   0  0  0  0  0  0
    6.7608   54.4594   16.8756 C   0  0  0  0  0  0
    8.0397   55.2895   17.1398 C   0  0  0  0  0  0
    9.1340   54.4797   17.8704 C   0  0  0  0  0  0
    9.4806   53.1864   17.1033 C   0  0  0  0  0  0
    8.2289   52.3482   16.7659 C   0  0  0  0  0  0
    7.1551   53.2032   16.0581 C   0  0  0  0  0  0
   -0.0013   51.1354   27.7646 H   0  0  0  0  0  0
    0.0010   49.0967   26.3967 H   0  0  0  0  0  0
    0.7186   49.1817   24.0577 H   0  0  0  0  0  0
    1.3499   53.4469   24.4401 H   0  0  0  0  0  0
    0.6960   53.2979   26.7963 H   0  0  0  0  0  0
    2.4074   53.3333   22.4916 H   0  0  0  0  0  0
    2.3886   47.8188   20.4613 H   0  0  0  0  0  0
    1.7476   46.6857   18.2157 H   0  0  0  0  0  0
    0.7738   48.4334   16.4847 H   0  0  0  0  0  0
    3.0081   52.1341   18.7552 H   0  0  0  0  0  0
    4.5906   52.4605   21.8856 H   0  0  0  0  0  0
    5.9045   52.8947   23.6813 H   0  0  0  0  0  0
    6.4850   55.7016   22.9355 H   0  0  0  0  0  0
    7.5597   54.3214   22.8669 H   0  0  0  0  0  0
    7.8718   55.7894   24.8814 H   0  0  0  0  0  0
    7.5037   54.1288   25.3056 H   0  0  0  0  0  0
    5.5296   56.4492   25.2819 H   0  0  0  0  0  0
    6.2160   55.6948   26.7063 H   0  0  0  0  0  0
    3.9177   54.8331   26.2438 H   0  0  0  0  0  0
    5.1109   53.5648   26.1846 H   0  0  0  0  0  0
    3.6731   53.2341   24.3208 H   0  0  0  0  0  0
    3.7351   54.9207   23.8468 H   0  0  0  0  0  0
    6.7064   53.9736   18.9301 H   0  0  0  0  0  0
    6.0766   55.0759   16.2860 H   0  0  0  0  0  0
    8.4330   55.6593   16.1917 H   0  0  0  0  0  0
    7.7913   56.1803   17.7180 H   0  0  0  0  0  0
   10.0305   55.0896   17.9955 H   0  0  0  0  0  0
    8.8015   54.2297   18.8792 H   0  0  0  0  0  0
    9.9970   53.4473   16.1781 H   0  0  0  0  0  0
   10.1864   52.5892   17.6808 H   0  0  0  0  0  0
    8.5047   51.4999   16.1371 H   0  0  0  0  0  0
    7.8114   51.9200   17.6800 H   0  0  0  0  0  0
    6.2694   52.5958   15.8656 H   0  0  0  0  0  0
    7.5204   53.5080   15.0770 H   0  0  0  0  0  0
  1  6  2  0  0  0
  1  2  1  0  0  0
  1 37  1  0  0  0
  2  3  2  0  0  0
  2 38  1  0  0  0
  3  4  1  0  0  0
  3 39  1  0  0  0
  4  5  2  0  0  0
  4  7  1  0  0  0
  5  6  1  0  0  0
  5 40  1  0  0  0
  6 41  1  0  0  0
  7 11  1  0  0  0
  7  8  1  0  0  0
  8  9  2  0  0  0
  8 42  1  0  0  0
  9 10  1  0  0  0
  9 17  1  0  0  0
 10 11  2  0  0  0
 10 12  1  0  0  0
 12 16  1  0  0  0
 12 13  2  0  0  0
 13 14  1  0  0  0
 13 43  1  0  0  0
 14 15  2  0  0  0
 14 44  1  0  0  0
 15 16  1  0  0  0
 15 45  1  0  0  0
 17 18  2  0  0  0
 17 46  1  0  0  0
 18 19  1  0  0  0
 18 28  1  0  0  0
 19 20  2  0  0  0
 19 21  1  0  0  0
 21 22  1  0  0  0
 21 47  1  0  0  0
 22 27  1  0  0  0
 22 23  1  0  0  0
 22 48  1  0  0  0
 23 24  1  0  0  0
 23 49  1  0  0  0
 23 50  1  0  0  0
 24 25  1  0  0  0
 24 51  1  0  0  0
 24 52  1  0  0  0
 25 26  1  0  0  0
 25 53  1  0  0  0
 25 54  1  0  0  0
 26 27  1  0  0  0
 26 55  1  0  0  0
 26 56  1  0  0  0
 27 57  1  0  0  0
 27 58  1  0  0  0
 28 29  2  0  0  0
 28 30  1  0  0  0
 30 31  1  0  0  0
 30 59  1  0  0  0
 31 36  1  0  0  0
 31 32  1  0  0  0
 31 60  1  0  0  0
 32 33  1  0  0  0
 32 61  1  0  0  0
 32 62  1  0  0  0
 33 34  1  0  0  0
 33 63  1  0  0  0
 33 64  1  0  0  0
 34 35  1  0  0  0
 34 65  1  0  0  0
 34 66  1  0  0  0
 35 36  1  0  0  0
 35 67  1  0  0  0
 35 68  1  0  0  0
 36 69  1  0  0  0
 36 70  1  0  0  0
M  END
> <i_i_glide_confnum>
98

> <i_i_glide_lignum>
6094

> <i_i_glide_posenum>
347

> <i_i_glide_rotatable_bonds>
9

> <i_m_Source_File_Index>
6078

> <b_m_subgroup_collapsed>
0

> <r_i_docking_score>
-3.82681

> <r_i_glide_ecoul>
0.336842

> <r_i_glide_eff_state_penalty>
0

> <r_i_glide_einternal>
11.832

> <r_i_glide_emodel>
-51.1065

> <r_i_glide_energy>
-45.195

> <r_i_glide_erotb>
0.566107

> <r_i_glide_esite>
-0.0458716

> <r_i_glide_evdw>
-45.5318

> <r_i_glide_gscore>
-3.82681

> <r_i_glide_hbond>
0

> <r_i_glide_ligand_efficiency>
-0.1063

> <r_i_glide_ligand_efficiency_ln>
-0.834906

> <r_i_glide_ligand_efficiency_sa>
-0.350996

> <r_i_glide_lipo>
-1.88716

> <r_i_glide_metal>
0

> <r_i_glide_rewards>
-0.233817

> <s_i_glide_gridfile>
wee1_glide-grid

> <s_m_Source_File>
wee1_decoys_glide_SP.sdf

> <s_m_Source_Path>
/Users/zhangxujun/Desktop

> <s_m_entry_id>
6353

> <s_m_entry_name>
wee1_decoys_glide_SP.6078

> <s_m_subgroup_title>
wee1_decoys_glide_SP

> <s_m_subgroupid>
wee1_decoys_glide_SP


$$$$
