@<TRIPOS>MOLECULE
ZINC33422401_2367
70   74    1
SMALL
USER_CHARGES


@<TRIPOS>ATOM
      1 C1         -0.5612   52.0012   21.5573 C.3       1 UNK         0.0000 
      2 C2         -0.2289   51.0219   22.6958 C.3       1 UNK         0.0000 
      3 C3          0.3214   51.6967   23.9707 C.3       1 UNK         0.0000 
      4 H4         -0.3908   52.4756   24.2583 H         1 UNK         0.0000 
      5 C5          0.4035   50.6901   25.1359 C.3       1 UNK         0.0000 
      6 N6          1.6179   52.3347   23.7104 N.am      1 UNK         0.0000 
      7 C7          2.2081   53.2659   24.4851 C.2       1 UNK         0.0000 
      8 O8          1.6835   53.6978   25.5101 O.2       1 UNK         0.0000 
      9 C9          3.5781   53.7234   24.0279 C.ar      1 UNK         0.0000 
     10 C10         3.8262   53.8642   22.6485 C.ar      1 UNK         0.0000 
     11 C11         5.0752   54.2658   22.1747 C.ar      1 UNK         0.0000 
     12 C12         6.1112   54.5014   23.0797 C.ar      1 UNK         0.0000 
     13 C13         5.8708   54.4182   24.4449 C.ar      1 UNK         0.0000 
     14 C14         4.6088   54.0606   24.9414 C.ar      1 UNK         0.0000 
     15 N15         4.4421   53.9811   26.3336 N.pl3     1 UNK         0.0000 
     16 C16         5.1252   52.9599   27.1355 C.3       1 UNK         0.0000 
     17 C17         5.8111   53.5912   28.3532 C.3       1 UNK         0.0000 
     18 C18         5.8988   55.0340   27.9510 C.3       1 UNK         0.0000 
     19 C19         4.6390   55.1856   27.1102 C.3       1 UNK         0.0000 
     20 N20         5.2338   54.3979   20.7888 N.am      1 UNK         0.0000 
     21 C21         5.9550   55.3433   20.1556 C.2       1 UNK         0.0000 
     22 O22         6.5505   56.2685   20.7134 O.2       1 UNK         0.0000 
     23 N23         5.9366   55.1506   18.8276 N.am      1 UNK         0.0000 
     24 C24         6.5470   55.9936   17.7906 C.3       1 UNK         0.0000 
     25 C25         6.2704   55.3626   16.3893 C.3       1 UNK         0.0000 
     26 C26         6.8888   56.2118   15.2458 C.3       1 UNK         0.0000 
     27 C27         6.2756   57.6334   15.2743 C.3       1 UNK         0.0000 
     28 C28         6.5709   58.2959   16.6443 C.3       1 UNK         0.0000 
     29 C29         5.9470   57.4384   17.7753 C.3       1 UNK         0.0000 
     30 C30         8.1048   58.3869   16.8575 C.3       1 UNK         0.0000 
     31 C31         8.7224   56.9655   16.8185 C.3       1 UNK         0.0000 
     32 C32         8.4224   56.3058   15.4483 C.3       1 UNK         0.0000 
     33 C33         8.1007   56.1044   17.9471 C.3       1 UNK         0.0000 
     34 H34        -0.9034   51.4631   20.6717 H         1 UNK         0.0000 
     35 H35         0.3080   52.5944   21.2669 H         1 UNK         0.0000 
     36 H36        -1.3571   52.6856   21.8521 H         1 UNK         0.0000 
     37 H37        -1.1324   50.4609   22.9403 H         1 UNK         0.0000 
     38 H38         0.4914   50.2867   22.3326 H         1 UNK         0.0000 
     39 H39        -0.5628   50.2170   25.3118 H         1 UNK         0.0000 
     40 H40         1.1044   49.8840   24.9192 H         1 UNK         0.0000 
     41 H41         0.6943   51.1685   26.0707 H         1 UNK         0.0000 
     42 H42         2.0998   52.0310   22.8791 H         1 UNK         0.0000 
     43 H43         3.0356   53.6761   21.9317 H         1 UNK         0.0000 
     44 H44         7.0940   54.7895   22.7356 H         1 UNK         0.0000 
     45 H45         6.6795   54.6339   25.1246 H         1 UNK         0.0000 
     46 H46         4.3914   52.2785   27.5634 H         1 UNK         0.0000 
     47 H47         5.9254   52.4968   26.5698 H         1 UNK         0.0000 
     48 H48         5.2218   53.4630   29.2703 H         1 UNK         0.0000 
     49 H49         6.8008   53.1693   28.5153 H         1 UNK         0.0000 
     50 H50         6.7941   55.2641   27.3719 H         1 UNK         0.0000 
     51 H51         5.8952   55.6948   28.8159 H         1 UNK         0.0000 
     52 H52         4.7044   56.0227   26.4132 H         1 UNK         0.0000 
     53 H53         3.7619   55.2970   27.7505 H         1 UNK         0.0000 
     54 H54         4.6479   53.8061   20.2180 H         1 UNK         0.0000 
     55 H55         5.4570   54.3331   18.4841 H         1 UNK         0.0000 
     56 H56         6.6688   54.3468   16.3462 H         1 UNK         0.0000 
     57 H57         5.1955   55.2622   16.2257 H         1 UNK         0.0000 
     58 H58         6.6769   55.7417   14.2837 H         1 UNK         0.0000 
     59 H59         6.6849   58.2416   14.4673 H         1 UNK         0.0000 
     60 H60         5.1989   57.5870   15.1020 H         1 UNK         0.0000 
     61 H61         6.1359   59.2967   16.6668 H         1 UNK         0.0000 
     62 H62         4.8636   57.3965   17.6519 H         1 UNK         0.0000 
     63 H63         6.1130   57.9344   18.7320 H         1 UNK         0.0000 
     64 H64         8.5526   59.0165   16.0881 H         1 UNK         0.0000 
     65 H65         8.3230   58.8697   17.8110 H         1 UNK         0.0000 
     66 H66         9.8021   57.0305   16.9628 H         1 UNK         0.0000 
     67 H67         8.8746   55.3138   15.3967 H         1 UNK         0.0000 
     68 H68         8.8746   56.8871   14.6442 H         1 UNK         0.0000 
     69 H69         8.3608   56.5409   18.9118 H         1 UNK         0.0000 
     70 H70         8.5501   55.1096   17.9463 H         1 UNK         0.0000 
@<TRIPOS>BOND
     1    1    2 1    
     2    1   34 1    
     3    1   35 1    
     4    1   36 1    
     5    2    3 1    
     6    2   37 1    
     7    2   38 1    
     8    3    4 1    
     9    3    5 1    
    10    3    6 1    
    11    5   39 1    
    12    5   40 1    
    13    5   41 1    
    14    6    7 am   BACKBONE|DICT|INTERRES
    15    6   42 1    
    16    7    8 2    
    17    7    9 1    
    18    9   14 ar   
    19    9   10 ar   
    20   10   11 ar   
    21   10   43 1    
    22   11   12 ar   
    23   11   20 1    
    24   12   13 ar   
    25   12   44 1    
    26   13   14 ar   
    27   13   45 1    
    28   14   15 1    
    29   15   19 1    
    30   15   16 1    
    31   16   17 1    
    32   16   46 1    
    33   16   47 1    
    34   17   18 1    
    35   17   48 1    
    36   17   49 1    
    37   18   19 1    
    38   18   50 1    
    39   18   51 1    
    40   19   52 1    
    41   19   53 1    
    42   20   21 am   BACKBONE|DICT|INTERRES
    43   20   54 1    
    44   21   22 2    
    45   21   23 am   BACKBONE|DICT|INTERRES
    46   23   24 1    
    47   23   55 1    
    48   24   29 1    
    49   24   33 1    
    50   24   25 1    
    51   25   26 1    
    52   25   56 1    
    53   25   57 1    
    54   26   32 1    
    55   26   27 1    
    56   26   58 1    
    57   27   28 1    
    58   27   59 1    
    59   27   60 1    
    60   28   29 1    
    61   28   30 1    
    62   28   61 1    
    63   29   62 1    
    64   29   63 1    
    65   30   31 1    
    66   30   64 1    
    67   30   65 1    
    68   31   32 1    
    69   31   33 1    
    70   31   66 1    
    71   32   67 1    
    72   32   68 1    
    73   33   69 1    
    74   33   70 1    
@<TRIPOS>SUBSTRUCTURE
     1 UNK         1 GROUP             0       ****    0 ROOT    
