@<TRIPOS>MOLECULE
ZINC39978786_1973
43   46    1
SMALL
USER_CHARGES


@<TRIPOS>ATOM
      1 C1         -0.3437   51.3769   27.5075 C.ar      1 UNK         0.0000 
      2 C2         -0.6644   51.6983   28.8246 C.ar      1 UNK         0.0000 
      3 C3         -0.0952   52.8176   29.4226 C.ar      1 UNK         0.0000 
      4 C4          0.7765   53.6283   28.6908 C.ar      1 UNK         0.0000 
      5 C5          1.1045   53.2968   27.3722 C.ar      1 UNK         0.0000 
      6 C6          0.5398   52.1703   26.7783 C.ar      1 UNK         0.0000 
      7 S7          1.6004   55.0004   29.5039 S.o2      1 UNK         0.0000 
      8 O8          0.7514   55.3322   30.6529 O.2       1 UNK         0.0000 
      9 O9          1.7869   56.0327   28.4818 O.2       1 UNK         0.0000 
     10 N10         2.8962   54.2310   29.9007 N.2       1 UNK         0.0000 
     11 C11         3.9211   54.0115   29.0623 C.2       1 UNK         0.0000 
     12 N12         4.4176   54.7317   28.0764 N.2       1 UNK         0.0000 
     13 C13         5.5073   54.1911   27.5459 C.2       1 UNK         0.0000 
     14 C14         5.8564   52.9678   28.0817 C.2       1 UNK         0.0000 
     15 S15         4.7018   52.4968   29.2817 S.3       1 UNK         0.0000 
     16 C16         6.2894   54.9357   26.4753 C.3       1 UNK         0.0000 
     17 C17         5.6867   54.8969   25.0628 C.2       1 UNK         0.0000 
     18 O18         4.4650   54.8940   24.9073 O.2       1 UNK         0.0000 
     19 N19         6.5829   54.9130   24.0506 N.am      1 UNK         0.0000 
     20 C20         6.3289   54.8963   22.7106 C.2       1 UNK         0.0000 
     21 C21         7.1961   55.5629   21.9160 C.2       1 UNK         0.0000 
     22 C22         7.0559   55.4708   20.4739 C.2       1 UNK         0.0000 
     23 C23         7.9720   55.5138   19.5023 C.2       1 UNK         0.0000 
     24 C24         7.2921   55.0016   18.3440 C.2       1 UNK         0.0000 
     25 N25         6.0645   54.6967   18.5161 N.2       1 UNK         0.0000 
     26 C26         5.7432   55.0907   19.8481 C.3       1 UNK         0.0000 
     27 H27         5.1047   55.9692   19.7490 H         1 UNK         0.0000 
     28 C28         5.0241   54.0995   20.7783 C.2       1 UNK         0.0000 
     29 C29         5.2700   54.0727   22.1105 C.2       1 UNK         0.0000 
     30 H30        -0.7736   50.4913   27.0584 H         1 UNK         0.0000 
     31 H31        -1.3329   51.0627   29.3883 H         1 UNK         0.0000 
     32 H32        -0.3195   53.0403   30.4565 H         1 UNK         0.0000 
     33 H33         1.8088   53.9035   26.8189 H         1 UNK         0.0000 
     34 H34         0.7936   51.9073   25.7617 H         1 UNK         0.0000 
     35 H35         6.7040   52.3507   27.8336 H         1 UNK         0.0000 
     36 H36         7.2900   54.5033   26.4301 H         1 UNK         0.0000 
     37 H37         6.4412   55.9764   26.7485 H         1 UNK         0.0000 
     38 H38         7.5643   54.9361   24.2864 H         1 UNK         0.0000 
     39 H39         8.0260   56.0965   22.3570 H         1 UNK         0.0000 
     40 H40         9.0270   55.7350   19.5793 H         1 UNK         0.0000 
     41 H41         7.7813   54.8522   17.3856 H         1 UNK         0.0000 
     42 H42         4.2628   53.4507   20.3688 H         1 UNK         0.0000 
     43 H43         4.7144   53.3834   22.7306 H         1 UNK         0.0000 
@<TRIPOS>BOND
     1    1    6 ar   
     2    1    2 ar   
     3    1   30 1    
     4    2    3 ar   
     5    2   31 1    
     6    3    4 ar   
     7    3   32 1    
     8    4    5 ar   
     9    4    7 1    
    10    5    6 ar   
    11    5   33 1    
    12    6   34 1    
    13    7    8 2    
    14    7    9 2    
    15    7   10 1    
    16   10   11 1    
    17   11   15 1    
    18   11   12 2    
    19   12   13 1    
    20   13   14 2    
    21   13   16 1    
    22   14   15 1    
    23   14   35 1    
    24   16   17 1    
    25   16   36 1    
    26   16   37 1    
    27   17   18 2    
    28   17   19 am   BACKBONE|DICT|INTERRES
    29   19   20 1    
    30   19   38 1    
    31   20   29 1    
    32   20   21 2    
    33   21   22 1    
    34   21   39 1    
    35   22   26 1    
    36   22   23 2    
    37   23   24 1    
    38   23   40 1    
    39   24   25 2    
    40   24   41 1    
    41   25   26 1    
    42   26   27 1    
    43   26   28 1    
    44   28   29 2    
    45   28   42 1    
    46   29   43 1    
@<TRIPOS>SUBSTRUCTURE
     1 UNK         1 GROUP             0       ****    0 ROOT    
