@<TRIPOS>MOLECULE
ZINC21883079_539
49   52    1
SMALL
USER_CHARGES


@<TRIPOS>ATOM
      1 C1         10.5218   49.7046   13.9842 C.3       1 UNK         0.0000 
      2 C2          9.5641   50.6807   14.6398 C.ar      1 UNK         0.0000 
      3 C3          8.6126   51.3478   13.8690 C.ar      1 UNK         0.0000 
      4 C4          7.7195   52.2309   14.4714 C.ar      1 UNK         0.0000 
      5 C5          7.7650   52.4558   15.8549 C.ar      1 UNK         0.0000 
      6 C6          8.7282   51.7803   16.6158 C.ar      1 UNK         0.0000 
      7 C7          9.6192   50.8955   16.0163 C.ar      1 UNK         0.0000 
      8 C8          6.7807   53.3883   16.5107 C.2       1 UNK         0.0000 
      9 N9          6.5802   53.3981   17.8174 N.2       1 UNK         0.0000 
     10 C10         5.6219   54.2748   17.9502 C.2       1 UNK         0.0000 
     11 O11         5.2363   54.8365   16.7804 O.3       1 UNK         0.0000 
     12 N12         6.0413   54.2335   15.8166 N.2       1 UNK         0.0000 
     13 C13         4.8497   54.6333   19.2057 C.3       1 UNK         0.0000 
     14 C14         5.7325   54.8145   20.4746 C.3       1 UNK         0.0000 
     15 C15         5.0722   54.4264   21.8099 C.2       1 UNK         0.0000 
     16 O16         3.8848   54.1009   21.8212 O.2       1 UNK         0.0000 
     17 N17         5.8581   54.4992   22.9125 N.am      1 UNK         0.0000 
     18 C18         5.4976   54.4006   24.2797 C.ar      1 UNK         0.0000 
     19 C19         6.5103   54.6594   25.2150 C.ar      1 UNK         0.0000 
     20 C20         6.2709   54.6447   26.5945 C.ar      1 UNK         0.0000 
     21 C21         4.9740   54.3594   27.0456 C.ar      1 UNK         0.0000 
     22 C22         3.9600   54.0723   26.1050 C.ar      1 UNK         0.0000 
     23 C23         4.2002   54.0971   24.7280 C.ar      1 UNK         0.0000 
     24 S24         2.4852   53.6969   26.9646 S.3       1 UNK         0.0000 
     25 C25         3.3027   54.1014   28.4765 C.2       1 UNK         0.0000 
     26 N26         4.5774   54.3560   28.3462 N.2       1 UNK         0.0000 
     27 N27         2.6627   54.1403   29.6607 N.2       1 UNK         0.0000 
     28 S28         1.1307   53.9284   29.9343 S.o2      1 UNK         0.0000 
     29 O29         0.2578   54.0968   28.7715 O.2       1 UNK         0.0000 
     30 O30         0.7009   54.5965   31.1640 O.2       1 UNK         0.0000 
     31 C31         1.0357   52.1018   30.3210 C.3       1 UNK         0.0000 
     32 H32        10.0612   49.2370   13.1139 H         1 UNK         0.0000 
     33 H33        11.4317   50.2124   13.6613 H         1 UNK         0.0000 
     34 H34        10.7935   48.8975   14.6662 H         1 UNK         0.0000 
     35 H35         8.5634   51.1826   12.8015 H         1 UNK         0.0000 
     36 H36         6.9845   52.7311   13.8579 H         1 UNK         0.0000 
     37 H37         8.7915   51.9342   17.6817 H         1 UNK         0.0000 
     38 H38        10.3500   50.3826   16.6253 H         1 UNK         0.0000 
     39 H39         4.0581   53.8973   19.3545 H         1 UNK         0.0000 
     40 H40         4.3081   55.5671   19.0420 H         1 UNK         0.0000 
     41 H41         6.2136   55.7921   20.5044 H         1 UNK         0.0000 
     42 H42         6.5382   54.0976   20.3918 H         1 UNK         0.0000 
     43 H43         6.8275   54.7253   22.7493 H         1 UNK         0.0000 
     44 H44         7.5065   54.8928   24.8664 H         1 UNK         0.0000 
     45 H45         7.0556   54.8589   27.3062 H         1 UNK         0.0000 
     46 H46         3.3844   53.8760   24.0593 H         1 UNK         0.0000 
     47 H47         0.0008   51.8598   30.5650 H         1 UNK         0.0000 
     48 H48         1.6757   51.8990   31.1773 H         1 UNK         0.0000 
     49 H49         1.3585   51.5373   29.4471 H         1 UNK         0.0000 
@<TRIPOS>BOND
     1    1    2 1    
     2    1   32 1    
     3    1   33 1    
     4    1   34 1    
     5    2    7 ar   
     6    2    3 ar   
     7    3    4 ar   
     8    3   35 1    
     9    4    5 ar   
    10    4   36 1    
    11    5    6 ar   
    12    5    8 1    
    13    6    7 ar   
    14    6   37 1    
    15    7   38 1    
    16    8   12 2    
    17    8    9 1    
    18    9   10 2    
    19   10   11 1    
    20   10   13 1    
    21   11   12 1    
    22   13   14 1    
    23   13   39 1    
    24   13   40 1    
    25   14   15 1    
    26   14   41 1    
    27   14   42 1    
    28   15   16 2    
    29   15   17 am   BACKBONE|DICT|INTERRES
    30   17   18 1    
    31   17   43 1    
    32   18   23 ar   
    33   18   19 ar   
    34   19   20 ar   
    35   19   44 1    
    36   20   21 ar   
    37   20   45 1    
    38   21   26 1    
    39   21   22 ar   
    40   22   23 ar   
    41   22   24 1    
    42   23   46 1    
    43   24   25 1    
    44   25   26 2    
    45   25   27 1    
    46   27   28 1    
    47   28   29 2    
    48   28   30 2    
    49   28   31 1    
    50   31   47 1    
    51   31   48 1    
    52   31   49 1    
@<TRIPOS>SUBSTRUCTURE
     1 UNK         1 GROUP             0       ****    0 ROOT    
