@<TRIPOS>MOLECULE
ZINC09404719_5130
53   56    1
SMALL
USER_CHARGES


@<TRIPOS>ATOM
      1 C1          7.2469   59.9007   15.2810 C.3       1 UNK         0.0000 
      2 N2          6.3120   58.9675   14.6222 N.pl3     1 UNK         0.0000 
      3 C3          4.8823   59.2957   14.7993 C.3       1 UNK         0.0000 
      4 S4          6.7426   57.2468   14.6709 S.o2      1 UNK         0.0000 
      5 O5          5.7170   56.4936   13.9338 O.2       1 UNK         0.0000 
      6 O6          8.1599   57.1233   14.3066 O.2       1 UNK         0.0000 
      7 C7          6.5977   56.7808   16.3942 C.ar      1 UNK         0.0000 
      8 C8          5.3474   56.4586   16.9181 C.ar      1 UNK         0.0000 
      9 C9          5.2281   56.1059   18.2584 C.ar      1 UNK         0.0000 
     10 C10         6.3648   56.0634   19.0851 C.ar      1 UNK         0.0000 
     11 C11         7.6150   56.3948   18.5434 C.ar      1 UNK         0.0000 
     12 C12         7.7324   56.7541   17.2056 C.ar      1 UNK         0.0000 
     13 C13         6.2646   55.6811   20.5446 C.2       1 UNK         0.0000 
     14 O14         7.1056   56.1035   21.3405 O.2       1 UNK         0.0000 
     15 N15         5.2185   54.8757   20.8587 N.am      1 UNK         0.0000 
     16 C16         4.8263   54.2538   22.0194 C.2       1 UNK         0.0000 
     17 S17         5.7554   54.0976   23.4164 S.2       1 UNK         0.0000 
     18 N18         3.5755   53.7219   21.8535 N.pl3     1 UNK         0.0000 
     19 C19         2.7239   52.9883   22.7025 C.ar      1 UNK         0.0000 
     20 C20         2.0406   51.9200   22.1226 C.ar      1 UNK         0.0000 
     21 C21         1.1803   51.1387   22.8905 C.ar      1 UNK         0.0000 
     22 C22         0.9908   51.4306   24.2384 C.ar      1 UNK         0.0000 
     23 C23         1.6504   52.5099   24.8462 C.ar      1 UNK         0.0000 
     24 C24         2.5069   53.2961   24.0551 C.ar      1 UNK         0.0000 
     25 C25         1.4409   52.8218   26.3066 C.2       1 UNK         0.0000 
     26 N26         1.9047   53.8976   26.8908 N.2       1 UNK         0.0000 
     27 C27         1.4446   54.0256   28.1653 C.ar      1 UNK         0.0000 
     28 C28         1.6858   55.1244   29.0050 C.ar      1 UNK         0.0000 
     29 C29         1.1049   55.1309   30.2750 C.ar      1 UNK         0.0000 
     30 C30         0.3335   54.0607   30.7258 C.ar      1 UNK         0.0000 
     31 C31         0.0975   52.9466   29.9190 C.ar      1 UNK         0.0000 
     32 C32         0.6424   52.9487   28.6281 C.ar      1 UNK         0.0000 
     33 S33         0.4836   51.7673   27.3393 S.3       1 UNK         0.0000 
     34 H34         7.1346   59.8313   16.3635 H         1 UNK         0.0000 
     35 H35         7.0424   60.9235   14.9603 H         1 UNK         0.0000 
     36 H36         8.2745   59.6463   15.0207 H         1 UNK         0.0000 
     37 H37         4.6862   60.3211   14.4780 H         1 UNK         0.0000 
     38 H38         4.2652   58.6197   14.2062 H         1 UNK         0.0000 
     39 H39         4.6005   59.1902   15.8483 H         1 UNK         0.0000 
     40 H40         4.4679   56.4848   16.2878 H         1 UNK         0.0000 
     41 H41         4.2412   55.8762   18.6355 H         1 UNK         0.0000 
     42 H42         8.5075   56.3743   19.1549 H         1 UNK         0.0000 
     43 H43         8.7046   57.0051   16.8044 H         1 UNK         0.0000 
     44 H44         4.6470   54.6504   20.0603 H         1 UNK         0.0000 
     45 H45         3.2161   53.7683   20.9110 H         1 UNK         0.0000 
     46 H46         2.1796   51.6770   21.0798 H         1 UNK         0.0000 
     47 H47         0.6666   50.3023   22.4425 H         1 UNK         0.0000 
     48 H48         0.3196   50.8021   24.8035 H         1 UNK         0.0000 
     49 H49         3.0067   54.1442   24.4993 H         1 UNK         0.0000 
     50 H50         2.2859   55.9566   28.6686 H         1 UNK         0.0000 
     51 H51         1.2635   55.9790   30.9285 H         1 UNK         0.0000 
     52 H52        -0.0904   54.0856   31.7220 H         1 UNK         0.0000 
     53 H53        -0.5040   52.1189   30.2748 H         1 UNK         0.0000 
@<TRIPOS>BOND
     1    1    2 1    
     2    1   34 1    
     3    1   35 1    
     4    1   36 1    
     5    2    3 1    
     6    2    4 1    
     7    3   37 1    
     8    3   38 1    
     9    3   39 1    
    10    4    5 2    
    11    4    6 2    
    12    4    7 1    
    13    7   12 ar   
    14    7    8 ar   
    15    8    9 ar   
    16    8   40 1    
    17    9   10 ar   
    18    9   41 1    
    19   10   11 ar   
    20   10   13 1    
    21   11   12 ar   
    22   11   42 1    
    23   12   43 1    
    24   13   14 2    
    25   13   15 am   BACKBONE|DICT|INTERRES
    26   15   16 am   BACKBONE|DICT|INTERRES
    27   15   44 1    
    28   16   17 2    
    29   16   18 1    
    30   18   19 1    
    31   18   45 1    
    32   19   24 ar   
    33   19   20 ar   
    34   20   21 ar   
    35   20   46 1    
    36   21   22 ar   
    37   21   47 1    
    38   22   23 ar   
    39   22   48 1    
    40   23   24 ar   
    41   23   25 1    
    42   24   49 1    
    43   25   33 1    
    44   25   26 2    
    45   26   27 1    
    46   27   32 ar   
    47   27   28 ar   
    48   28   29 ar   
    49   28   50 1    
    50   29   30 ar   
    51   29   51 1    
    52   30   31 ar   
    53   30   52 1    
    54   31   32 ar   
    55   31   53 1    
    56   32   33 1    
@<TRIPOS>SUBSTRUCTURE
     1 UNK         1 GROUP             0       ****    0 ROOT    
