@<TRIPOS>MOLECULE
ZINC12473346_3109
59   62    1
SMALL
USER_CHARGES


@<TRIPOS>ATOM
      1 C1          3.6054   54.4078   25.1454 C.ar      1 UNK         0.0000 
      2 C2          4.2128   54.8967   26.2968 C.ar      1 UNK         0.0000 
      3 C3          3.8492   54.3982   27.5429 C.ar      1 UNK         0.0000 
      4 C4          2.8728   53.4166   27.6402 C.ar      1 UNK         0.0000 
      5 C5          2.3111   52.8966   26.4788 C.ar      1 UNK         0.0000 
      6 C6          2.7338   53.3133   25.2067 C.ar      1 UNK         0.0000 
      7 C7          2.0821   52.6348   23.9937 C.3       1 UNK         0.0000 
      8 H8          1.7255   51.6684   24.3517 H         1 UNK         0.0000 
      9 C9          0.8737   53.4923   23.6822 C.2       1 UNK         0.0000 
     10 O10         1.1043   54.6278   23.2817 O.2       1 UNK         0.0000 
     11 N11        -0.3243   52.9440   23.9659 N.am      1 UNK         0.0000 
     12 C12        -1.6433   53.5520   23.7993 C.3       1 UNK         0.0000 
     13 C13        -2.5987   53.2388   24.9817 C.3       1 UNK         0.0000 
     14 H14        -2.2650   53.6966   25.9147 H         1 UNK         0.0000 
     15 C15        -4.0877   53.4393   24.7176 C.3       1 UNK         0.0000 
     16 C16        -4.7661   52.4565   25.6456 C.3       1 UNK         0.0000 
     17 C17        -3.7175   51.3649   25.8640 C.3       1 UNK         0.0000 
     18 O18        -2.5494   51.8272   25.1871 O.3       1 UNK         0.0000 
     19 N19         2.8313   52.3713   22.6947 N.am      1 UNK         0.0000 
     20 C20         3.9181   53.1523   22.1877 C.ar      1 UNK         0.0000 
     21 C21         5.1204   53.3414   22.8821 C.ar      1 UNK         0.0000 
     22 C22         6.0865   54.2195   22.4030 C.ar      1 UNK         0.0000 
     23 C23         5.9185   54.8059   21.1519 C.ar      1 UNK         0.0000 
     24 C24         4.8032   54.5047   20.3787 C.ar      1 UNK         0.0000 
     25 C25         3.7978   53.7052   20.9063 C.ar      1 UNK         0.0000 
     26 F26         6.8614   55.6500   20.6760 F         1 UNK         0.0000 
     27 C27         2.5666   51.2081   21.9972 C.2       1 UNK         0.0000 
     28 O28         3.3597   50.6645   21.2268 O.2       1 UNK         0.0000 
     29 C29         1.2387   50.6547   22.0720 C.2       1 UNK         0.0000 
     30 C30         0.0796   51.0637   21.4203 C.2       1 UNK         0.0000 
     31 C31        -1.0241   50.2850   21.8283 C.2       1 UNK         0.0000 
     32 N32        -0.7977   49.3331   22.7139 N.2       1 UNK         0.0000 
     33 S33         0.8651   49.3156   23.1057 S.3       1 UNK         0.0000 
     34 C34        -2.3882   50.4433   21.3962 C.2       1 UNK         0.0000 
     35 O35        -3.3078   50.6797   22.1744 O.2       1 UNK         0.0000 
     36 N36        -2.5768   50.3208   20.0816 N.am      1 UNK         0.0000 
     37 N37         0.0300   52.0963   20.5145 N.pl3     1 UNK         0.0000 
     38 F38         4.4187   54.8935   28.6648 F         1 UNK         0.0000 
     39 H39         3.8159   54.8972   24.2097 H         1 UNK         0.0000 
     40 H40         4.9337   55.6961   26.2255 H         1 UNK         0.0000 
     41 H41         2.5649   53.0501   28.6080 H         1 UNK         0.0000 
     42 H42         1.5706   52.1144   26.5718 H         1 UNK         0.0000 
     43 H43        -0.3466   51.9948   24.3132 H         1 UNK         0.0000 
     44 H44        -2.0813   53.1984   22.8658 H         1 UNK         0.0000 
     45 H45        -1.5486   54.6291   23.6816 H         1 UNK         0.0000 
     46 H46        -4.3162   53.2007   23.6820 H         1 UNK         0.0000 
     47 H47        -4.3954   54.4776   24.8460 H         1 UNK         0.0000 
     48 H48        -5.6892   52.0625   25.2181 H         1 UNK         0.0000 
     49 H49        -5.0154   52.9347   26.5935 H         1 UNK         0.0000 
     50 H50        -4.0332   50.4111   25.4393 H         1 UNK         0.0000 
     51 H51        -3.5071   51.2269   26.9260 H         1 UNK         0.0000 
     52 H52         5.2836   52.8969   23.8482 H         1 UNK         0.0000 
     53 H53         6.9758   54.4252   22.9809 H         1 UNK         0.0000 
     54 H54         4.6910   54.9376   19.3957 H         1 UNK         0.0000 
     55 H55         2.9110   53.5301   20.3158 H         1 UNK         0.0000 
     56 H56        -1.8041   50.0911   19.4737 H         1 UNK         0.0000 
     57 H57        -3.5114   50.3926   19.7097 H         1 UNK         0.0000 
     58 H58        -0.8073   52.3127   19.9964 H         1 UNK         0.0000 
     59 H59         0.8483   52.6482   20.2897 H         1 UNK         0.0000 
@<TRIPOS>BOND
     1    1    6 ar   
     2    1    2 ar   
     3    1   39 1    
     4    2    3 ar   
     5    2   40 1    
     6    3    4 ar   
     7    3   38 1    
     8    4    5 ar   
     9    4   41 1    
    10    5    6 ar   
    11    5   42 1    
    12    6    7 1    
    13    7    8 1    
    14    7    9 1    
    15    7   19 1    
    16    9   10 2    
    17    9   11 am   BACKBONE|DICT|INTERRES
    18   11   12 1    
    19   11   43 1    
    20   12   13 1    
    21   12   44 1    
    22   12   45 1    
    23   13   14 1    
    24   13   18 1    
    25   13   15 1    
    26   15   16 1    
    27   15   46 1    
    28   15   47 1    
    29   16   17 1    
    30   16   48 1    
    31   16   49 1    
    32   17   18 1    
    33   17   50 1    
    34   17   51 1    
    35   19   20 1    
    36   19   27 am   BACKBONE|DICT|INTERRES
    37   20   25 ar   
    38   20   21 ar   
    39   21   22 ar   
    40   21   52 1    
    41   22   23 ar   
    42   22   53 1    
    43   23   24 ar   
    44   23   26 1    
    45   24   25 ar   
    46   24   54 1    
    47   25   55 1    
    48   27   28 2    
    49   27   29 1    
    50   29   33 1    
    51   29   30 2    
    52   30   31 1    
    53   30   37 1    
    54   31   32 2    
    55   31   34 1    
    56   32   33 1    
    57   34   35 2    
    58   34   36 am   BACKBONE|DICT|INTERRES
    59   36   56 1    
    60   36   57 1    
    61   37   58 1    
    62   37   59 1    
@<TRIPOS>SUBSTRUCTURE
     1 UNK         1 GROUP             0       ****    0 ROOT    
