@<TRIPOS>MOLECULE
ZINC09237835_665
52   55    1
SMALL
USER_CHARGES


@<TRIPOS>ATOM
      1 C1          3.3882   53.7759   28.7409 C.3       1 UNK         0.0000 
      2 C2          4.3724   54.0428   27.6095 C.ar      1 UNK         0.0000 
      3 C3          5.7131   54.2525   27.9383 C.ar      1 UNK         0.0000 
      4 C4          6.6598   54.4736   26.9463 C.ar      1 UNK         0.0000 
      5 C5          6.2753   54.4920   25.6091 C.ar      1 UNK         0.0000 
      6 C6          4.9363   54.2683   25.2494 C.ar      1 UNK         0.0000 
      7 C7          3.9718   54.0517   26.2571 C.ar      1 UNK         0.0000 
      8 C8          2.5050   53.8069   25.8913 C.3       1 UNK         0.0000 
      9 N9          4.5271   54.2904   23.8985 N.am      1 UNK         0.0000 
     10 C10         5.2268   53.8913   22.8139 C.2       1 UNK         0.0000 
     11 O11         6.3020   53.2967   22.8829 O.2       1 UNK         0.0000 
     12 C12         4.5957   54.1831   21.4324 C.3       1 UNK         0.0000 
     13 H13         3.7950   54.8992   21.5877 H         1 UNK         0.0000 
     14 C14         4.0308   52.8862   20.7559 C.3       1 UNK         0.0000 
     15 H15         4.8608   52.1811   20.6534 H         1 UNK         0.0000 
     16 N16         3.5414   53.1718   19.4085 N.3       1 UNK         0.0000 
     17 N17         4.5105   53.7182   18.5744 N.pl3     1 UNK         0.0000 
     18 C18         4.6043   53.5669   17.2107 C.ar      1 UNK         0.0000 
     19 N19         5.6266   54.2349   16.7379 N.2       1 UNK         0.0000 
     20 N20         6.2358   54.8638   17.8178 N.2       1 UNK         0.0000 
     21 C21         5.5572   54.5510   18.8955 C.ar      1 UNK         0.0000 
     22 S22         5.9034   55.1074   20.5291 S.3       1 UNK         0.0000 
     23 C23         3.6476   52.7503   16.3714 C.3       1 UNK         0.0000 
     24 C24         2.9440   52.1778   21.5754 C.ar      1 UNK         0.0000 
     25 C25         2.9705   50.7890   21.7135 C.ar      1 UNK         0.0000 
     26 C26         2.0420   50.1381   22.5294 C.ar      1 UNK         0.0000 
     27 C27         1.0388   50.8642   23.1946 C.ar      1 UNK         0.0000 
     28 C28         0.9745   52.2482   22.9990 C.ar      1 UNK         0.0000 
     29 C29         1.9142   52.8958   22.1962 C.ar      1 UNK         0.0000 
     30 Br30       -0.3710   53.2874   23.8637 Br        1 UNK         0.0000 
     31 O31         0.1112   50.3006   24.0507 O.3       1 UNK         0.0000 
     32 C32         0.3058   48.9708   24.5225 C.3       1 UNK         0.0000 
     33 H33         2.6962   54.6110   28.8497 H         1 UNK         0.0000 
     34 H34         2.8062   52.8787   28.5288 H         1 UNK         0.0000 
     35 H35         3.8911   53.6104   29.6947 H         1 UNK         0.0000 
     36 H36         6.0316   54.2482   28.9701 H         1 UNK         0.0000 
     37 H37         7.6889   54.6259   27.2294 H         1 UNK         0.0000 
     38 H38         7.0295   54.6735   24.8567 H         1 UNK         0.0000 
     39 H39         1.8168   54.0976   26.6848 H         1 UNK         0.0000 
     40 H40         2.2052   54.4000   25.0259 H         1 UNK         0.0000 
     41 H41         2.3433   52.7523   25.6587 H         1 UNK         0.0000 
     42 H42         3.5728   54.5756   23.7480 H         1 UNK         0.0000 
     43 H43         3.2679   52.2924   18.9898 H         1 UNK         0.0000 
     44 H44         3.8833   52.8037   15.3075 H         1 UNK         0.0000 
     45 H45         3.6753   51.6961   16.6492 H         1 UNK         0.0000 
     46 H46         2.6177   53.0905   16.4867 H         1 UNK         0.0000 
     47 H47         3.7344   50.2110   21.2157 H         1 UNK         0.0000 
     48 H48         2.1297   49.0678   22.6468 H         1 UNK         0.0000 
     49 H49         1.8434   53.9672   22.0813 H         1 UNK         0.0000 
     50 H50        -0.5027   48.7033   25.2043 H         1 UNK         0.0000 
     51 H51         1.2368   48.8970   25.0848 H         1 UNK         0.0000 
     52 H52         0.3098   48.2423   23.7127 H         1 UNK         0.0000 
@<TRIPOS>BOND
     1    1    2 1    
     2    1   33 1    
     3    1   34 1    
     4    1   35 1    
     5    2    7 ar   
     6    2    3 ar   
     7    3    4 ar   
     8    3   36 1    
     9    4    5 ar   
    10    4   37 1    
    11    5    6 ar   
    12    5   38 1    
    13    6    7 ar   
    14    6    9 1    
    15    7    8 1    
    16    8   39 1    
    17    8   40 1    
    18    8   41 1    
    19    9   10 am   BACKBONE|DICT|INTERRES
    20    9   42 1    
    21   10   11 2    
    22   10   12 1    
    23   12   13 1    
    24   12   22 1    
    25   12   14 1    
    26   14   15 1    
    27   14   16 1    
    28   14   24 1    
    29   16   17 1    
    30   16   43 1    
    31   17   21 ar   
    32   17   18 ar   
    33   18   19 ar   
    34   18   23 1    
    35   19   20 ar   
    36   20   21 ar   
    37   21   22 1    
    38   23   44 1    
    39   23   45 1    
    40   23   46 1    
    41   24   29 ar   
    42   24   25 ar   
    43   25   26 ar   
    44   25   47 1    
    45   26   27 ar   
    46   26   48 1    
    47   27   28 ar   
    48   27   31 1    
    49   28   29 ar   
    50   28   30 1    
    51   29   49 1    
    52   31   32 1    
    53   32   50 1    
    54   32   51 1    
    55   32   52 1    
@<TRIPOS>SUBSTRUCTURE
     1 UNK         1 GROUP             0       ****    0 ROOT    
