@<TRIPOS>MOLECULE
ZINC33723599_977
55   60    1
SMALL
USER_CHARGES


@<TRIPOS>ATOM
      1 C1          0.3427   49.8065   19.1391 C.3       1 UNK         0.0000 
      2 O2          1.7189   49.9015   19.4840 O.3       1 UNK         0.0000 
      3 C3          2.1390   50.9285   20.3062 C.ar      1 UNK         0.0000 
      4 C4          3.5034   50.9950   20.5728 C.ar      1 UNK         0.0000 
      5 C5          4.0232   51.9760   21.4137 C.ar      1 UNK         0.0000 
      6 C6          3.1789   52.9392   21.9803 C.ar      1 UNK         0.0000 
      7 C7          1.8167   52.8965   21.6716 C.ar      1 UNK         0.0000 
      8 C8          1.2918   51.8931   20.8641 C.ar      1 UNK         0.0000 
      9 C9          3.7230   54.1230   22.8150 C.3       1 UNK         0.0000 
     10 H10         3.1147   54.9816   22.5262 H         1 UNK         0.0000 
     11 C11         3.6806   53.9652   24.3263 C.2       1 UNK         0.0000 
     12 C12         2.4180   53.6958   25.0665 C.2       1 UNK         0.0000 
     13 C13         2.3063   53.6968   26.5643 C.ar      1 UNK         0.0000 
     14 C14         3.0008   54.6271   27.3493 C.ar      1 UNK         0.0000 
     15 C15         2.7396   54.7770   28.7068 C.ar      1 UNK         0.0000 
     16 C16         1.7492   54.0027   29.2920 C.ar      1 UNK         0.0000 
     17 C17         1.0566   53.0420   28.5441 C.ar      1 UNK         0.0000 
     18 C18         1.3298   52.8957   27.1858 C.ar      1 UNK         0.0000 
     19 O19         0.0211   52.3052   29.0853 O.3       1 UNK         0.0000 
     20 C20        -0.0185   52.3200   30.5185 C.3       1 UNK         0.0000 
     21 C21         0.2297   53.7438   31.0609 C.3       1 UNK         0.0000 
     22 O22         1.5045   54.2020   30.6281 O.3       1 UNK         0.0000 
     23 O23         1.4019   53.4168   24.4346 O.2       1 UNK         0.0000 
     24 C24         4.9506   54.0967   24.7484 C.2       1 UNK         0.0000 
     25 O25         5.4637   53.9806   25.9252 O.co2     1 UNK         0.0000 
     26 C26         5.8791   54.3486   23.6664 C.2       1 UNK         0.0000 
     27 O27         7.1044   54.4217   23.7428 O.2       1 UNK         0.0000 
     28 N28         5.1244   54.4940   22.5457 N.am      1 UNK         0.0000 
     29 C29         5.5828   54.9050   21.2803 C.2       1 UNK         0.0000 
     30 N30         4.8662   54.7851   20.1949 N.2       1 UNK         0.0000 
     31 C31         5.5001   55.2792   19.1015 C.ar      1 UNK         0.0000 
     32 C32         4.9697   55.2767   17.8043 C.ar      1 UNK         0.0000 
     33 C33         5.7368   55.8263   16.7738 C.ar      1 UNK         0.0000 
     34 C34         7.0013   56.3650   17.0160 C.ar      1 UNK         0.0000 
     35 C35         7.5469   56.3802   18.2995 C.ar      1 UNK         0.0000 
     36 C36         6.7836   55.8343   19.3412 C.ar      1 UNK         0.0000 
     37 S37         7.1483   55.6966   21.0500 S.3       1 UNK         0.0000 
     38 F38         7.7127   56.8810   15.9889 F         1 UNK         0.0000 
     39 H39         0.1961   48.9521   18.4788 H         1 UNK         0.0000 
     40 H40        -0.2814   49.6541   20.0210 H         1 UNK         0.0000 
     41 H41         0.0023   50.6964   18.6073 H         1 UNK         0.0000 
     42 H42         4.1621   50.2917   20.0904 H         1 UNK         0.0000 
     43 H43         5.0880   52.0031   21.5923 H         1 UNK         0.0000 
     44 H44         1.1523   53.6644   22.0372 H         1 UNK         0.0000 
     45 H45         0.2322   51.8961   20.6629 H         1 UNK         0.0000 
     46 H46         3.7117   55.2975   26.9032 H         1 UNK         0.0000 
     47 H47         3.2744   55.5155   29.2845 H         1 UNK         0.0000 
     48 H48         0.7421   52.1917   26.6126 H         1 UNK         0.0000 
     49 H49        -0.9615   51.9099   30.8773 H         1 UNK         0.0000 
     50 H50         0.7867   51.6968   30.9020 H         1 UNK         0.0000 
     51 H51        -0.4960   54.4385   30.6514 H         1 UNK         0.0000 
     52 H52         0.1617   53.7720   32.1490 H         1 UNK         0.0000 
     53 H53         3.9939   54.8564   17.6094 H         1 UNK         0.0000 
     54 H54         5.3478   55.8349   15.7659 H         1 UNK         0.0000 
     55 H55         8.5270   56.7983   18.4755 H         1 UNK         0.0000 
@<TRIPOS>BOND
     1    1    2 1    
     2    1   39 1    
     3    1   40 1    
     4    1   41 1    
     5    2    3 1    
     6    3    8 ar   
     7    3    4 ar   
     8    4    5 ar   
     9    4   42 1    
    10    5    6 ar   
    11    5   43 1    
    12    6    7 ar   
    13    6    9 1    
    14    7    8 ar   
    15    7   44 1    
    16    8   45 1    
    17    9   11 1    
    18    9   28 1    
    19    9   10 1    
    20   11   24 2    
    21   11   12 1    
    22   12   23 2    
    23   12   13 1    
    24   13   18 ar   
    25   13   14 ar   
    26   14   15 ar   
    27   14   46 1    
    28   15   16 ar   
    29   15   47 1    
    30   16   22 1    
    31   16   17 ar   
    32   17   18 ar   
    33   17   19 1    
    34   18   48 1    
    35   19   20 1    
    36   20   21 1    
    37   20   49 1    
    38   20   50 1    
    39   21   22 1    
    40   21   51 1    
    41   21   52 1    
    42   24   26 1    
    43   24   25 1    
    44   26   28 am   BACKBONE|DICT|INTERRES
    45   26   27 2    
    46   28   29 am   BACKBONE|DICT|INTERRES
    47   29   37 1    
    48   29   30 2    
    49   30   31 1    
    50   31   36 ar   
    51   31   32 ar   
    52   32   33 ar   
    53   32   53 1    
    54   33   34 ar   
    55   33   54 1    
    56   34   35 ar   
    57   34   38 1    
    58   35   36 ar   
    59   35   55 1    
    60   36   37 1    
@<TRIPOS>SUBSTRUCTURE
     1 UNK         1 GROUP             0       ****    0 ROOT    
