@<TRIPOS>MOLECULE
ZINC53169794_3898
27   29    1
SMALL
USER_CHARGES


@<TRIPOS>ATOM
      1 C1          2.2130   53.0801   27.1542 C.ar      1 UNK         0.0000 
      2 C2          1.1316   52.7826   27.9756 C.ar      1 UNK         0.0000 
      3 C3          0.9223   53.5311   29.1284 C.ar      1 UNK         0.0000 
      4 C4          1.7536   54.6028   29.4430 C.ar      1 UNK         0.0000 
      5 C5          2.8507   54.8824   28.6321 C.ar      1 UNK         0.0000 
      6 C6          3.1079   54.0951   27.5012 C.ar      1 UNK         0.0000 
      7 N7          4.2655   54.3134   26.7054 N.pl3     1 UNK         0.0000 
      8 C8          4.3737   54.2915   25.3158 C.ar      1 UNK         0.0000 
      9 C9          5.7651   54.4608   25.0677 C.ar      1 UNK         0.0000 
     10 C10         6.2589   54.4234   23.7568 C.ar      1 UNK         0.0000 
     11 C11         5.3543   54.2137   22.7184 C.ar      1 UNK         0.0000 
     12 C12         3.9893   54.0851   22.9627 C.ar      1 UNK         0.0000 
     13 C13         3.4631   54.1370   24.2560 C.ar      1 UNK         0.0000 
     14 F14         2.1266   54.0493   24.4478 F         1 UNK         0.0000 
     15 F15         3.1547   53.9010   21.9168 F         1 UNK         0.0000 
     16 N16         6.4643   54.6343   26.2250 N.2       1 UNK         0.0000 
     17 C17         5.5684   54.4972   27.1617 C.ar      1 UNK         0.0000 
     18 N18         5.9046   54.4968   28.4815 N.pl3     1 UNK         0.0000 
     19 Br19       -0.4953   53.0580   30.2972 Br        1 UNK         0.0000 
     20 H20         2.3676   52.4968   26.2625 H         1 UNK         0.0000 
     21 H21         0.4673   51.9654   27.7298 H         1 UNK         0.0000 
     22 H22         1.5556   55.1968   30.3234 H         1 UNK         0.0000 
     23 H23         3.5034   55.6966   28.9028 H         1 UNK         0.0000 
     24 H24         7.3130   54.5302   23.5564 H         1 UNK         0.0000 
     25 H25         5.7102   54.1679   21.6990 H         1 UNK         0.0000 
     26 H26         6.7355   54.9840   28.8096 H         1 UNK         0.0000 
     27 H27         5.2737   54.1486   29.1865 H         1 UNK         0.0000 
@<TRIPOS>BOND
     1    1    6 ar   
     2    1    2 ar   
     3    1   20 1    
     4    2    3 ar   
     5    2   21 1    
     6    3    4 ar   
     7    3   19 1    
     8    4    5 ar   
     9    4   22 1    
    10    5    6 ar   
    11    5   23 1    
    12    6    7 1    
    13    7   17 ar   
    14    7    8 ar   
    15    8   13 ar   
    16    8    9 ar   
    17    9   10 ar   
    18    9   16 ar   
    19   10   11 ar   
    20   10   24 1    
    21   11   12 ar   
    22   11   25 1    
    23   12   13 ar   
    24   12   15 1    
    25   13   14 1    
    26   16   17 ar   
    27   17   18 1    
    28   18   26 1    
    29   18   27 1    
@<TRIPOS>SUBSTRUCTURE
     1 UNK         1 GROUP             0       ****    0 ROOT    
