@<TRIPOS>MOLECULE
ZINC39266348_6053
66   70    1
SMALL
USER_CHARGES


@<TRIPOS>ATOM
      1 C1         -0.1823   47.1094   17.8498 C.ar      1 UNK         0.0000 
      2 C2         -0.9192   47.8764   18.7480 C.ar      1 UNK         0.0000 
      3 C3         -0.6403   49.2340   18.8850 C.ar      1 UNK         0.0000 
      4 C4          0.3721   49.8302   18.1201 C.ar      1 UNK         0.0000 
      5 C5          1.1060   49.0456   17.2220 C.ar      1 UNK         0.0000 
      6 C6          0.8309   47.6874   17.0878 C.ar      1 UNK         0.0000 
      7 C7          0.7259   51.3170   18.2955 C.3       1 UNK         0.0000 
      8 C8         -0.2941   52.3559   17.7794 C.ar      1 UNK         0.0000 
      9 C9          0.1057   53.6946   17.6812 C.ar      1 UNK         0.0000 
     10 C10        -0.7787   54.6700   17.2291 C.ar      1 UNK         0.0000 
     11 C11        -2.0695   54.3073   16.8564 C.ar      1 UNK         0.0000 
     12 C12        -2.4791   52.9787   16.9306 C.ar      1 UNK         0.0000 
     13 C13        -1.5933   52.0049   17.3870 C.ar      1 UNK         0.0000 
     14 N14         1.2568   51.5726   19.6438 N.am      1 UNK         0.0000 
     15 C15         0.5691   51.8695   20.7643 C.2       1 UNK         0.0000 
     16 O16        -0.6418   52.0978   20.7706 O.2       1 UNK         0.0000 
     17 C17         1.3747   51.8570   22.0834 C.3       1 UNK         0.0000 
     18 H18         1.9051   50.9057   22.1620 H         1 UNK         0.0000 
     19 C19         0.5387   52.0545   23.3751 C.3       1 UNK         0.0000 
     20 C20         0.9012   53.4326   23.9128 C.3       1 UNK         0.0000 
     21 C21         2.3498   53.6028   23.5021 C.3       1 UNK         0.0000 
     22 N22         2.4044   53.0233   22.0742 N.4       1 UNK         0.0000 
     23 C23         3.8191   52.6241   21.5719 C.3       1 UNK         0.0000 
     24 C24         4.9153   53.6496   21.8279 C.ar      1 UNK         0.0000 
     25 C25         5.3994   54.4732   20.8075 C.ar      1 UNK         0.0000 
     26 C26         6.4559   55.3486   21.0644 C.ar      1 UNK         0.0000 
     27 C27         6.9900   55.4414   22.3516 C.ar      1 UNK         0.0000 
     28 C28         6.4655   54.6841   23.3995 C.ar      1 UNK         0.0000 
     29 C29         5.4844   53.7374   23.1002 C.ar      1 UNK         0.0000 
     30 O30         6.9469   54.8810   24.6828 O.3       1 UNK         0.0000 
     31 C31         6.1871   54.6014   25.8057 C.ar      1 UNK         0.0000 
     32 C32         4.8091   54.8496   25.8769 C.ar      1 UNK         0.0000 
     33 C33         4.0870   54.4965   27.0149 C.ar      1 UNK         0.0000 
     34 C34         4.7490   53.9342   28.1031 C.ar      1 UNK         0.0000 
     35 C35         6.1246   53.7276   28.0607 C.ar      1 UNK         0.0000 
     36 C36         6.8379   54.0745   26.9189 C.ar      1 UNK         0.0000 
     37 H37        -0.3946   46.0557   17.7423 H         1 UNK         0.0000 
     38 H38        -1.7032   47.4211   19.3370 H         1 UNK         0.0000 
     39 H39        -1.2112   49.8214   19.5878 H         1 UNK         0.0000 
     40 H40         1.9049   49.4764   16.6337 H         1 UNK         0.0000 
     41 H41         1.4068   47.0876   16.3986 H         1 UNK         0.0000 
     42 H42         1.5951   51.4837   17.6552 H         1 UNK         0.0000 
     43 H43         1.1040   53.9859   17.9743 H         1 UNK         0.0000 
     44 H44        -0.4600   55.7008   17.1643 H         1 UNK         0.0000 
     45 H45        -2.7542   55.0596   16.4918 H         1 UNK         0.0000 
     46 H46        -3.4772   52.7009   16.6278 H         1 UNK         0.0000 
     47 H47        -1.9340   50.9819   17.4258 H         1 UNK         0.0000 
     48 H48         2.2333   51.3388   19.7430 H         1 UNK         0.0000 
     49 H49        -0.5368   51.9177   23.2554 H         1 UNK         0.0000 
     50 H50         0.8505   51.3111   24.1124 H         1 UNK         0.0000 
     51 H51         0.3031   54.2193   23.4616 H         1 UNK         0.0000 
     52 H52         0.7745   53.5003   24.9935 H         1 UNK         0.0000 
     53 H53         2.7105   54.6320   23.4717 H         1 UNK         0.0000 
     54 H54         3.0066   52.9942   24.1242 H         1 UNK         0.0000 
     55 H55         4.0625   51.6886   22.0776 H         1 UNK         0.0000 
     56 H56         3.7070   52.4121   20.5074 H         1 UNK         0.0000 
     57 H57         4.9867   54.4110   19.8094 H         1 UNK         0.0000 
     58 H58         6.8595   55.9531   20.2653 H         1 UNK         0.0000 
     59 H59         7.8143   56.1068   22.5487 H         1 UNK         0.0000 
     60 H60         5.1478   53.0844   23.8852 H         1 UNK         0.0000 
     61 H61         4.2958   55.2983   25.0417 H         1 UNK         0.0000 
     62 H62         3.0218   54.6685   27.0602 H         1 UNK         0.0000 
     63 H63         4.1944   53.6629   28.9893 H         1 UNK         0.0000 
     64 H64         6.6434   53.2968   28.9017 H         1 UNK         0.0000 
     65 H65         7.9027   53.9124   26.8971 H         1 UNK         0.0000 
     66 H66         2.0539   53.7533   21.4592 H         1 UNK         0.0000 
@<TRIPOS>BOND
     1    1    6 ar   
     2    1    2 ar   
     3    1   37 1    
     4    2    3 ar   
     5    2   38 1    
     6    3    4 ar   
     7    3   39 1    
     8    4    5 ar   
     9    4    7 1    
    10    5    6 ar   
    11    5   40 1    
    12    6   41 1    
    13    7    8 1    
    14    7   14 1    
    15    7   42 1    
    16    8   13 ar   
    17    8    9 ar   
    18    9   10 ar   
    19    9   43 1    
    20   10   11 ar   
    21   10   44 1    
    22   11   12 ar   
    23   11   45 1    
    24   12   13 ar   
    25   12   46 1    
    26   13   47 1    
    27   14   15 am   BACKBONE|DICT|INTERRES
    28   14   48 1    
    29   15   16 2    
    30   15   17 1    
    31   17   18 1    
    32   17   22 1    
    33   17   19 1    
    34   19   20 1    
    35   19   49 1    
    36   19   50 1    
    37   20   21 1    
    38   20   51 1    
    39   20   52 1    
    40   21   22 1    
    41   21   53 1    
    42   21   54 1    
    43   22   23 1    
    44   22   66 1    
    45   23   24 1    
    46   23   55 1    
    47   23   56 1    
    48   24   29 ar   
    49   24   25 ar   
    50   25   26 ar   
    51   25   57 1    
    52   26   27 ar   
    53   26   58 1    
    54   27   28 ar   
    55   27   59 1    
    56   28   29 ar   
    57   28   30 1    
    58   29   60 1    
    59   30   31 1    
    60   31   36 ar   
    61   31   32 ar   
    62   32   33 ar   
    63   32   61 1    
    64   33   34 ar   
    65   33   62 1    
    66   34   35 ar   
    67   34   63 1    
    68   35   36 ar   
    69   35   64 1    
    70   36   65 1    
@<TRIPOS>SUBSTRUCTURE
     1 UNK         1 GROUP             0       ****    0 ROOT    
