@<TRIPOS>MOLECULE
ZINC09404700_4012
60   64    1
SMALL
USER_CHARGES


@<TRIPOS>ATOM
      1 C1          0.6025   49.2972   24.6327 C.3       1 UNK         0.0000 
      2 C2         -0.5111   49.2621   25.6816 C.3       1 UNK         0.0000 
      3 H3         -0.4910   48.2474   26.0820 H         1 UNK         0.0000 
      4 C4         -1.9322   49.5265   25.1369 C.3       1 UNK         0.0000 
      5 N5         -2.1760   50.9682   24.9121 N.pl3     1 UNK         0.0000 
      6 C6         -1.8057   51.8430   26.0495 C.3       1 UNK         0.0000 
      7 C7         -0.3628   51.5557   26.5217 C.3       1 UNK         0.0000 
      8 H8          0.3602   51.8685   25.7704 H         1 UNK         0.0000 
      9 O9         -0.2034   50.1575   26.7577 O.3       1 UNK         0.0000 
     10 C10        -0.0287   52.2925   27.8217 C.3       1 UNK         0.0000 
     11 S11        -2.2937   51.6269   23.2660 S.o2      1 UNK         0.0000 
     12 O12        -2.8884   50.6086   22.3921 O.2       1 UNK         0.0000 
     13 O13        -2.8653   52.9755   23.3567 O.2       1 UNK         0.0000 
     14 C14        -0.6040   51.8533   22.7263 C.ar      1 UNK         0.0000 
     15 C15        -0.0171   51.0049   21.7823 C.ar      1 UNK         0.0000 
     16 C16         1.3104   51.2056   21.4017 C.ar      1 UNK         0.0000 
     17 C17         2.0465   52.2660   21.9457 C.ar      1 UNK         0.0000 
     18 C18         1.4409   53.1055   22.8922 C.ar      1 UNK         0.0000 
     19 C19         0.1282   52.8966   23.2830 C.ar      1 UNK         0.0000 
     20 C20         3.4748   52.5063   21.5224 C.2       1 UNK         0.0000 
     21 O21         4.2439   51.5734   21.2816 O.2       1 UNK         0.0000 
     22 N22         3.8063   53.8071   21.4486 N.am      1 UNK         0.0000 
     23 C23         5.0885   54.3159   21.2717 C.ar      1 UNK         0.0000 
     24 C24         5.4994   54.5564   19.9565 C.ar      1 UNK         0.0000 
     25 C25         6.7104   55.1940   19.7055 C.ar      1 UNK         0.0000 
     26 C26         7.5103   55.5971   20.7694 C.ar      1 UNK         0.0000 
     27 C27         7.1045   55.3454   22.0791 C.ar      1 UNK         0.0000 
     28 C28         5.8972   54.6905   22.3704 C.ar      1 UNK         0.0000 
     29 C29         5.5235   54.4967   23.8309 C.2       1 UNK         0.0000 
     30 N30         4.3039   54.3597   24.2850 N.2       1 UNK         0.0000 
     31 C31         4.2608   54.2502   25.6415 C.ar      1 UNK         0.0000 
     32 C32         3.0929   54.0965   26.4023 C.ar      1 UNK         0.0000 
     33 C33         3.2090   54.0308   27.7928 C.ar      1 UNK         0.0000 
     34 C34         4.4523   54.0973   28.4205 C.ar      1 UNK         0.0000 
     35 C35         5.6294   54.2378   27.6862 C.ar      1 UNK         0.0000 
     36 C36         5.5168   54.3157   26.2916 C.ar      1 UNK         0.0000 
     37 S37         6.7571   54.4972   25.0760 S.3       1 UNK         0.0000 
     38 H38         0.3646   48.6834   23.7643 H         1 UNK         0.0000 
     39 H39         1.5043   48.8968   25.0824 H         1 UNK         0.0000 
     40 H40         0.8476   50.2980   24.2953 H         1 UNK         0.0000 
     41 H41        -2.1079   48.9777   24.2120 H         1 UNK         0.0000 
     42 H42        -2.6757   49.1982   25.8645 H         1 UNK         0.0000 
     43 H43        -1.9227   52.8864   25.7571 H         1 UNK         0.0000 
     44 H44        -2.5198   51.6376   26.8480 H         1 UNK         0.0000 
     45 H45        -0.0807   53.3732   27.6940 H         1 UNK         0.0000 
     46 H46        -0.7184   52.0119   28.6190 H         1 UNK         0.0000 
     47 H47         0.9761   52.0368   28.1572 H         1 UNK         0.0000 
     48 H48        -0.5778   50.1873   21.3523 H         1 UNK         0.0000 
     49 H49         1.7602   50.5423   20.6749 H         1 UNK         0.0000 
     50 H50         1.9712   53.9339   23.3351 H         1 UNK         0.0000 
     51 H51        -0.3217   53.5573   24.0105 H         1 UNK         0.0000 
     52 H52         3.0708   54.4839   21.5862 H         1 UNK         0.0000 
     53 H53         4.8695   54.2685   19.1263 H         1 UNK         0.0000 
     54 H54         7.0227   55.3813   18.6883 H         1 UNK         0.0000 
     55 H55         8.4508   56.0958   20.5814 H         1 UNK         0.0000 
     56 H56         7.7483   55.6950   22.8701 H         1 UNK         0.0000 
     57 H57         2.1256   54.0432   25.9276 H         1 UNK         0.0000 
     58 H58         2.3211   53.9307   28.3993 H         1 UNK         0.0000 
     59 H59         4.5057   54.0416   29.4978 H         1 UNK         0.0000 
     60 H60         6.5906   54.2943   28.1791 H         1 UNK         0.0000 
@<TRIPOS>BOND
     1    1    2 1    
     2    1   38 1    
     3    1   39 1    
     4    1   40 1    
     5    2    3 1    
     6    2    9 1    
     7    2    4 1    
     8    4    5 1    
     9    4   41 1    
    10    4   42 1    
    11    5    6 1    
    12    5   11 1    
    13    6    7 1    
    14    6   43 1    
    15    6   44 1    
    16    7    8 1    
    17    7    9 1    
    18    7   10 1    
    19   10   45 1    
    20   10   46 1    
    21   10   47 1    
    22   11   12 2    
    23   11   13 2    
    24   11   14 1    
    25   14   19 ar   
    26   14   15 ar   
    27   15   16 ar   
    28   15   48 1    
    29   16   17 ar   
    30   16   49 1    
    31   17   18 ar   
    32   17   20 1    
    33   18   19 ar   
    34   18   50 1    
    35   19   51 1    
    36   20   21 2    
    37   20   22 am   BACKBONE|DICT|INTERRES
    38   22   23 1    
    39   22   52 1    
    40   23   28 ar   
    41   23   24 ar   
    42   24   25 ar   
    43   24   53 1    
    44   25   26 ar   
    45   25   54 1    
    46   26   27 ar   
    47   26   55 1    
    48   27   28 ar   
    49   27   56 1    
    50   28   29 1    
    51   29   37 1    
    52   29   30 2    
    53   30   31 1    
    54   31   36 ar   
    55   31   32 ar   
    56   32   33 ar   
    57   32   57 1    
    58   33   34 ar   
    59   33   58 1    
    60   34   35 ar   
    61   34   59 1    
    62   35   36 ar   
    63   35   60 1    
    64   36   37 1    
@<TRIPOS>SUBSTRUCTURE
     1 UNK         1 GROUP             0       ****    0 ROOT    
