@<TRIPOS>MOLECULE
ZINC40961321_743
57   60    1
SMALL
USER_CHARGES


@<TRIPOS>ATOM
      1 C1         -1.0282   61.6008   15.3315 C.ar      1 UNK         0.0000 
      2 C2         -1.6772   62.8329   15.3296 C.ar      1 UNK         0.0000 
      3 C3         -0.9273   64.0071   15.3056 C.ar      1 UNK         0.0000 
      4 C4          0.4639   63.9583   15.2812 C.ar      1 UNK         0.0000 
      5 C5          1.1104   62.7261   15.2807 C.ar      1 UNK         0.0000 
      6 C6          0.3709   61.5389   15.3116 C.ar      1 UNK         0.0000 
      7 C7          1.0972   60.2542   15.3252 C.2       1 UNK         0.0000 
      8 C8          0.5754   59.0498   14.9959 C.2       1 UNK         0.0000 
      9 C9          1.3097   57.8112   15.0512 C.2       1 UNK         0.0000 
     10 O10         1.1317   56.9220   14.2220 O.2       1 UNK         0.0000 
     11 N11         2.1648   57.6991   16.0807 N.am      1 UNK         0.0000 
     12 C12         3.0495   56.5677   16.3460 C.3       1 UNK         0.0000 
     13 C13         2.3219   55.2958   16.8437 C.3       1 UNK         0.0000 
     14 C14         3.2565   54.1713   17.3248 C.3       1 UNK         0.0000 
     15 N15         4.2177   54.7622   18.3798 N.4       1 UNK         0.0000 
     16 C16         5.1323   55.8184   17.7164 C.3       1 UNK         0.0000 
     17 C17         4.2642   56.9773   17.2039 C.3       1 UNK         0.0000 
     18 C18         5.0752   53.6511   19.0363 C.3       1 UNK         0.0000 
     19 C19         5.5037   54.1257   20.4119 C.2       1 UNK         0.0000 
     20 N20         4.9259   53.8534   21.5471 N.2       1 UNK         0.0000 
     21 C21         5.6898   54.4905   22.4164 C.2       1 UNK         0.0000 
     22 N22         6.7009   55.1681   21.9041 N.2       1 UNK         0.0000 
     23 O23         6.5868   54.9318   20.5334 O.3       1 UNK         0.0000 
     24 C24         5.4061   54.4363   23.8901 C.ar      1 UNK         0.0000 
     25 C25         4.1155   54.1208   24.3349 C.ar      1 UNK         0.0000 
     26 C26         3.8319   54.0611   25.6955 C.ar      1 UNK         0.0000 
     27 C27         4.8401   54.2826   26.6368 C.ar      1 UNK         0.0000 
     28 C28         6.1306   54.6073   26.1986 C.ar      1 UNK         0.0000 
     29 C29         6.4104   54.6888   24.8346 C.ar      1 UNK         0.0000 
     30 C30         4.5049   54.1680   28.1227 C.3       1 UNK         0.0000 
     31 F31         3.4234   54.8971   28.4082 F         1 UNK         0.0000 
     32 F32         4.2548   52.8968   28.4285 F         1 UNK         0.0000 
     33 F33         5.5048   54.5975   28.8894 F         1 UNK         0.0000 
     34 F34        -1.5575   65.2033   15.3089 F         1 UNK         0.0000 
     35 H35        -1.6225   60.6999   15.3610 H         1 UNK         0.0000 
     36 H36        -2.7550   62.8808   15.3440 H         1 UNK         0.0000 
     37 H37         1.0386   64.8738   15.2667 H         1 UNK         0.0000 
     38 H38         2.1917   62.6966   15.2756 H         1 UNK         0.0000 
     39 H39         2.1275   60.3186   15.6561 H         1 UNK         0.0000 
     40 H40        -0.4405   58.9483   14.6472 H         1 UNK         0.0000 
     41 H41         2.2618   58.5003   16.6892 H         1 UNK         0.0000 
     42 H42         3.4969   56.2567   15.3971 H         1 UNK         0.0000 
     43 H43         1.6823   55.5670   17.6816 H         1 UNK         0.0000 
     44 H44         1.6692   54.9060   16.0598 H         1 UNK         0.0000 
     45 H45         3.8612   53.7324   16.5245 H         1 UNK         0.0000 
     46 H46         2.6763   53.3852   17.8140 H         1 UNK         0.0000 
     47 H47         5.6929   55.3252   16.9178 H         1 UNK         0.0000 
     48 H48         5.8272   56.1896   18.4703 H         1 UNK         0.0000 
     49 H49         4.8921   57.6806   16.6518 H         1 UNK         0.0000 
     50 H50         3.9067   57.5034   18.0822 H         1 UNK         0.0000 
     51 H51         4.4483   52.7568   19.1156 H         1 UNK         0.0000 
     52 H52         5.8950   53.3980   18.3609 H         1 UNK         0.0000 
     53 H53         3.3208   53.9278   23.6307 H         1 UNK         0.0000 
     54 H54         2.8311   53.8106   26.0182 H         1 UNK         0.0000 
     55 H55         6.9206   54.7844   26.9142 H         1 UNK         0.0000 
     56 H56         7.4157   54.9295   24.5153 H         1 UNK         0.0000 
     57 H57         3.6584   55.1767   19.1174 H         1 UNK         0.0000 
@<TRIPOS>BOND
     1    1    6 ar   
     2    1    2 ar   
     3    1   35 1    
     4    2    3 ar   
     5    2   36 1    
     6    3    4 ar   
     7    3   34 1    
     8    4    5 ar   
     9    4   37 1    
    10    5    6 ar   
    11    5   38 1    
    12    6    7 1    
    13    7    8 2    
    14    7   39 1    
    15    8    9 1    
    16    8   40 1    
    17    9   10 2    
    18    9   11 am   BACKBONE|DICT|INTERRES
    19   11   12 1    
    20   11   41 1    
    21   12   17 1    
    22   12   13 1    
    23   12   42 1    
    24   13   14 1    
    25   13   43 1    
    26   13   44 1    
    27   14   15 1    
    28   14   45 1    
    29   14   46 1    
    30   15   16 1    
    31   15   18 1    
    32   15   57 1    
    33   16   17 1    
    34   16   47 1    
    35   16   48 1    
    36   17   49 1    
    37   17   50 1    
    38   18   19 1    
    39   18   51 1    
    40   18   52 1    
    41   19   23 1    
    42   19   20 2    
    43   20   21 1    
    44   21   22 2    
    45   21   24 1    
    46   22   23 1    
    47   24   29 ar   
    48   24   25 ar   
    49   25   26 ar   
    50   25   53 1    
    51   26   27 ar   
    52   26   54 1    
    53   27   28 ar   
    54   27   30 1    
    55   28   29 ar   
    56   28   55 1    
    57   29   56 1    
    58   30   31 1    
    59   30   32 1    
    60   30   33 1    
@<TRIPOS>SUBSTRUCTURE
     1 UNK         1 GROUP             0       ****    0 ROOT    
