@<TRIPOS>MOLECULE
ZINC36698942_5710
70   73    1
SMALL
USER_CHARGES


@<TRIPOS>ATOM
      1 C1          2.3455   53.7144   27.9774 C.3       1 UNK         0.0000 
      2 C2          3.4830   53.9698   26.9988 C.ar      1 UNK         0.0000 
      3 C3          3.2120   53.8746   25.6298 C.ar      1 UNK         0.0000 
      4 C4          4.2417   54.1317   24.7176 C.ar      1 UNK         0.0000 
      5 C5          5.5320   54.4733   25.1820 C.ar      1 UNK         0.0000 
      6 C6          5.8111   54.5477   26.5515 C.ar      1 UNK         0.0000 
      7 C7          4.7707   54.3061   27.4552 C.ar      1 UNK         0.0000 
      8 C8          5.0713   54.4175   28.9437 C.3       1 UNK         0.0000 
      9 S9          6.5735   54.7452   23.7957 S.3       1 UNK         0.0000 
     10 C10         5.1860   54.4594   22.7289 C.2       1 UNK         0.0000 
     11 N11         4.0988   54.0969   23.3680 N.2       1 UNK         0.0000 
     12 N12         5.2081   54.6162   21.3141 N.am      1 UNK         0.0000 
     13 C13         4.0126   54.1169   20.5884 C.3       1 UNK         0.0000 
     14 C14         4.0569   52.6165   20.2769 C.3       1 UNK         0.0000 
     15 C15         2.7668   52.1747   19.5695 C.3       1 UNK         0.0000 
     16 N16         2.8209   50.6647   19.2568 N.4       1 UNK         0.0000 
     17 C17         2.5734   49.7668   20.4888 C.3       1 UNK         0.0000 
     18 C18         1.9025   50.2726   18.0823 C.3       1 UNK         0.0000 
     19 C19         6.2023   55.2996   20.6494 C.2       1 UNK         0.0000 
     20 O20         7.1062   55.9325   21.1977 O.2       1 UNK         0.0000 
     21 C21         6.2184   55.3261   19.1372 C.ar      1 UNK         0.0000 
     22 C22         5.2905   56.0838   18.4083 C.ar      1 UNK         0.0000 
     23 C23         5.3659   56.1422   17.0215 C.ar      1 UNK         0.0000 
     24 C24         6.4009   55.4895   16.3556 C.ar      1 UNK         0.0000 
     25 C25         7.3368   54.7395   17.0715 C.ar      1 UNK         0.0000 
     26 C26         7.2455   54.6612   18.4577 C.ar      1 UNK         0.0000 
     27 S27         6.5358   55.6512   14.5767 S.o2      1 UNK         0.0000 
     28 O28         7.4343   54.5808   14.1259 O.2       1 UNK         0.0000 
     29 O29         5.1645   55.7482   14.0589 O.2       1 UNK         0.0000 
     30 N30         7.3542   57.2071   14.2945 N.pl3     1 UNK         0.0000 
     31 C31         6.5706   58.4690   14.3504 C.3       1 UNK         0.0000 
     32 C32         6.6967   59.1697   15.7202 C.3       1 UNK         0.0000 
     33 C33         8.1670   59.3086   16.1722 C.3       1 UNK         0.0000 
     34 C34         8.9457   57.9798   16.0622 C.3       1 UNK         0.0000 
     35 C35         8.7846   57.3381   14.6687 C.3       1 UNK         0.0000 
     36 H36         2.5363   52.8075   28.5518 H         1 UNK         0.0000 
     37 H37         1.3822   53.6098   27.4759 H         1 UNK         0.0000 
     38 H38         2.2571   54.5416   28.6815 H         1 UNK         0.0000 
     39 H39         2.2250   53.6150   25.2773 H         1 UNK         0.0000 
     40 H40         6.7992   54.8018   26.9052 H         1 UNK         0.0000 
     41 H41         6.1407   54.4967   29.1435 H         1 UNK         0.0000 
     42 H42         4.5748   55.2905   29.3671 H         1 UNK         0.0000 
     43 H43         4.7055   53.5368   29.4723 H         1 UNK         0.0000 
     44 H44         3.1141   54.3237   21.1709 H         1 UNK         0.0000 
     45 H45         3.8114   54.6592   19.6699 H         1 UNK         0.0000 
     46 H46         4.9159   52.3968   19.6391 H         1 UNK         0.0000 
     47 H47         4.1980   52.0637   21.2052 H         1 UNK         0.0000 
     48 H48         1.8607   52.3536   20.1506 H         1 UNK         0.0000 
     49 H49         2.6787   52.6825   18.6072 H         1 UNK         0.0000 
     50 H50         1.5550   49.9484   20.8355 H         1 UNK         0.0000 
     51 H51         2.7041   48.7308   20.1709 H         1 UNK         0.0000 
     52 H52         3.3031   50.0212   21.2565 H         1 UNK         0.0000 
     53 H53         0.8712   50.4916   18.3618 H         1 UNK         0.0000 
     54 H54         2.2227   50.8527   17.2149 H         1 UNK         0.0000 
     55 H55         2.0551   49.2094   17.8870 H         1 UNK         0.0000 
     56 H56         4.5042   56.6451   18.8867 H         1 UNK         0.0000 
     57 H57         4.6407   56.7255   16.4709 H         1 UNK         0.0000 
     58 H58         8.1440   54.2333   16.5613 H         1 UNK         0.0000 
     59 H59         7.9948   54.1024   19.0000 H         1 UNK         0.0000 
     60 H60         6.9450   59.1256   13.5642 H         1 UNK         0.0000 
     61 H61         5.5268   58.2582   14.1130 H         1 UNK         0.0000 
     62 H62         6.2281   60.1549   15.6769 H         1 UNK         0.0000 
     63 H63         6.1351   58.6273   16.4777 H         1 UNK         0.0000 
     64 H64         8.2025   59.6866   17.1948 H         1 UNK         0.0000 
     65 H65         8.6569   60.0631   15.5538 H         1 UNK         0.0000 
     66 H66         8.6017   57.2899   16.8318 H         1 UNK         0.0000 
     67 H67        10.0032   58.1522   16.2698 H         1 UNK         0.0000 
     68 H68         9.2575   56.3571   14.6283 H         1 UNK         0.0000 
     69 H69         9.2704   57.9584   13.9147 H         1 UNK         0.0000 
     70 H70         3.7673   50.4952   18.9027 H         1 UNK         0.0000 
@<TRIPOS>BOND
     1    1    2 1    
     2    1   36 1    
     3    1   37 1    
     4    1   38 1    
     5    2    7 ar   
     6    2    3 ar   
     7    3    4 ar   
     8    3   39 1    
     9    4   11 1    
    10    4    5 ar   
    11    5    6 ar   
    12    5    9 1    
    13    6    7 ar   
    14    6   40 1    
    15    7    8 1    
    16    8   41 1    
    17    8   42 1    
    18    8   43 1    
    19    9   10 1    
    20   10   11 2    
    21   10   12 am   BACKBONE|DICT|INTERRES
    22   12   13 1    
    23   12   19 am   BACKBONE|DICT|INTERRES
    24   13   14 1    
    25   13   44 1    
    26   13   45 1    
    27   14   15 1    
    28   14   46 1    
    29   14   47 1    
    30   15   16 1    
    31   15   48 1    
    32   15   49 1    
    33   16   17 1    
    34   16   18 1    
    35   16   70 1    
    36   17   50 1    
    37   17   51 1    
    38   17   52 1    
    39   18   53 1    
    40   18   54 1    
    41   18   55 1    
    42   19   20 2    
    43   19   21 1    
    44   21   26 ar   
    45   21   22 ar   
    46   22   23 ar   
    47   22   56 1    
    48   23   24 ar   
    49   23   57 1    
    50   24   25 ar   
    51   24   27 1    
    52   25   26 ar   
    53   25   58 1    
    54   26   59 1    
    55   27   28 2    
    56   27   29 2    
    57   27   30 1    
    58   30   35 1    
    59   30   31 1    
    60   31   32 1    
    61   31   60 1    
    62   31   61 1    
    63   32   33 1    
    64   32   62 1    
    65   32   63 1    
    66   33   34 1    
    67   33   64 1    
    68   33   65 1    
    69   34   35 1    
    70   34   66 1    
    71   34   67 1    
    72   35   68 1    
    73   35   69 1    
@<TRIPOS>SUBSTRUCTURE
     1 UNK         1 GROUP             0       ****    0 ROOT    
