@<TRIPOS>MOLECULE
ZINC02727077_4527
52   55    1
SMALL
USER_CHARGES


@<TRIPOS>ATOM
      1 C1          1.1682   43.8263   13.9429 C.3       1 UNK         0.0000 
      2 C2          1.2441   44.7448   15.1488 C.ar      1 UNK         0.0000 
      3 C3          0.3337   44.5992   16.1937 C.ar      1 UNK         0.0000 
      4 C4          0.4135   45.4338   17.3048 C.ar      1 UNK         0.0000 
      5 C5          1.4074   46.4206   17.3870 C.ar      1 UNK         0.0000 
      6 C6          2.3172   46.5551   16.3273 C.ar      1 UNK         0.0000 
      7 C7          2.2364   45.7202   15.2188 C.ar      1 UNK         0.0000 
      8 C8          1.5035   47.2873   18.6249 C.2       1 UNK         0.0000 
      9 O9          0.9813   46.9159   19.6797 O.2       1 UNK         0.0000 
     10 N10         2.1405   48.4677   18.4761 N.am      1 UNK         0.0000 
     11 N11         2.3040   49.2858   19.5846 N.pl3     1 UNK         0.0000 
     12 C12         1.6505   50.4773   19.7204 C.2       1 UNK         0.0000 
     13 S13         0.1516   50.8368   19.0177 S.2       1 UNK         0.0000 
     14 N14         2.3817   51.3280   20.5061 N.am      1 UNK         0.0000 
     15 C15         2.0087   52.3538   21.3050 C.2       1 UNK         0.0000 
     16 O16         0.8627   52.5472   21.7249 O.2       1 UNK         0.0000 
     17 C17         3.1636   53.1735   21.8185 C.ar      1 UNK         0.0000 
     18 C18         3.2512   53.3807   23.1960 C.ar      1 UNK         0.0000 
     19 C19         4.3585   54.0262   23.7509 C.ar      1 UNK         0.0000 
     20 N20         5.3671   54.4966   22.9722 N.ar      1 UNK         0.0000 
     21 C21         5.2780   54.3957   21.6195 C.ar      1 UNK         0.0000 
     22 C22         4.1917   53.7239   20.9753 C.ar      1 UNK         0.0000 
     23 C23         4.1966   53.6663   19.5493 C.ar      1 UNK         0.0000 
     24 C24         5.2282   54.2451   18.8152 C.ar      1 UNK         0.0000 
     25 C25         6.2710   54.9012   19.4563 C.ar      1 UNK         0.0000 
     26 C26         6.3042   54.9866   20.8452 C.ar      1 UNK         0.0000 
     27 C27         4.5214   54.1756   25.2326 C.ar      1 UNK         0.0000 
     28 C28         5.7844   54.3918   25.8122 C.ar      1 UNK         0.0000 
     29 C29         5.9226   54.5443   27.1886 C.ar      1 UNK         0.0000 
     30 C30         4.7917   54.4968   27.9968 C.ar      1 UNK         0.0000 
     31 C31         3.5359   54.2623   27.4527 C.ar      1 UNK         0.0000 
     32 C32         3.4058   54.1006   26.0809 C.ar      1 UNK         0.0000 
     33 Cl33        4.9293   54.8021   29.6816 Cl        1 UNK         0.0000 
     34 H34         2.1539   43.6701   13.4995 H         1 UNK         0.0000 
     35 H35         0.7939   42.8400   14.2234 H         1 UNK         0.0000 
     36 H36         0.5063   44.2474   13.1842 H         1 UNK         0.0000 
     37 H37        -0.4377   43.8448   16.1465 H         1 UNK         0.0000 
     38 H38        -0.3002   45.3043   18.1061 H         1 UNK         0.0000 
     39 H39         3.1044   47.2966   16.3482 H         1 UNK         0.0000 
     40 H40         2.9522   45.8395   14.4205 H         1 UNK         0.0000 
     41 H41         2.8703   48.6227   17.7856 H         1 UNK         0.0000 
     42 H42         3.2353   49.1817   19.9646 H         1 UNK         0.0000 
     43 H43         3.3802   51.2529   20.3832 H         1 UNK         0.0000 
     44 H44         2.4862   52.9660   23.8308 H         1 UNK         0.0000 
     45 H45         3.3863   53.1921   19.0169 H         1 UNK         0.0000 
     46 H46         5.2111   54.1907   17.7390 H         1 UNK         0.0000 
     47 H47         7.0592   55.3489   18.8707 H         1 UNK         0.0000 
     48 H48         7.1229   55.4905   21.3383 H         1 UNK         0.0000 
     49 H49         6.6702   54.4396   25.1965 H         1 UNK         0.0000 
     50 H50         6.8924   54.7251   27.6262 H         1 UNK         0.0000 
     51 H51         2.6625   54.2326   28.0877 H         1 UNK         0.0000 
     52 H52         2.4113   53.9570   25.6896 H         1 UNK         0.0000 
@<TRIPOS>BOND
     1    1    2 1    
     2    1   34 1    
     3    1   35 1    
     4    1   36 1    
     5    2    7 ar   
     6    2    3 ar   
     7    3    4 ar   
     8    3   37 1    
     9    4    5 ar   
    10    4   38 1    
    11    5    6 ar   
    12    5    8 1    
    13    6    7 ar   
    14    6   39 1    
    15    7   40 1    
    16    8    9 2    
    17    8   10 am   BACKBONE|DICT|INTERRES
    18   10   11 1    
    19   10   41 1    
    20   11   12 1    
    21   11   42 1    
    22   12   13 2    
    23   12   14 am   BACKBONE|DICT|INTERRES
    24   14   15 am   BACKBONE|DICT|INTERRES
    25   14   43 1    
    26   15   16 2    
    27   15   17 1    
    28   17   22 ar   
    29   17   18 ar   
    30   18   19 ar   
    31   18   44 1    
    32   19   20 ar   
    33   19   27 1    
    34   20   21 ar   
    35   21   26 ar   
    36   21   22 ar   
    37   22   23 ar   
    38   23   24 ar   
    39   23   45 1    
    40   24   25 ar   
    41   24   46 1    
    42   25   26 ar   
    43   25   47 1    
    44   26   48 1    
    45   27   32 ar   
    46   27   28 ar   
    47   28   29 ar   
    48   28   49 1    
    49   29   30 ar   
    50   29   50 1    
    51   30   31 ar   
    52   30   33 1    
    53   31   32 ar   
    54   31   51 1    
    55   32   52 1    
@<TRIPOS>SUBSTRUCTURE
     1 UNK         1 GROUP             0       ****    0 ROOT    
