@<TRIPOS>MOLECULE
ZINC02645362_2996
52   53    1
SMALL
USER_CHARGES


@<TRIPOS>ATOM
      1 C1          2.0576   49.1741   20.4344 C.3       1 UNK         0.0000 
      2 C2          1.2946   50.2716   21.1908 C.3       1 UNK         0.0000 
      3 C3          2.2005   51.3301   21.8487 C.3       1 UNK         0.0000 
      4 C4          2.9205   52.2604   20.8471 C.3       1 UNK         0.0000 
      5 N5          3.6036   53.3802   21.4938 N.am      1 UNK         0.0000 
      6 C6          4.8085   53.3071   22.0805 C.2       1 UNK         0.0000 
      7 O7          5.5042   52.2981   22.0817 O.2       1 UNK         0.0000 
      8 N8          5.1816   54.4966   22.7317 N.am      1 UNK         0.0000 
      9 S9          6.3409   54.6743   24.0543 S.o2      1 UNK         0.0000 
     10 O10         7.3885   53.6639   23.9039 O.2       1 UNK         0.0000 
     11 O11         6.7041   56.0904   24.1629 O.2       1 UNK         0.0000 
     12 C12         5.4474   54.2964   25.5628 C.ar      1 UNK         0.0000 
     13 C13         4.0898   54.5952   25.6859 C.ar      1 UNK         0.0000 
     14 C14         3.4128   54.2786   26.8627 C.ar      1 UNK         0.0000 
     15 C15         4.0804   53.6274   27.9057 C.ar      1 UNK         0.0000 
     16 C16         5.4445   53.3787   27.7898 C.ar      1 UNK         0.0000 
     17 C17         6.1282   53.7116   26.6289 C.ar      1 UNK         0.0000 
     18 N18         3.4408   53.1277   29.0508 N.pl3     1 UNK         0.0000 
     19 S19         1.7479   53.3991   29.5092 S.o2      1 UNK         0.0000 
     20 O20         1.6317   52.8966   30.8808 O.2       1 UNK         0.0000 
     21 O21         1.4156   54.7926   29.1937 O.2       1 UNK         0.0000 
     22 C22         0.7004   52.3515   28.4980 C.ar      1 UNK         0.0000 
     23 C23         1.1055   51.9002   27.2434 C.ar      1 UNK         0.0000 
     24 C24         0.2341   51.1836   26.4270 C.ar      1 UNK         0.0000 
     25 C25        -1.0716   50.9016   26.8568 C.ar      1 UNK         0.0000 
     26 C26        -1.4601   51.3152   28.1380 C.ar      1 UNK         0.0000 
     27 C27        -0.5750   52.0277   28.9555 C.ar      1 UNK         0.0000 
     28 Br28       -3.2017   50.9079   28.7988 Br        1 UNK         0.0000 
     29 O29        -2.0042   50.2355   26.0820 O.3       1 UNK         0.0000 
     30 C30        -1.6160   49.7087   24.8160 C.3       1 UNK         0.0000 
     31 H31         1.3647   48.4641   19.9791 H         1 UNK         0.0000 
     32 H32         2.7040   48.6118   21.1108 H         1 UNK         0.0000 
     33 H33         2.6786   49.5834   19.6338 H         1 UNK         0.0000 
     34 H34         0.5901   50.7582   20.5131 H         1 UNK         0.0000 
     35 H35         0.6856   49.8014   21.9657 H         1 UNK         0.0000 
     36 H36         1.5879   51.9355   22.5200 H         1 UNK         0.0000 
     37 H37         2.9357   50.8282   22.4816 H         1 UNK         0.0000 
     38 H38         3.6013   51.6935   20.2055 H         1 UNK         0.0000 
     39 H39         2.1878   52.6798   20.1539 H         1 UNK         0.0000 
     40 H40         3.0977   54.2527   21.5066 H         1 UNK         0.0000 
     41 H41         4.6947   55.3594   22.4912 H         1 UNK         0.0000 
     42 H42         3.5493   55.0413   24.8681 H         1 UNK         0.0000 
     43 H43         2.3588   54.4967   26.9291 H         1 UNK         0.0000 
     44 H44         5.9809   52.8969   28.5881 H         1 UNK         0.0000 
     45 H45         7.1758   53.4768   26.5524 H         1 UNK         0.0000 
     46 H46         3.9651   52.4963   29.6348 H         1 UNK         0.0000 
     47 H47         2.0942   52.1014   26.8777 H         1 UNK         0.0000 
     48 H48         0.5861   50.8677   25.4561 H         1 UNK         0.0000 
     49 H49        -0.8940   52.3411   29.9399 H         1 UNK         0.0000 
     50 H50        -2.4577   49.1747   24.3744 H         1 UNK         0.0000 
     51 H51        -1.3300   50.5041   24.1251 H         1 UNK         0.0000 
     52 H52        -0.7943   48.9963   24.9091 H         1 UNK         0.0000 
@<TRIPOS>BOND
     1    1    2 1    
     2    1   31 1    
     3    1   32 1    
     4    1   33 1    
     5    2    3 1    
     6    2   34 1    
     7    2   35 1    
     8    3    4 1    
     9    3   36 1    
    10    3   37 1    
    11    4    5 1    
    12    4   38 1    
    13    4   39 1    
    14    5    6 am   BACKBONE|DICT|INTERRES
    15    5   40 1    
    16    6    7 2    
    17    6    8 am   BACKBONE|DICT|INTERRES
    18    8    9 1    
    19    8   41 1    
    20    9   10 2    
    21    9   11 2    
    22    9   12 1    
    23   12   17 ar   
    24   12   13 ar   
    25   13   14 ar   
    26   13   42 1    
    27   14   15 ar   
    28   14   43 1    
    29   15   16 ar   
    30   15   18 1    
    31   16   17 ar   
    32   16   44 1    
    33   17   45 1    
    34   18   19 1    
    35   18   46 1    
    36   19   20 2    
    37   19   21 2    
    38   19   22 1    
    39   22   27 ar   
    40   22   23 ar   
    41   23   24 ar   
    42   23   47 1    
    43   24   25 ar   
    44   24   48 1    
    45   25   26 ar   
    46   25   29 1    
    47   26   27 ar   
    48   26   28 1    
    49   27   49 1    
    50   29   30 1    
    51   30   50 1    
    52   30   51 1    
    53   30   52 1    
@<TRIPOS>SUBSTRUCTURE
     1 UNK         1 GROUP             0       ****    0 ROOT    
