@<TRIPOS>MOLECULE
ZINC66086182_3041
65   68    1
SMALL
USER_CHARGES


@<TRIPOS>ATOM
      1 C1          1.2341   52.7342   26.7260 C.3       1 UNK         0.0000 
      2 C2          2.6523   52.5046   27.2712 C.3       1 UNK         0.0000 
      3 N3          3.1000   53.4244   28.3325 N.am      1 UNK         0.0000 
      4 C4          2.4722   53.2313   29.5677 C.ar      1 UNK         0.0000 
      5 C5          1.1844   53.7261   29.7844 C.ar      1 UNK         0.0000 
      6 C6          0.5013   53.3567   30.9378 C.ar      1 UNK         0.0000 
      7 C7          1.1044   52.5110   31.8617 C.ar      1 UNK         0.0000 
      8 C8          2.4202   52.0966   31.6816 C.ar      1 UNK         0.0000 
      9 C9          3.1063   52.4379   30.5251 C.ar      1 UNK         0.0000 
     10 C10         4.1653   54.2762   28.2184 C.2       1 UNK         0.0000 
     11 O11         4.6326   54.8949   29.1791 O.2       1 UNK         0.0000 
     12 C12         4.8177   54.4577   26.8646 C.ar      1 UNK         0.0000 
     13 C13         6.2115   54.4201   26.7412 C.ar      1 UNK         0.0000 
     14 C14         6.8014   54.5474   25.4828 C.ar      1 UNK         0.0000 
     15 C15         6.0230   54.7183   24.3407 C.ar      1 UNK         0.0000 
     16 C16         4.6307   54.7515   24.4698 C.ar      1 UNK         0.0000 
     17 C17         4.0425   54.6681   25.7204 C.ar      1 UNK         0.0000 
     18 N18         6.7045   54.9331   23.1251 N.am      1 UNK         0.0000 
     19 C19         6.2174   54.8967   21.8641 C.2       1 UNK         0.0000 
     20 O20         5.0962   54.4734   21.5737 O.2       1 UNK         0.0000 
     21 C21         7.1470   55.4064   20.7431 C.3       1 UNK         0.0000 
     22 N22         6.3803   56.1998   19.8120 N.pl3     1 UNK         0.0000 
     23 C23         6.8923   57.0290   18.8053 C.ar      1 UNK         0.0000 
     24 C24         5.9908   57.5978   17.9072 C.ar      1 UNK         0.0000 
     25 C25         6.4305   58.4967   16.9397 C.ar      1 UNK         0.0000 
     26 C26         7.7778   58.8442   16.8694 C.ar      1 UNK         0.0000 
     27 C27         8.7064   58.2765   17.7571 C.ar      1 UNK         0.0000 
     28 C28         8.2534   57.3394   18.6987 C.ar      1 UNK         0.0000 
     29 C29        10.1629   58.6719   17.7332 C.2       1 UNK         0.0000 
     30 O30        11.0398   57.8809   18.0814 O.2       1 UNK         0.0000 
     31 N31        10.4255   59.9419   17.3716 N.am      1 UNK         0.0000 
     32 C32        11.7652   60.5322   17.3252 C.3       1 UNK         0.0000 
     33 C33        12.1147   61.2570   18.6107 C.2       1 UNK         0.0000 
     34 C34        12.4710   62.5655   18.9107 C.2       1 UNK         0.0000 
     35 C35        12.7049   62.6217   20.2869 C.2       1 UNK         0.0000 
     36 C36        12.4769   61.3460   20.7720 C.2       1 UNK         0.0000 
     37 O37        12.1164   60.5212   19.7561 O.3       1 UNK         0.0000 
     38 H38         1.0498   52.0845   25.8701 H         1 UNK         0.0000 
     39 H39         0.4655   52.4977   27.4610 H         1 UNK         0.0000 
     40 H40         1.1044   53.7602   26.3928 H         1 UNK         0.0000 
     41 H41         3.3443   52.4967   26.4355 H         1 UNK         0.0000 
     42 H42         2.6950   51.4950   27.6819 H         1 UNK         0.0000 
     43 H43         0.6991   54.3506   29.0502 H         1 UNK         0.0000 
     44 H44        -0.4957   53.7174   31.1153 H         1 UNK         0.0000 
     45 H45         0.5700   52.2212   32.7535 H         1 UNK         0.0000 
     46 H46         2.8915   51.4785   32.4329 H         1 UNK         0.0000 
     47 H47         4.1094   52.0712   30.3599 H         1 UNK         0.0000 
     48 H48         6.8376   54.2810   27.6123 H         1 UNK         0.0000 
     49 H49         7.8732   54.5062   25.3871 H         1 UNK         0.0000 
     50 H50         3.9787   54.8968   23.6226 H         1 UNK         0.0000 
     51 H51         2.9720   54.7482   25.7801 H         1 UNK         0.0000 
     52 H52         7.6823   55.1722   23.2284 H         1 UNK         0.0000 
     53 H53         7.5505   54.5225   20.2485 H         1 UNK         0.0000 
     54 H54         7.9992   55.9326   21.1776 H         1 UNK         0.0000 
     55 H55         5.4267   55.8934   19.6662 H         1 UNK         0.0000 
     56 H56         4.9363   57.3722   17.9714 H         1 UNK         0.0000 
     57 H57         5.7230   58.9601   16.2673 H         1 UNK         0.0000 
     58 H58         8.0803   59.5632   16.1237 H         1 UNK         0.0000 
     59 H59         8.9641   56.8969   19.3832 H         1 UNK         0.0000 
     60 H60         9.6569   60.5092   17.0447 H         1 UNK         0.0000 
     61 H61        11.7843   61.2329   16.4887 H         1 UNK         0.0000 
     62 H62        12.5271   59.7878   17.0784 H         1 UNK         0.0000 
     63 H63        12.5694   63.3807   18.2062 H         1 UNK         0.0000 
     64 H64        13.0204   63.4855   20.8555 H         1 UNK         0.0000 
     65 H65        12.5390   60.8980   21.7523 H         1 UNK         0.0000 
@<TRIPOS>BOND
     1    1    2 1    
     2    1   38 1    
     3    1   39 1    
     4    1   40 1    
     5    2    3 1    
     6    2   41 1    
     7    2   42 1    
     8    3    4 1    
     9    3   10 am   BACKBONE|DICT|INTERRES
    10    4    9 ar   
    11    4    5 ar   
    12    5    6 ar   
    13    5   43 1    
    14    6    7 ar   
    15    6   44 1    
    16    7    8 ar   
    17    7   45 1    
    18    8    9 ar   
    19    8   46 1    
    20    9   47 1    
    21   10   11 2    
    22   10   12 1    
    23   12   17 ar   
    24   12   13 ar   
    25   13   14 ar   
    26   13   48 1    
    27   14   15 ar   
    28   14   49 1    
    29   15   16 ar   
    30   15   18 1    
    31   16   17 ar   
    32   16   50 1    
    33   17   51 1    
    34   18   19 am   BACKBONE|DICT|INTERRES
    35   18   52 1    
    36   19   20 2    
    37   19   21 1    
    38   21   22 1    
    39   21   53 1    
    40   21   54 1    
    41   22   23 1    
    42   22   55 1    
    43   23   28 ar   
    44   23   24 ar   
    45   24   25 ar   
    46   24   56 1    
    47   25   26 ar   
    48   25   57 1    
    49   26   27 ar   
    50   26   58 1    
    51   27   28 ar   
    52   27   29 1    
    53   28   59 1    
    54   29   30 2    
    55   29   31 am   BACKBONE|DICT|INTERRES
    56   31   32 1    
    57   31   60 1    
    58   32   33 1    
    59   32   61 1    
    60   32   62 1    
    61   33   37 1    
    62   33   34 2    
    63   34   35 1    
    64   34   63 1    
    65   35   36 2    
    66   35   64 1    
    67   36   37 1    
    68   36   65 1    
@<TRIPOS>SUBSTRUCTURE
     1 UNK         1 GROUP             0       ****    0 ROOT    
