@<TRIPOS>MOLECULE
ZINC31978838_6143
35   38    1
SMALL
USER_CHARGES


@<TRIPOS>ATOM
      1 C1          1.0208   52.3481   31.2430 C.ar      1 UNK         0.0000 
      2 C2          0.0283   52.5015   30.2827 C.ar      1 UNK         0.0000 
      3 C3          0.3704   52.8572   28.9795 C.ar      1 UNK         0.0000 
      4 C4          1.7064   53.0636   28.6162 C.ar      1 UNK         0.0000 
      5 C5          2.7082   52.8724   29.5828 C.ar      1 UNK         0.0000 
      6 C6          2.3557   52.4969   30.8832 C.ar      1 UNK         0.0000 
      7 C7          4.1533   53.1047   29.1992 C.3       1 UNK         0.0000 
      8 C8          4.2762   54.1662   28.0952 C.3       1 UNK         0.0000 
      9 N9          3.4836   53.8101   26.9121 N.pl3     1 UNK         0.0000 
     10 C10         2.0657   53.5226   27.2001 C.3       1 UNK         0.0000 
     11 C11         3.9237   54.0109   25.6326 C.2       1 UNK         0.0000 
     12 N12         3.2377   53.8137   24.5218 N.2       1 UNK         0.0000 
     13 C13         4.1354   54.1008   23.5336 C.ar      1 UNK         0.0000 
     14 C14         4.0043   54.0936   22.1377 C.ar      1 UNK         0.0000 
     15 C15         5.1057   54.4962   21.3755 C.ar      1 UNK         0.0000 
     16 C16         6.3062   54.8968   21.9758 C.ar      1 UNK         0.0000 
     17 C17         6.4664   54.8946   23.3654 C.ar      1 UNK         0.0000 
     18 C18         5.3539   54.4972   24.1120 C.ar      1 UNK         0.0000 
     19 O19         5.2170   54.4289   25.4617 O.3       1 UNK         0.0000 
     20 N20         4.9965   54.4969   19.9896 N.pl3     1 UNK         0.0000 
     21 H21         0.7497   52.0813   32.2558 H         1 UNK         0.0000 
     22 H22        -1.0020   52.3383   30.5575 H         1 UNK         0.0000 
     23 H23        -0.4133   52.9853   28.2464 H         1 UNK         0.0000 
     24 H24         3.1225   52.3512   31.6313 H         1 UNK         0.0000 
     25 H25         4.6087   52.1684   28.8714 H         1 UNK         0.0000 
     26 H26         4.7039   53.4380   30.0734 H         1 UNK         0.0000 
     27 H27         5.3321   54.2352   27.8300 H         1 UNK         0.0000 
     28 H28         4.0100   55.1634   28.4497 H         1 UNK         0.0000 
     29 H29         1.5031   54.4245   26.9601 H         1 UNK         0.0000 
     30 H30         1.7235   52.7525   26.5061 H         1 UNK         0.0000 
     31 H31         3.0743   53.8059   21.6697 H         1 UNK         0.0000 
     32 H32         7.1369   55.2036   21.3547 H         1 UNK         0.0000 
     33 H33         7.3927   55.1938   23.8342 H         1 UNK         0.0000 
     34 H34         5.8247   54.6160   19.4266 H         1 UNK         0.0000 
     35 H35         4.1517   54.1309   19.5732 H         1 UNK         0.0000 
@<TRIPOS>BOND
     1    1    6 ar   
     2    1    2 ar   
     3    1   21 1    
     4    2    3 ar   
     5    2   22 1    
     6    3    4 ar   
     7    3   23 1    
     8    4   10 1    
     9    4    5 ar   
    10    5    6 ar   
    11    5    7 1    
    12    6   24 1    
    13    7    8 1    
    14    7   25 1    
    15    7   26 1    
    16    8    9 1    
    17    8   27 1    
    18    8   28 1    
    19    9   10 1    
    20    9   11 1    
    21   10   29 1    
    22   10   30 1    
    23   11   19 1    
    24   11   12 2    
    25   12   13 1    
    26   13   18 ar   
    27   13   14 ar   
    28   14   15 ar   
    29   14   31 1    
    30   15   16 ar   
    31   15   20 1    
    32   16   17 ar   
    33   16   32 1    
    34   17   18 ar   
    35   17   33 1    
    36   18   19 1    
    37   20   34 1    
    38   20   35 1    
@<TRIPOS>SUBSTRUCTURE
     1 UNK         1 GROUP             0       ****    0 ROOT    
