@<TRIPOS>MOLECULE
ZINC12476928_3110
67   69    1
SMALL
USER_CHARGES


@<TRIPOS>ATOM
      1 C1          2.1587   51.2967   29.3778 C.3       1 UNK         0.0000 
      2 C2          1.6243   51.6917   28.0491 C.ar      1 UNK         0.0000 
      3 C3          1.1043   50.7627   27.1379 C.ar      1 UNK         0.0000 
      4 C4          0.6854   51.1754   25.8826 C.ar      1 UNK         0.0000 
      5 C5          0.7717   52.5206   25.5433 C.ar      1 UNK         0.0000 
      6 C6          1.2012   53.4138   26.5212 C.ar      1 UNK         0.0000 
      7 C7          1.6446   53.0308   27.7554 C.ar      1 UNK         0.0000 
      8 C8          0.2715   53.0598   24.2152 C.3       1 UNK         0.0000 
      9 H9          0.2533   54.1428   24.3235 H         1 UNK         0.0000 
     10 C10        -1.2470   52.7742   23.9584 C.2       1 UNK         0.0000 
     11 O11        -1.7018   52.8901   22.8232 O.2       1 UNK         0.0000 
     12 N12        -2.0135   52.4388   25.0168 N.am      1 UNK         0.0000 
     13 C13        -3.4501   52.1443   25.0461 C.3       1 UNK         0.0000 
     14 C14        -3.8171   50.9780   24.0961 C.3       1 UNK         0.0000 
     15 C15        -4.2795   53.4008   24.6898 C.3       1 UNK         0.0000 
     16 C16        -3.7939   51.7142   26.4873 C.3       1 UNK         0.0000 
     17 N17         1.2166   52.8085   23.0708 N.am      1 UNK         0.0000 
     18 C18         2.0868   53.9695   22.6719 C.3       1 UNK         0.0000 
     19 C19         3.4385   54.1190   23.3962 C.ar      1 UNK         0.0000 
     20 C20         3.4377   54.5617   24.7042 C.ar      1 UNK         0.0000 
     21 C21         4.5987   54.6954   25.4452 C.ar      1 UNK         0.0000 
     22 C22         5.8361   54.4313   24.8517 C.ar      1 UNK         0.0000 
     23 C23         5.8689   54.1011   23.4933 C.ar      1 UNK         0.0000 
     24 C24         4.6800   53.9657   22.7652 C.ar      1 UNK         0.0000 
     25 O25         7.0326   54.5023   25.5426 O.3       1 UNK         0.0000 
     26 C26         6.9774   54.6087   26.9666 C.3       1 UNK         0.0000 
     27 C27         1.2741   51.5952   22.4277 C.2       1 UNK         0.0000 
     28 O28         0.6846   50.5771   22.7878 O.2       1 UNK         0.0000 
     29 C29         2.0009   51.5652   21.1950 C.2       1 UNK         0.0000 
     30 C30         1.5942   51.9568   19.9259 C.2       1 UNK         0.0000 
     31 C31         2.7157   52.2516   19.1271 C.2       1 UNK         0.0000 
     32 N32         3.9026   52.0919   19.6808 N.2       1 UNK         0.0000 
     33 S33         3.7070   51.3303   21.1953 S.3       1 UNK         0.0000 
     34 C34         2.6985   52.6816   17.7563 C.2       1 UNK         0.0000 
     35 O35         2.6487   53.8674   17.4400 O.2       1 UNK         0.0000 
     36 N36         2.7051   51.6971   16.8558 N.am      1 UNK         0.0000 
     37 N37         0.2810   52.0991   19.5495 N.pl3     1 UNK         0.0000 
     38 H38         1.5045   50.4987   29.6809 H         1 UNK         0.0000 
     39 H39         3.1787   50.9255   29.2828 H         1 UNK         0.0000 
     40 H40         2.0972   52.0853   30.1295 H         1 UNK         0.0000 
     41 H41         1.0669   49.6977   27.2817 H         1 UNK         0.0000 
     42 H42         0.3023   50.4419   25.1908 H         1 UNK         0.0000 
     43 H43         1.1049   54.4695   26.3743 H         1 UNK         0.0000 
     44 H44         1.9816   53.7679   28.4693 H         1 UNK         0.0000 
     45 H45        -1.5440   52.3479   25.9064 H         1 UNK         0.0000 
     46 H46        -3.2253   50.0872   24.3139 H         1 UNK         0.0000 
     47 H47        -4.8686   50.7032   24.1878 H         1 UNK         0.0000 
     48 H48        -3.6476   51.2308   23.0493 H         1 UNK         0.0000 
     49 H49        -4.0930   54.2182   25.3878 H         1 UNK         0.0000 
     50 H50        -4.0495   53.7687   23.6894 H         1 UNK         0.0000 
     51 H51        -5.3493   53.1908   24.7149 H         1 UNK         0.0000 
     52 H52        -3.5589   52.4961   27.2099 H         1 UNK         0.0000 
     53 H53        -4.8540   51.4813   26.5938 H         1 UNK         0.0000 
     54 H54        -3.2355   50.8246   26.7864 H         1 UNK         0.0000 
     55 H55         2.3091   53.9539   21.6094 H         1 UNK         0.0000 
     56 H56         1.5290   54.8947   22.8169 H         1 UNK         0.0000 
     57 H57         2.5184   54.8910   25.1138 H         1 UNK         0.0000 
     58 H58         4.5145   55.0286   26.4673 H         1 UNK         0.0000 
     59 H59         6.8202   53.9455   23.0056 H         1 UNK         0.0000 
     60 H60         4.7392   53.7500   21.7104 H         1 UNK         0.0000 
     61 H61         7.9670   54.4964   27.3968 H         1 UNK         0.0000 
     62 H62         6.6010   55.5842   27.2777 H         1 UNK         0.0000 
     63 H63         6.3568   53.8266   27.4077 H         1 UNK         0.0000 
     64 H64         3.0274   50.7679   17.1139 H         1 UNK         0.0000 
     65 H65         2.6520   51.9316   15.8781 H         1 UNK         0.0000 
     66 H66         0.0314   52.4257   18.6271 H         1 UNK         0.0000 
     67 H67        -0.4747   51.8729   20.1813 H         1 UNK         0.0000 
@<TRIPOS>BOND
     1    1    2 1    
     2    1   38 1    
     3    1   39 1    
     4    1   40 1    
     5    2    7 ar   
     6    2    3 ar   
     7    3    4 ar   
     8    3   41 1    
     9    4    5 ar   
    10    4   42 1    
    11    5    6 ar   
    12    5    8 1    
    13    6    7 ar   
    14    6   43 1    
    15    7   44 1    
    16    8    9 1    
    17    8   10 1    
    18    8   17 1    
    19   10   11 2    
    20   10   12 am   BACKBONE|DICT|INTERRES
    21   12   13 1    
    22   12   45 1    
    23   13   14 1    
    24   13   15 1    
    25   13   16 1    
    26   14   46 1    
    27   14   47 1    
    28   14   48 1    
    29   15   49 1    
    30   15   50 1    
    31   15   51 1    
    32   16   52 1    
    33   16   53 1    
    34   16   54 1    
    35   17   18 1    
    36   17   27 am   BACKBONE|DICT|INTERRES
    37   18   19 1    
    38   18   55 1    
    39   18   56 1    
    40   19   24 ar   
    41   19   20 ar   
    42   20   21 ar   
    43   20   57 1    
    44   21   22 ar   
    45   21   58 1    
    46   22   23 ar   
    47   22   25 1    
    48   23   24 ar   
    49   23   59 1    
    50   24   60 1    
    51   25   26 1    
    52   26   61 1    
    53   26   62 1    
    54   26   63 1    
    55   27   28 2    
    56   27   29 1    
    57   29   33 1    
    58   29   30 2    
    59   30   31 1    
    60   30   37 1    
    61   31   32 2    
    62   31   34 1    
    63   32   33 1    
    64   34   35 2    
    65   34   36 am   BACKBONE|DICT|INTERRES
    66   36   64 1    
    67   36   65 1    
    68   37   66 1    
    69   37   67 1    
@<TRIPOS>SUBSTRUCTURE
     1 UNK         1 GROUP             0       ****    0 ROOT    
