ZINC00333535_1621
                    3D
 Schrodinger Suite 2024-2.
 42 44  0  0  1  0            999 V2000
    1.5542   53.3517   26.7587 C   0  0  0  0  0  0
    2.2177   53.2866   25.3535 C   0  0  2  0  0  0
    1.2889   53.7900   24.2448 C   0  0  0  0  0  0
    1.6573   52.3215   24.2883 C   0  0  2  0  0  0
    2.3244   51.9664   23.5026 H   0  0  0  0  0  0
    0.5000   51.3435   24.6135 C   0  0  0  0  0  0
   -0.4969   51.7214   25.2369 O   0  0  0  0  0  0
    0.6490   50.0792   24.1547 N   0  0  0  0  0  0
   -0.3248   49.1249   24.4716 N   0  0  0  0  0  0
   -1.3255   48.8828   23.5940 C   0  0  0  0  0  0
   -1.4403   49.4301   22.4934 O   0  0  0  0  0  0
   -2.4157   47.9796   24.1255 C   0  0  0  0  0  0
   -3.0733   48.4318   25.2837 C   0  0  0  0  0  0
   -4.1338   47.7305   25.8418 C   0  0  0  0  0  0
   -4.5787   46.5648   25.2393 C   0  0  0  0  0  0
   -3.9466   46.0969   24.0931 C   0  0  0  0  0  0
   -2.8470   46.7617   23.5103 C   0  0  0  0  0  0
   -2.1927   46.0969   22.3129 C   0  0  0  0  0  0
   -1.3569   46.7202   21.6252 O   0  0  0  0  0  0
    3.7030   53.7168   25.3105 C   0  0  0  0  0  0
    4.4813   53.7146   26.4805 C   0  0  0  0  0  0
    5.8173   54.1088   26.4513 C   0  0  0  0  0  0
    6.3944   54.4986   25.2466 C   0  0  0  0  0  0
    5.6486   54.4908   24.0731 C   0  0  0  0  0  0
    4.3133   54.0966   24.1042 C   0  0  0  0  0  0
    0.4693   53.2965   26.7642 H   0  0  0  0  0  0
    1.9326   52.5577   27.4024 H   0  0  0  0  0  0
    1.8016   54.2932   27.2498 H   0  0  0  0  0  0
    0.2710   54.0968   24.4815 H   0  0  0  0  0  0
    1.6710   54.4050   23.4311 H   0  0  0  0  0  0
    1.4706   49.6980   23.7080 H   0  0  0  0  0  0
   -0.0482   48.4946   25.2116 H   0  0  0  0  0  0
   -2.7653   49.3472   25.7723 H   0  0  0  0  0  0
   -4.6126   48.0992   26.7374 H   0  0  0  0  0  0
   -5.4133   46.0235   25.6604 H   0  0  0  0  0  0
   -4.3354   45.1887   23.6546 H   0  0  0  0  0  0
    4.0655   53.4048   27.4262 H   0  0  0  0  0  0
    6.4021   54.1061   27.3595 H   0  0  0  0  0  0
    7.4318   54.7954   25.2123 H   0  0  0  0  0  0
    6.1062   54.7815   23.1383 H   0  0  0  0  0  0
    3.7708   54.0839   23.1724 H   0  0  0  0  0  0
   -2.4959   44.8979   22.0829 O   0  5  0  0  0  0
  1  2  1  0  0  0
  1 26  1  0  0  0
  1 27  1  0  0  0
  1 28  1  0  0  0
  2  4  1  0  0  0
  2  3  1  0  0  0
  2 20  1  0  0  0
  3  4  1  0  0  0
  3 29  1  0  0  0
  3 30  1  0  0  0
  4  5  1  0  0  0
  4  6  1  0  0  0
  6  7  2  0  0  0
  6  8  1  0  0  0
  8  9  1  0  0  0
  8 31  1  0  0  0
  9 10  1  0  0  0
  9 32  1  0  0  0
 10 11  2  0  0  0
 10 12  1  0  0  0
 12 17  2  0  0  0
 12 13  1  0  0  0
 13 14  2  0  0  0
 13 33  1  0  0  0
 14 15  1  0  0  0
 14 34  1  0  0  0
 15 16  2  0  0  0
 15 35  1  0  0  0
 16 17  1  0  0  0
 16 36  1  0  0  0
 17 18  1  0  0  0
 18 19  2  0  0  0
 18 42  1  0  0  0
 20 25  2  0  0  0
 20 21  1  0  0  0
 21 22  2  0  0  0
 21 37  1  0  0  0
 22 23  1  0  0  0
 22 38  1  0  0  0
 23 24  2  0  0  0
 23 39  1  0  0  0
 24 25  1  0  0  0
 24 40  1  0  0  0
 25 41  1  0  0  0
M  CHG  1  42  -1
M  END
> <i_i_glide_confnum>
116

> <i_i_glide_lignum>
1622

> <i_i_glide_posenum>
267

> <i_i_glide_rotatable_bonds>
7

> <i_m_Source_File_Index>
1742

> <b_m_subgroup_collapsed>
0

> <r_i_docking_score>
-4.53561

> <r_i_glide_ecoul>
-2.71663

> <r_i_glide_eff_state_penalty>
0

> <r_i_glide_einternal>
4.94667

> <r_i_glide_emodel>
-38.6426

> <r_i_glide_energy>
-29.0283

> <r_i_glide_erotb>
0.996344

> <r_i_glide_esite>
-0.0622586

> <r_i_glide_evdw>
-26.3117

> <r_i_glide_gscore>
-4.53561

> <r_i_glide_hbond>
-0.182892

> <r_i_glide_ligand_efficiency>
-0.181424

> <r_i_glide_ligand_efficiency_ln>
-1.07508

> <r_i_glide_ligand_efficiency_sa>
-0.530488

> <r_i_glide_lipo>
-2.29343

> <r_i_glide_metal>
0

> <r_i_glide_rewards>
-1.2703

> <s_i_glide_gridfile>
wee1_glide-grid

> <s_m_Source_File>
wee1_decoys_glide_SP.sdf

> <s_m_Source_Path>
/Users/zhangxujun/Desktop

> <s_m_entry_id>
2017

> <s_m_entry_name>
wee1_decoys_glide_SP.1742

> <s_m_subgroup_title>
wee1_decoys_glide_SP

> <s_m_subgroupid>
wee1_decoys_glide_SP


$$$$
