@<TRIPOS>MOLECULE
ZINC13094874_1930
52   54    1
SMALL
USER_CHARGES


@<TRIPOS>ATOM
      1 C1         -1.9962   51.1245   25.9907 C.3       1 UNK         0.0000 
      2 C2         -0.6177   50.4832   26.2483 C.3       1 UNK         0.0000 
      3 H3         -0.7839   49.4317   26.4816 H         1 UNK         0.0000 
      4 C4          0.1550   51.0947   27.4424 C.3       1 UNK         0.0000 
      5 C5          0.5716   52.5510   27.1613 C.3       1 UNK         0.0000 
      6 H6         -0.3333   53.1165   26.9467 H         1 UNK         0.0000 
      7 C7          1.4816   52.5787   25.9096 C.3       1 UNK         0.0000 
      8 N8          0.8774   51.8437   24.7587 N.pl3     1 UNK         0.0000 
      9 C9          0.2947   50.4968   25.0067 C.3       1 UNK         0.0000 
     10 S10         0.4995   52.6762   23.2494 S.o2      1 UNK         0.0000 
     11 O11         1.1044   54.0140   23.2973 O.2       1 UNK         0.0000 
     12 O12        -0.9388   52.4983   23.0079 O.2       1 UNK         0.0000 
     13 C13         1.3455   51.7542   21.9677 C.ar      1 UNK         0.0000 
     14 C14         2.5931   52.1606   21.4905 C.ar      1 UNK         0.0000 
     15 C15         3.2216   51.4306   20.4839 C.ar      1 UNK         0.0000 
     16 C16         2.6152   50.2902   19.9548 C.ar      1 UNK         0.0000 
     17 C17         1.3641   49.8579   20.4326 C.ar      1 UNK         0.0000 
     18 C18         0.7421   50.6105   21.4405 C.ar      1 UNK         0.0000 
     19 C19         0.6879   48.6010   19.9211 C.2       1 UNK         0.0000 
     20 O20        -0.3267   48.1857   20.4853 O.2       1 UNK         0.0000 
     21 N21         1.2521   47.9982   18.8503 N.am      1 UNK         0.0000 
     22 C22         0.9633   46.7328   18.3087 C.ar      1 UNK         0.0000 
     23 C23         1.4467   46.4851   17.0228 C.ar      1 UNK         0.0000 
     24 C24         1.3004   45.2238   16.4508 C.ar      1 UNK         0.0000 
     25 C25         0.7044   44.1906   17.1747 C.ar      1 UNK         0.0000 
     26 C26         0.2293   44.4040   18.4790 C.ar      1 UNK         0.0000 
     27 C27         0.3201   45.6984   19.0144 C.ar      1 UNK         0.0000 
     28 C28        -0.3001   43.2618   19.2991 C.2       1 UNK         0.0000 
     29 O29        -0.8948   43.4969   20.3761 O.co2     1 UNK         0.0000 
     30 C30         1.2682   53.2046   28.3698 C.3       1 UNK         0.0000 
     31 H31        -1.9205   52.1671   25.6824 H         1 UNK         0.0000 
     32 H32        -2.5307   50.5902   25.2037 H         1 UNK         0.0000 
     33 H33        -2.6176   51.0832   26.8847 H         1 UNK         0.0000 
     34 H34         1.0362   50.4965   27.6817 H         1 UNK         0.0000 
     35 H35        -0.4655   51.0603   28.3422 H         1 UNK         0.0000 
     36 H36         2.4463   52.1197   26.1072 H         1 UNK         0.0000 
     37 H37         1.6861   53.6079   25.6172 H         1 UNK         0.0000 
     38 H38        -0.2755   50.2021   24.1292 H         1 UNK         0.0000 
     39 H39         1.1078   49.7803   25.0956 H         1 UNK         0.0000 
     40 H40         3.0694   53.0465   21.8824 H         1 UNK         0.0000 
     41 H41         4.1832   51.7428   20.1009 H         1 UNK         0.0000 
     42 H42         3.1417   49.7590   19.1722 H         1 UNK         0.0000 
     43 H43        -0.2218   50.3065   21.8212 H         1 UNK         0.0000 
     44 H44         1.9965   48.4983   18.3826 H         1 UNK         0.0000 
     45 H45         1.9581   47.2598   16.4661 H         1 UNK         0.0000 
     46 H46         1.6790   45.0338   15.4553 H         1 UNK         0.0000 
     47 H47         0.6434   43.2102   16.7248 H         1 UNK         0.0000 
     48 H48        -0.0335   45.8592   20.0226 H         1 UNK         0.0000 
     49 H49         2.1938   52.6886   28.6256 H         1 UNK         0.0000 
     50 H50         1.5153   54.2452   28.1614 H         1 UNK         0.0000 
     51 H51         0.6258   53.1949   29.2507 H         1 UNK         0.0000 
     52 O52        -0.0950   42.0968   18.8811 O.co2     1 UNK         0.0000 
@<TRIPOS>BOND
     1    1    2 1    
     2    1   31 1    
     3    1   32 1    
     4    1   33 1    
     5    2    3 1    
     6    2    9 1    
     7    2    4 1    
     8    4    5 1    
     9    4   34 1    
    10    4   35 1    
    11    5    6 1    
    12    5    7 1    
    13    5   30 1    
    14    7    8 1    
    15    7   36 1    
    16    7   37 1    
    17    8    9 1    
    18    8   10 1    
    19    9   38 1    
    20    9   39 1    
    21   10   11 2    
    22   10   12 2    
    23   10   13 1    
    24   13   18 ar   
    25   13   14 ar   
    26   14   15 ar   
    27   14   40 1    
    28   15   16 ar   
    29   15   41 1    
    30   16   17 ar   
    31   16   42 1    
    32   17   18 ar   
    33   17   19 1    
    34   18   43 1    
    35   19   20 2    
    36   19   21 am   BACKBONE|DICT|INTERRES
    37   21   22 1    
    38   21   44 1    
    39   22   27 ar   
    40   22   23 ar   
    41   23   24 ar   
    42   23   45 1    
    43   24   25 ar   
    44   24   46 1    
    45   25   26 ar   
    46   25   47 1    
    47   26   27 ar   
    48   26   28 1    
    49   27   48 1    
    50   28   29 2    
    51   28   52 1    
    52   30   49 1    
    53   30   50 1    
    54   30   51 1    
@<TRIPOS>SUBSTRUCTURE
     1 UNK         1 GROUP             0       ****    0 ROOT    
