@<TRIPOS>MOLECULE
ZINC15932036_3413
64   69    1
SMALL
USER_CHARGES


@<TRIPOS>ATOM
      1 C1         -1.3628   45.5256   20.1297 C.3       1 UNK         0.0000 
      2 C2         -0.4791   46.6177   19.5547 C.ar      1 UNK         0.0000 
      3 C3          0.6564   46.2724   18.8155 C.ar      1 UNK         0.0000 
      4 C4          1.5084   47.2351   18.2635 C.ar      1 UNK         0.0000 
      5 C5          1.1689   48.5686   18.4871 C.ar      1 UNK         0.0000 
      6 C6          0.0162   48.9478   19.2176 C.ar      1 UNK         0.0000 
      7 C7         -0.8196   47.9590   19.7577 C.ar      1 UNK         0.0000 
      8 N8         -0.1032   50.3095   19.2716 N.2       1 UNK         0.0000 
      9 C9          0.9485   50.7719   18.6403 C.ar      1 UNK         0.0000 
     10 N10         1.7416   49.7632   18.1308 N.pl3     1 UNK         0.0000 
     11 H11         2.5947   49.9062   17.5980 H         1 UNK         0.0000 
     12 S12         1.2294   52.4936   18.4161 S.3       1 UNK         0.0000 
     13 C13         3.0430   52.5550   18.5921 C.3       1 UNK         0.0000 
     14 C14         3.5060   52.7102   20.0474 C.2       1 UNK         0.0000 
     15 O15         3.1601   51.8779   20.8902 O.2       1 UNK         0.0000 
     16 N16         4.3021   53.7693   20.3037 N.am      1 UNK         0.0000 
     17 C17         4.8473   54.1566   21.5387 C.ar      1 UNK         0.0000 
     18 C18         6.0605   54.8428   21.4985 C.ar      1 UNK         0.0000 
     19 C19         6.7048   55.1903   22.6806 C.ar      1 UNK         0.0000 
     20 C20         6.1264   54.8968   23.9129 C.ar      1 UNK         0.0000 
     21 C21         4.8516   54.3120   23.9731 C.ar      1 UNK         0.0000 
     22 C22         4.2283   53.9257   22.7793 C.ar      1 UNK         0.0000 
     23 N23         4.1237   54.0969   25.1588 N.am      1 UNK         0.0000 
     24 C24         4.4410   54.3760   26.4453 C.2       1 UNK         0.0000 
     25 O25         5.5006   54.8990   26.7885 O.2       1 UNK         0.0000 
     26 C26         3.4409   53.9244   27.5571 C.3       1 UNK         0.0000 
     27 C27         4.2039   52.8658   28.4011 C.3       1 UNK         0.0000 
     28 C28         3.2925   52.2771   29.5013 C.3       1 UNK         0.0000 
     29 C29         1.9977   51.6776   28.8915 C.3       1 UNK         0.0000 
     30 C30         1.2270   52.7686   28.1092 C.3       1 UNK         0.0000 
     31 C31         2.1263   53.2996   26.9681 C.3       1 UNK         0.0000 
     32 C32         0.8597   53.9324   29.0660 C.3       1 UNK         0.0000 
     33 C33         2.1528   54.5388   29.6720 C.3       1 UNK         0.0000 
     34 C34         2.9174   53.4289   30.4527 C.3       1 UNK         0.0000 
     35 C35         3.0393   55.0905   28.5169 C.3       1 UNK         0.0000 
     36 H36        -1.2933   44.6120   19.5378 H         1 UNK         0.0000 
     37 H37        -2.4098   45.8306   20.1169 H         1 UNK         0.0000 
     38 H38        -1.0754   45.3063   21.1584 H         1 UNK         0.0000 
     39 H39         0.8947   45.2280   18.6667 H         1 UNK         0.0000 
     40 H40         2.3916   46.9622   17.7003 H         1 UNK         0.0000 
     41 H41        -1.7011   48.2331   20.3188 H         1 UNK         0.0000 
     42 H42         3.5068   51.6771   18.1529 H         1 UNK         0.0000 
     43 H43         3.3883   53.4032   17.9998 H         1 UNK         0.0000 
     44 H44         4.6123   54.3029   19.5070 H         1 UNK         0.0000 
     45 H45         6.5396   55.0608   20.5532 H         1 UNK         0.0000 
     46 H46         7.6644   55.6844   22.6399 H         1 UNK         0.0000 
     47 H47         6.6693   55.1932   24.7942 H         1 UNK         0.0000 
     48 H48         3.2553   53.4574   22.8127 H         1 UNK         0.0000 
     49 H49         3.2352   53.6398   25.0219 H         1 UNK         0.0000 
     50 H50         4.5952   52.0967   27.7509 H         1 UNK         0.0000 
     51 H51         5.0887   53.3029   28.8706 H         1 UNK         0.0000 
     52 H52         3.8385   51.5085   30.0493 H         1 UNK         0.0000 
     53 H53         1.3614   51.2828   29.6818 H         1 UNK         0.0000 
     54 H54         2.2363   50.8383   28.2388 H         1 UNK         0.0000 
     55 H55         0.3159   52.3380   27.6897 H         1 UNK         0.0000 
     56 H56         1.5737   54.0411   26.3869 H         1 UNK         0.0000 
     57 H57         2.3481   52.4825   26.2816 H         1 UNK         0.0000 
     58 H58         0.3049   54.6990   28.5235 H         1 UNK         0.0000 
     59 H59         0.1982   53.5801   29.8585 H         1 UNK         0.0000 
     60 H60         1.8899   55.3543   30.3477 H         1 UNK         0.0000 
     61 H61         2.3084   53.0407   31.2722 H         1 UNK         0.0000 
     62 H62         3.8386   53.8262   30.8816 H         1 UNK         0.0000 
     63 H63         3.9160   55.5740   28.9434 H         1 UNK         0.0000 
     64 H64         2.4889   55.8643   27.9815 H         1 UNK         0.0000 
@<TRIPOS>BOND
     1    1    2 1    
     2    1   36 1    
     3    1   37 1    
     4    1   38 1    
     5    2    7 ar   
     6    2    3 ar   
     7    3    4 ar   
     8    3   39 1    
     9    4    5 ar   
    10    4   40 1    
    11    5   10 ar   
    12    5    6 ar   
    13    6    7 ar   
    14    6    8 ar   
    15    7   41 1    
    16    8    9 ar   
    17    9   10 ar   
    18    9   12 1    
    19   10   11 1    
    20   12   13 1    
    21   13   14 1    
    22   13   42 1    
    23   13   43 1    
    24   14   15 2    
    25   14   16 am   BACKBONE|DICT|INTERRES
    26   16   17 1    
    27   16   44 1    
    28   17   22 ar   
    29   17   18 ar   
    30   18   19 ar   
    31   18   45 1    
    32   19   20 ar   
    33   19   46 1    
    34   20   21 ar   
    35   20   47 1    
    36   21   22 ar   
    37   21   23 1    
    38   22   48 1    
    39   23   24 am   BACKBONE|DICT|INTERRES
    40   23   49 1    
    41   24   25 2    
    42   24   26 1    
    43   26   31 1    
    44   26   35 1    
    45   26   27 1    
    46   27   28 1    
    47   27   50 1    
    48   27   51 1    
    49   28   34 1    
    50   28   29 1    
    51   28   52 1    
    52   29   30 1    
    53   29   53 1    
    54   29   54 1    
    55   30   31 1    
    56   30   32 1    
    57   30   55 1    
    58   31   56 1    
    59   31   57 1    
    60   32   33 1    
    61   32   58 1    
    62   32   59 1    
    63   33   34 1    
    64   33   35 1    
    65   33   60 1    
    66   34   61 1    
    67   34   62 1    
    68   35   63 1    
    69   35   64 1    
@<TRIPOS>SUBSTRUCTURE
     1 UNK         1 GROUP             0       ****    0 ROOT    
