@<TRIPOS>MOLECULE
ZINC09632962_820
46   48    1
SMALL
USER_CHARGES


@<TRIPOS>ATOM
      1 C1         -1.8280   51.5635   28.4091 C.3       1 UNK         0.0000 
      2 C2         -0.4079   52.0700   28.6190 C.ar      1 UNK         0.0000 
      3 C3         -0.1204   52.9200   29.6915 C.ar      1 UNK         0.0000 
      4 C4          1.1583   53.4369   29.8720 C.ar      1 UNK         0.0000 
      5 C5          2.1966   53.0884   28.9994 C.ar      1 UNK         0.0000 
      6 C6          1.9224   52.1856   27.9605 C.ar      1 UNK         0.0000 
      7 C7          0.6346   51.6855   27.7619 C.ar      1 UNK         0.0000 
      8 N8          0.4288   50.7635   26.7311 N.am      1 UNK         0.0000 
      9 C9         -0.1698   51.0451   25.5582 C.2       1 UNK         0.0000 
     10 O10        -0.4824   52.1789   25.1812 O.2       1 UNK         0.0000 
     11 C11        -0.4191   49.8844   24.7481 C.2       1 UNK         0.0000 
     12 C12        -0.6199   48.5432   25.0778 C.2       1 UNK         0.0000 
     13 C13        -0.9438   47.8795   23.8946 C.2       1 UNK         0.0000 
     14 C14        -0.9669   48.8418   22.9006 C.2       1 UNK         0.0000 
     15 O15        -0.6774   50.0621   23.4227 O.3       1 UNK         0.0000 
     16 C16         3.5513   53.7017   29.1743 C.2       1 UNK         0.0000 
     17 O17         3.8182   54.4951   30.0751 O.2       1 UNK         0.0000 
     18 O18         4.4421   53.3092   28.2292 O.3       1 UNK         0.0000 
     19 C19         5.7643   53.8528   28.1284 C.3       1 UNK         0.0000 
     20 C20         6.0430   54.3524   26.6980 C.2       1 UNK         0.0000 
     21 O21         7.1028   54.9347   26.4881 O.2       1 UNK         0.0000 
     22 N22         5.1161   54.0968   25.7476 N.am      1 UNK         0.0000 
     23 C23         5.1685   54.2849   24.3529 C.ar      1 UNK         0.0000 
     24 C24         6.3291   54.6532   23.6473 C.ar      1 UNK         0.0000 
     25 C25         6.3031   54.7665   22.2580 C.ar      1 UNK         0.0000 
     26 C26         5.1265   54.4974   21.5572 C.ar      1 UNK         0.0000 
     27 C27         3.9700   54.1370   22.2461 C.ar      1 UNK         0.0000 
     28 C28         3.9861   54.0417   23.6386 C.ar      1 UNK         0.0000 
     29 F29         2.8476   53.6915   24.2853 F         1 UNK         0.0000 
     30 Br30        5.1010   54.6389   19.6607 Br        1 UNK         0.0000 
     31 H31        -2.4620   51.6958   29.2803 H         1 UNK         0.0000 
     32 H32        -2.2854   52.0647   27.5551 H         1 UNK         0.0000 
     33 H33        -1.8273   50.4968   28.1949 H         1 UNK         0.0000 
     34 H34        -0.8954   53.1994   30.3851 H         1 UNK         0.0000 
     35 H35         1.3218   54.1187   30.6942 H         1 UNK         0.0000 
     36 H36         2.7022   51.8847   27.2819 H         1 UNK         0.0000 
     37 H37         0.6644   49.8007   26.9247 H         1 UNK         0.0000 
     38 H38        -0.5485   48.0991   26.0649 H         1 UNK         0.0000 
     39 H39        -1.1589   46.8276   23.7782 H         1 UNK         0.0000 
     40 H40        -1.1799   48.8172   21.8411 H         1 UNK         0.0000 
     41 H41         6.4573   53.0377   28.3382 H         1 UNK         0.0000 
     42 H42         5.9775   54.6540   28.8395 H         1 UNK         0.0000 
     43 H43         4.2580   53.6784   26.0799 H         1 UNK         0.0000 
     44 H44         7.2702   54.8415   24.1399 H         1 UNK         0.0000 
     45 H45         7.1993   55.0493   21.7265 H         1 UNK         0.0000 
     46 H46         3.0560   53.9440   21.7010 H         1 UNK         0.0000 
@<TRIPOS>BOND
     1    1    2 1    
     2    1   31 1    
     3    1   32 1    
     4    1   33 1    
     5    2    7 ar   
     6    2    3 ar   
     7    3    4 ar   
     8    3   34 1    
     9    4    5 ar   
    10    4   35 1    
    11    5    6 ar   
    12    5   16 1    
    13    6    7 ar   
    14    6   36 1    
    15    7    8 1    
    16    8    9 am   BACKBONE|DICT|INTERRES
    17    8   37 1    
    18    9   10 2    
    19    9   11 1    
    20   11   15 1    
    21   11   12 2    
    22   12   13 1    
    23   12   38 1    
    24   13   14 2    
    25   13   39 1    
    26   14   15 1    
    27   14   40 1    
    28   16   17 2    
    29   16   18 1    
    30   18   19 1    
    31   19   20 1    
    32   19   41 1    
    33   19   42 1    
    34   20   21 2    
    35   20   22 am   BACKBONE|DICT|INTERRES
    36   22   23 1    
    37   22   43 1    
    38   23   28 ar   
    39   23   24 ar   
    40   24   25 ar   
    41   24   44 1    
    42   25   26 ar   
    43   25   45 1    
    44   26   27 ar   
    45   26   30 1    
    46   27   28 ar   
    47   27   46 1    
    48   28   29 1    
@<TRIPOS>SUBSTRUCTURE
     1 UNK         1 GROUP             0       ****    0 ROOT    
