ZINC37560539_5701
                    3D
 Schrodinger Suite 2024-2.
 67 70  0  0  1  0            999 V2000
    0.1289   51.1666   28.2155 C   0  0  0  0  0  0
   -0.1323   50.9954   26.7322 C   0  0  0  0  0  0
    0.2943   49.8346   26.0818 C   0  0  0  0  0  0
    0.0917   49.6932   24.7130 C   0  0  0  0  0  0
   -0.5335   50.7166   23.9964 C   0  0  0  0  0  0
   -0.9964   51.8572   24.6553 C   0  0  0  0  0  0
   -0.7909   51.9994   26.0232 C   0  0  0  0  0  0
   -0.6557   50.6273   22.6005 N   0  0  0  0  0  0
    0.4597   51.0457   21.7381 C   0  0  1  0  0  0
    1.0688   52.3740   22.2288 C   0  0  0  0  0  0
    2.1037   52.8533   21.2184 C   0  0  0  0  0  0
    3.2035   51.7716   21.1488 N   0  3  1  0  0  0
    2.6629   50.3999   20.6739 C   0  0  0  0  0  0
    1.5627   49.9643   21.6701 C   0  0  0  0  0  0
    4.3656   52.2913   20.2767 C   0  0  0  0  0  0
    5.1229   53.4392   20.9338 C   0  0  0  0  0  0
    5.5038   53.3487   22.2776 C   0  0  0  0  0  0
    6.2676   54.3432   22.8822 C   0  0  0  0  0  0
    6.7044   55.4215   22.1046 C   0  0  0  0  0  0
    6.3030   55.5669   20.7768 C   0  0  0  0  0  0
    5.5041   54.5643   20.1950 C   0  0  0  0  0  0
    6.7279   56.7126   20.1344 O   0  0  0  0  0  0
    6.2890   56.9581   18.8008 C   0  0  0  0  0  0
    6.5584   54.1890   24.2199 O   0  0  0  0  0  0
    6.7048   55.3673   25.0057 C   0  0  0  0  0  0
   -2.2199   50.2663   21.8308 S   0  0  0  0  0  0
   -3.1705   49.9227   22.8942 O   0  0  0  0  0  0
   -2.4909   51.3551   20.8819 O   0  0  0  0  0  0
   -1.8785   48.7778   20.8976 C   0  0  0  0  0  0
   -1.4368   48.8597   19.5746 C   0  0  0  0  0  0
   -1.0809   47.6959   18.8947 C   0  0  0  0  0  0
   -1.1611   46.4637   19.5427 C   0  0  0  0  0  0
   -1.6023   46.3828   20.8627 C   0  0  0  0  0  0
   -1.9543   47.5437   21.5454 C   0  0  0  0  0  0
   -0.6972   45.0234   18.7107 Cl  0  0  0  0  0  0
   -0.5182   50.4976   28.7795 H   0  0  0  0  0  0
    1.1608   50.9030   28.4510 H   0  0  0  0  0  0
   -0.0349   52.1918   28.5498 H   0  0  0  0  0  0
    0.7804   49.0421   26.6332 H   0  0  0  0  0  0
    0.4398   48.8006   24.2141 H   0  0  0  0  0  0
   -1.4949   52.6422   24.1058 H   0  0  0  0  0  0
   -1.1349   52.8930   26.5244 H   0  0  0  0  0  0
    0.0598   51.2019   20.7343 H   0  0  0  0  0  0
    1.5508   52.2560   23.2012 H   0  0  0  0  0  0
    0.3047   53.1372   22.3500 H   0  0  0  0  0  0
    2.5647   53.7760   21.5722 H   0  0  0  0  0  0
    1.7027   52.9764   20.2111 H   0  0  0  0  0  0
    2.3078   50.5136   19.6473 H   0  0  0  0  0  0
    3.5039   49.7038   20.6989 H   0  0  0  0  0  0
    1.1430   49.0085   21.3555 H   0  0  0  0  0  0
    2.0165   49.8053   22.6496 H   0  0  0  0  0  0
    3.9423   52.5563   19.3053 H   0  0  0  0  0  0
    5.0360   51.4425   20.1295 H   0  0  0  0  0  0
    5.2211   52.4973   22.8730 H   0  0  0  0  0  0
    7.3499   56.1679   22.5330 H   0  0  0  0  0  0
    5.2016   54.6343   19.1611 H   0  0  0  0  0  0
    6.6812   57.9171   18.4602 H   0  0  0  0  0  0
    6.6470   56.1905   18.1125 H   0  0  0  0  0  0
    5.2006   57.0110   18.7396 H   0  0  0  0  0  0
    6.8220   55.0870   26.0524 H   0  0  0  0  0  0
    5.8207   56.0041   24.9355 H   0  0  0  0  0  0
    7.5782   55.9539   24.7227 H   0  0  0  0  0  0
   -1.3575   49.8156   19.0769 H   0  0  0  0  0  0
   -0.7316   47.7520   17.8733 H   0  0  0  0  0  0
   -1.6504   45.4268   21.3623 H   0  0  0  0  0  0
   -2.2699   47.4851   22.5787 H   0  0  0  0  0  0
    3.5698   51.6550   22.0825 H   0  0  0  0  0  0
  1  2  1  0  0  0
  1 36  1  0  0  0
  1 37  1  0  0  0
  1 38  1  0  0  0
  2  7  2  0  0  0
  2  3  1  0  0  0
  3  4  2  0  0  0
  3 39  1  0  0  0
  4  5  1  0  0  0
  4 40  1  0  0  0
  5  6  2  0  0  0
  5  8  1  0  0  0
  6  7  1  0  0  0
  6 41  1  0  0  0
  7 42  1  0  0  0
  8  9  1  0  0  0
  8 26  1  0  0  0
  9 14  1  0  0  0
  9 10  1  0  0  0
  9 43  1  0  0  0
 10 11  1  0  0  0
 10 44  1  0  0  0
 10 45  1  0  0  0
 11 12  1  0  0  0
 11 46  1  0  0  0
 11 47  1  0  0  0
 12 13  1  0  0  0
 12 15  1  0  0  0
 12 67  1  0  0  0
 13 14  1  0  0  0
 13 48  1  0  0  0
 13 49  1  0  0  0
 14 50  1  0  0  0
 14 51  1  0  0  0
 15 16  1  0  0  0
 15 52  1  0  0  0
 15 53  1  0  0  0
 16 21  2  0  0  0
 16 17  1  0  0  0
 17 18  2  0  0  0
 17 54  1  0  0  0
 18 19  1  0  0  0
 18 24  1  0  0  0
 19 20  2  0  0  0
 19 55  1  0  0  0
 20 21  1  0  0  0
 20 22  1  0  0  0
 21 56  1  0  0  0
 22 23  1  0  0  0
 23 57  1  0  0  0
 23 58  1  0  0  0
 23 59  1  0  0  0
 24 25  1  0  0  0
 25 60  1  0  0  0
 25 61  1  0  0  0
 25 62  1  0  0  0
 26 27  2  0  0  0
 26 28  2  0  0  0
 26 29  1  0  0  0
 29 34  2  0  0  0
 29 30  1  0  0  0
 30 31  2  0  0  0
 30 63  1  0  0  0
 31 32  1  0  0  0
 31 64  1  0  0  0
 32 33  2  0  0  0
 32 35  1  0  0  0
 33 34  1  0  0  0
 33 65  1  0  0  0
 34 66  1  0  0  0
M  CHG  1  12   1
M  END
> <i_i_glide_confnum>
36

> <i_i_glide_lignum>
5702

> <i_i_glide_posenum>
253

> <i_i_glide_rotatable_bonds>
8

> <i_m_Source_File_Index>
3471

> <b_m_subgroup_collapsed>
0

> <r_i_docking_score>
-1.25215

> <r_i_glide_ecoul>
-3.62054

> <r_i_glide_eff_state_penalty>
0

> <r_i_glide_einternal>
8.80387

> <r_i_glide_emodel>
-30.9694

> <r_i_glide_energy>
-38.901

> <r_i_glide_erotb>
0.462354

> <r_i_glide_esite>
-0.0265492

> <r_i_glide_evdw>
-35.2805

> <r_i_glide_gscore>
-1.25215

> <r_i_glide_hbond>
-0.211244

> <r_i_glide_ligand_efficiency>
-0.0357756

> <r_i_glide_ligand_efficiency_ln>
-0.274874

> <r_i_glide_ligand_efficiency_sa>
-0.117024

> <r_i_glide_lipo>
-1.51

> <r_i_glide_metal>
0

> <r_i_glide_rewards>
2.3404

> <s_i_glide_gridfile>
wee1_glide-grid

> <s_m_Source_File>
wee1_decoys_glide_SP.sdf

> <s_m_Source_Path>
/Users/zhangxujun/Desktop

> <s_m_entry_id>
3746

> <s_m_entry_name>
wee1_decoys_glide_SP.3471

> <s_m_subgroup_title>
wee1_decoys_glide_SP

> <s_m_subgroupid>
wee1_decoys_glide_SP


$$$$
