@<TRIPOS>MOLECULE
ZINC32127331_5496
62   66    1
SMALL
USER_CHARGES


@<TRIPOS>ATOM
      1 C1         -5.8253   46.9372   23.3247 C.3       1 UNK         0.0000 
      2 C2         -4.7804   46.8383   24.4332 C.ar      1 UNK         0.0000 
      3 C3         -4.8031   45.6966   25.2439 C.ar      1 UNK         0.0000 
      4 C4         -3.8746   45.5306   26.2683 C.ar      1 UNK         0.0000 
      5 C5         -2.8978   46.4966   26.4771 C.ar      1 UNK         0.0000 
      6 C6         -2.8660   47.6405   25.6822 C.ar      1 UNK         0.0000 
      7 C7         -3.7998   47.8375   24.6515 C.ar      1 UNK         0.0000 
      8 C8         -3.8109   49.1578   23.8976 C.2       1 UNK         0.0000 
      9 O9         -4.8963   49.7261   23.7437 O.2       1 UNK         0.0000 
     10 N10        -2.6404   49.7076   23.4587 N.am      1 UNK         0.0000 
     11 C11        -1.4440   48.8984   23.1601 C.3       1 UNK         0.0000 
     12 C12        -0.1602   49.7192   23.4354 C.3       1 UNK         0.0000 
     13 N13        -0.1470   51.0878   22.8959 N.pl3     1 UNK         0.0000 
     14 C14        -1.3937   51.8131   23.1699 C.3       1 UNK         0.0000 
     15 C15        -2.6855   51.0415   22.8367 C.3       1 UNK         0.0000 
     16 C16         1.0509   51.7526   22.6484 C.ar      1 UNK         0.0000 
     17 C17         1.2926   53.0319   23.1684 C.ar      1 UNK         0.0000 
     18 C18         2.4758   53.7037   22.8781 C.ar      1 UNK         0.0000 
     19 C19         3.4429   53.0924   22.0741 C.ar      1 UNK         0.0000 
     20 C20         3.2165   51.8207   21.5493 C.ar      1 UNK         0.0000 
     21 C21         2.0317   51.1511   21.8490 C.ar      1 UNK         0.0000 
     22 N22         4.6340   53.7549   21.7374 N.pl3     1 UNK         0.0000 
     23 C23         5.5217   54.3948   22.5531 C.2       1 UNK         0.0000 
     24 S24         6.7044   55.2969   21.7901 S.2       1 UNK         0.0000 
     25 N25         5.3370   54.1998   23.9020 N.am      1 UNK         0.0000 
     26 C26         5.9776   54.6663   25.0041 C.2       1 UNK         0.0000 
     27 O27         7.0826   55.2171   25.0060 O.2       1 UNK         0.0000 
     28 C28         5.2480   54.4476   26.3158 C.ar      1 UNK         0.0000 
     29 C29         5.9417   54.6218   27.5344 C.ar      1 UNK         0.0000 
     30 C30         5.2955   54.4968   28.7695 C.ar      1 UNK         0.0000 
     31 C31         3.9493   54.1625   28.7676 C.ar      1 UNK         0.0000 
     32 C32         3.2635   53.9772   27.6039 C.ar      1 UNK         0.0000 
     33 C33         3.8734   54.1146   26.3622 C.ar      1 UNK         0.0000 
     34 O34         1.9594   53.7213   27.8864 O.3       1 UNK         0.0000 
     35 C35         1.9048   53.5320   29.2757 C.3       1 UNK         0.0000 
     36 O36         3.1011   54.0259   29.8210 O.3       1 UNK         0.0000 
     37 H37        -6.2863   45.9734   23.1059 H         1 UNK         0.0000 
     38 H38        -6.6070   47.6463   23.5990 H         1 UNK         0.0000 
     39 H39        -5.3684   47.2812   22.3965 H         1 UNK         0.0000 
     40 H40        -5.5590   44.9388   25.0939 H         1 UNK         0.0000 
     41 H41        -3.9102   44.6579   26.9058 H         1 UNK         0.0000 
     42 H42        -2.1821   46.3868   27.2816 H         1 UNK         0.0000 
     43 H43        -2.1254   48.3945   25.9172 H         1 UNK         0.0000 
     44 H44        -1.4437   48.6748   22.0928 H         1 UNK         0.0000 
     45 H45        -1.3874   47.9566   23.7021 H         1 UNK         0.0000 
     46 H46         0.7184   49.1580   23.1163 H         1 UNK         0.0000 
     47 H47        -0.0851   49.8414   24.5177 H         1 UNK         0.0000 
     48 H48        -1.3928   52.0103   24.2437 H         1 UNK         0.0000 
     49 H49        -1.3987   52.7752   22.6567 H         1 UNK         0.0000 
     50 H50        -3.5360   51.6382   23.1719 H         1 UNK         0.0000 
     51 H51        -2.7360   50.9312   21.7528 H         1 UNK         0.0000 
     52 H52         0.5585   53.5210   23.7912 H         1 UNK         0.0000 
     53 H53         2.6263   54.7043   23.2573 H         1 UNK         0.0000 
     54 H54         3.9491   51.3485   20.9091 H         1 UNK         0.0000 
     55 H55         1.8651   50.1711   21.4261 H         1 UNK         0.0000 
     56 H56         4.8285   53.8015   20.7470 H         1 UNK         0.0000 
     57 H57         4.4980   53.6857   24.1188 H         1 UNK         0.0000 
     58 H58         6.9891   54.8908   27.5418 H         1 UNK         0.0000 
     59 H59         5.8377   54.6903   29.6807 H         1 UNK         0.0000 
     60 H60         3.2784   53.9855   25.4730 H         1 UNK         0.0000 
     61 H61         1.0434   54.0501   29.6989 H         1 UNK         0.0000 
     62 H62         1.8227   52.4636   29.4865 H         1 UNK         0.0000 
@<TRIPOS>BOND
     1    1    2 1    
     2    1   37 1    
     3    1   38 1    
     4    1   39 1    
     5    2    7 ar   
     6    2    3 ar   
     7    3    4 ar   
     8    3   40 1    
     9    4    5 ar   
    10    4   41 1    
    11    5    6 ar   
    12    5   42 1    
    13    6    7 ar   
    14    6   43 1    
    15    7    8 1    
    16    8    9 2    
    17    8   10 am   BACKBONE|DICT|INTERRES
    18   10   15 1    
    19   10   11 1    
    20   11   12 1    
    21   11   44 1    
    22   11   45 1    
    23   12   13 1    
    24   12   46 1    
    25   12   47 1    
    26   13   14 1    
    27   13   16 1    
    28   14   15 1    
    29   14   48 1    
    30   14   49 1    
    31   15   50 1    
    32   15   51 1    
    33   16   21 ar   
    34   16   17 ar   
    35   17   18 ar   
    36   17   52 1    
    37   18   19 ar   
    38   18   53 1    
    39   19   20 ar   
    40   19   22 1    
    41   20   21 ar   
    42   20   54 1    
    43   21   55 1    
    44   22   23 1    
    45   22   56 1    
    46   23   24 2    
    47   23   25 am   BACKBONE|DICT|INTERRES
    48   25   26 am   BACKBONE|DICT|INTERRES
    49   25   57 1    
    50   26   27 2    
    51   26   28 1    
    52   28   33 ar   
    53   28   29 ar   
    54   29   30 ar   
    55   29   58 1    
    56   30   31 ar   
    57   30   59 1    
    58   31   36 1    
    59   31   32 ar   
    60   32   33 ar   
    61   32   34 1    
    62   33   60 1    
    63   34   35 1    
    64   35   36 1    
    65   35   61 1    
    66   35   62 1    
@<TRIPOS>SUBSTRUCTURE
     1 UNK         1 GROUP             0       ****    0 ROOT    
