@<TRIPOS>MOLECULE
ZINC22537468_2428
56   60    1
SMALL
USER_CHARGES


@<TRIPOS>ATOM
      1 C1          2.4871   54.4169   14.4380 C.3       1 UNK         0.0000 
      2 C2          2.8568   54.0810   15.8644 C.ar      1 UNK         0.0000 
      3 N3          2.5827   52.8980   16.3959 N.2       1 UNK         0.0000 
      4 C4          3.0483   53.0314   17.6096 C.ar      1 UNK         0.0000 
      5 N5          3.6673   54.2484   17.7596 N.pl3     1 UNK         0.0000 
      6 N6          3.5031   54.9405   16.6258 N.2       1 UNK         0.0000 
      7 C7          4.3371   54.7575   18.9649 C.3       1 UNK         0.0000 
      8 H8          3.7612   55.6312   19.2694 H         1 UNK         0.0000 
      9 C9          4.2196   53.6859   20.0855 C.2       1 UNK         0.0000 
     10 C10         3.6533   52.4612   19.8527 C.2       1 UNK         0.0000 
     11 N11         3.1043   52.1094   18.6302 N.pl3     1 UNK         0.0000 
     12 C12         3.5803   51.2937   20.8347 C.3       1 UNK         0.0000 
     13 C13         4.6988   54.0980   21.3988 C.2       1 UNK         0.0000 
     14 O14         5.7979   54.6279   21.5609 O.2       1 UNK         0.0000 
     15 N15         3.8012   53.8957   22.3866 N.am      1 UNK         0.0000 
     16 C16         3.9147   54.0926   23.7746 C.ar      1 UNK         0.0000 
     17 C17         2.7358   53.9338   24.5031 C.ar      1 UNK         0.0000 
     18 C18         2.7454   54.0598   25.8880 C.ar      1 UNK         0.0000 
     19 C19         3.9360   54.3474   26.5682 C.ar      1 UNK         0.0000 
     20 C20         5.1128   54.5104   25.8377 C.ar      1 UNK         0.0000 
     21 C21         5.1111   54.3834   24.4497 C.ar      1 UNK         0.0000 
     22 O22         4.0178   54.4976   27.9402 O.3       1 UNK         0.0000 
     23 C23         2.9277   54.2599   28.7449 C.ar      1 UNK         0.0000 
     24 C24         2.5337   52.9487   29.0264 C.ar      1 UNK         0.0000 
     25 C25         1.4220   52.7166   29.8322 C.ar      1 UNK         0.0000 
     26 C26         0.7144   53.7972   30.3579 C.ar      1 UNK         0.0000 
     27 C27         1.1072   55.1072   30.0833 C.ar      1 UNK         0.0000 
     28 C28         2.2204   55.3383   29.2795 C.ar      1 UNK         0.0000 
     29 C29         5.7442   55.2873   18.6524 C.ar      1 UNK         0.0000 
     30 C30         5.9680   56.6651   18.5581 C.ar      1 UNK         0.0000 
     31 C31         7.2456   57.1495   18.2924 C.ar      1 UNK         0.0000 
     32 C32         8.2998   56.2569   18.1188 C.ar      1 UNK         0.0000 
     33 C33         8.0853   54.8828   18.1998 C.ar      1 UNK         0.0000 
     34 C34         6.8053   54.3965   18.4584 C.ar      1 UNK         0.0000 
     35 F35         9.5391   56.7315   17.8621 F         1 UNK         0.0000 
     36 H36         2.2077   53.5463   13.8437 H         1 UNK         0.0000 
     37 H37         1.7160   55.1854   14.3818 H         1 UNK         0.0000 
     38 H38         3.3439   54.8555   13.9253 H         1 UNK         0.0000 
     39 H39         2.9644   51.1312   18.4179 H         1 UNK         0.0000 
     40 H40         2.5661   51.1772   21.2157 H         1 UNK         0.0000 
     41 H41         3.8640   50.3643   20.3399 H         1 UNK         0.0000 
     42 H42         4.2565   51.4011   21.6801 H         1 UNK         0.0000 
     43 H43         2.9022   53.5638   22.0735 H         1 UNK         0.0000 
     44 H44         1.8047   53.7072   24.0026 H         1 UNK         0.0000 
     45 H45         1.8178   53.9339   26.4239 H         1 UNK         0.0000 
     46 H46         6.0343   54.7284   26.3563 H         1 UNK         0.0000 
     47 H47         6.0485   54.4946   23.9283 H         1 UNK         0.0000 
     48 H48         3.0865   52.1195   28.6075 H         1 UNK         0.0000 
     49 H49         1.1042   51.7062   30.0456 H         1 UNK         0.0000 
     50 H50        -0.1437   53.6125   30.9889 H         1 UNK         0.0000 
     51 H51         0.5574   55.9399   30.4983 H         1 UNK         0.0000 
     52 H52         2.5318   56.3507   29.0642 H         1 UNK         0.0000 
     53 H53         5.1556   57.3642   18.6877 H         1 UNK         0.0000 
     54 H54         7.4176   58.2132   18.2139 H         1 UNK         0.0000 
     55 H55         8.9094   54.1990   18.0597 H         1 UNK         0.0000 
     56 H56         6.6382   53.3298   18.5155 H         1 UNK         0.0000 
@<TRIPOS>BOND
     1    1    2 1    
     2    1   36 1    
     3    1   37 1    
     4    1   38 1    
     5    2    6 ar   
     6    2    3 ar   
     7    3    4 ar   
     8    4   11 1    
     9    4    5 ar   
    10    5    6 ar   
    11    5    7 1    
    12    7    8 1    
    13    7    9 1    
    14    7   29 1    
    15    9   10 2    
    16    9   13 1    
    17   10   11 1    
    18   10   12 1    
    19   11   39 1    
    20   12   40 1    
    21   12   41 1    
    22   12   42 1    
    23   13   14 2    
    24   13   15 am   BACKBONE|DICT|INTERRES
    25   15   16 1    
    26   15   43 1    
    27   16   21 ar   
    28   16   17 ar   
    29   17   18 ar   
    30   17   44 1    
    31   18   19 ar   
    32   18   45 1    
    33   19   20 ar   
    34   19   22 1    
    35   20   21 ar   
    36   20   46 1    
    37   21   47 1    
    38   22   23 1    
    39   23   28 ar   
    40   23   24 ar   
    41   24   25 ar   
    42   24   48 1    
    43   25   26 ar   
    44   25   49 1    
    45   26   27 ar   
    46   26   50 1    
    47   27   28 ar   
    48   27   51 1    
    49   28   52 1    
    50   29   34 ar   
    51   29   30 ar   
    52   30   31 ar   
    53   30   53 1    
    54   31   32 ar   
    55   31   54 1    
    56   32   33 ar   
    57   32   35 1    
    58   33   34 ar   
    59   33   55 1    
    60   34   56 1    
@<TRIPOS>SUBSTRUCTURE
     1 UNK         1 GROUP             0       ****    0 ROOT    
