@<TRIPOS>MOLECULE
ZINC13598436_2012
45   48    1
SMALL
USER_CHARGES


@<TRIPOS>ATOM
      1 C1          6.7291   55.0955   24.3037 C.3       1 UNK         0.0000 
      2 C2          6.3063   54.8885   22.8614 C.ar      1 UNK         0.0000 
      3 C3          6.8343   55.6965   21.8457 C.ar      1 UNK         0.0000 
      4 C4          6.4315   55.5208   20.5208 C.ar      1 UNK         0.0000 
      5 C5          5.5267   54.5050   20.2161 C.ar      1 UNK         0.0000 
      6 C6          5.0226   53.6817   21.2095 C.ar      1 UNK         0.0000 
      7 C7          5.3865   53.8855   22.5422 C.ar      1 UNK         0.0000 
      8 C8          4.1882   52.7029   20.5481 C.2       1 UNK         0.0000 
      9 N9          3.5272   51.7559   21.1011 N.2       1 UNK         0.0000 
     10 N10         2.8298   50.8819   20.3331 N.am      1 UNK         0.0000 
     11 C11         2.0365   49.9467   20.9046 C.2       1 UNK         0.0000 
     12 O12         1.7416   49.9502   22.1049 O.2       1 UNK         0.0000 
     13 C13         1.5038   48.8413   20.0192 C.ar      1 UNK         0.0000 
     14 C14         2.1931   48.4083   18.8821 C.ar      1 UNK         0.0000 
     15 C15         1.7435   47.2972   18.1698 C.ar      1 UNK         0.0000 
     16 C16         0.6204   46.5640   18.5706 C.ar      1 UNK         0.0000 
     17 C17        -0.0955   47.0480   19.6763 C.ar      1 UNK         0.0000 
     18 C18         0.3292   48.1724   20.3805 C.ar      1 UNK         0.0000 
     19 N19         0.3305   45.4358   17.8371 N.2       1 UNK         0.0000 
     20 S20        -0.6364   44.2575   18.2245 S.o2      1 UNK         0.0000 
     21 O21        -1.6781   44.5607   19.2116 O.2       1 UNK         0.0000 
     22 O22        -1.0511   43.4782   17.0538 O.2       1 UNK         0.0000 
     23 C23         0.4339   43.0940   19.1079 C.2       1 UNK         0.0000 
     24 C24         0.4585   42.8967   20.4817 C.2       1 UNK         0.0000 
     25 C25         1.3800   41.9223   20.8769 C.2       1 UNK         0.0000 
     26 C26         2.0632   41.3749   19.7988 C.2       1 UNK         0.0000 
     27 S27         1.5834   42.0843   18.2883 S.3       1 UNK         0.0000 
     28 C28         4.3626   53.1532   19.1006 C.2       1 UNK         0.0000 
     29 N29         5.0830   54.1815   18.9520 N.2       1 UNK         0.0000 
     30 O30         3.8188   52.4967   18.0318 O.3       1 UNK         0.0000 
     31 H31         7.1295   56.0957   24.4641 H         1 UNK         0.0000 
     32 H32         7.4864   54.3625   24.5852 H         1 UNK         0.0000 
     33 H33         5.8745   54.9842   24.9724 H         1 UNK         0.0000 
     34 H34         7.5631   56.4574   22.0808 H         1 UNK         0.0000 
     35 H35         6.8414   56.1457   19.7414 H         1 UNK         0.0000 
     36 H36         4.9874   53.2564   23.3235 H         1 UNK         0.0000 
     37 H37         2.9616   50.9458   19.3342 H         1 UNK         0.0000 
     38 H38         3.1043   48.8913   18.5586 H         1 UNK         0.0000 
     39 H39         2.3188   46.9756   17.3127 H         1 UNK         0.0000 
     40 H40        -0.9909   46.5701   20.0304 H         1 UNK         0.0000 
     41 H41        -0.2393   48.4857   21.2457 H         1 UNK         0.0000 
     42 H42        -0.1615   43.4523   21.1717 H         1 UNK         0.0000 
     43 H43         1.5381   41.6330   21.9055 H         1 UNK         0.0000 
     44 H44         2.8293   40.6133   19.8178 H         1 UNK         0.0000 
     45 H45         4.2111   51.6070   17.9894 H         1 UNK         0.0000 
@<TRIPOS>BOND
     1    1    2 1    
     2    1   31 1    
     3    1   32 1    
     4    1   33 1    
     5    2    7 ar   
     6    2    3 ar   
     7    3    4 ar   
     8    3   34 1    
     9    4    5 ar   
    10    4   35 1    
    11    5   29 1    
    12    5    6 ar   
    13    6    7 ar   
    14    6    8 1    
    15    7   36 1    
    16    8    9 2    
    17    8   28 1    
    18    9   10 1    
    19   10   11 am   BACKBONE|DICT|INTERRES
    20   10   37 1    
    21   11   12 2    
    22   11   13 1    
    23   13   18 ar   
    24   13   14 ar   
    25   14   15 ar   
    26   14   38 1    
    27   15   16 ar   
    28   15   39 1    
    29   16   17 ar   
    30   16   19 1    
    31   17   18 ar   
    32   17   40 1    
    33   18   41 1    
    34   19   20 1    
    35   20   21 2    
    36   20   22 2    
    37   20   23 1    
    38   23   27 1    
    39   23   24 2    
    40   24   25 1    
    41   24   42 1    
    42   25   26 2    
    43   25   43 1    
    44   26   27 1    
    45   26   44 1    
    46   28   29 2    
    47   28   30 1    
    48   30   45 1    
@<TRIPOS>SUBSTRUCTURE
     1 UNK         1 GROUP             0       ****    0 ROOT    
