@<TRIPOS>MOLECULE
ZINC14911479_673
53   56    1
SMALL
USER_CHARGES


@<TRIPOS>ATOM
      1 C1          5.2358   54.3002   28.2554 C.3       1 UNK         0.0000 
      2 C2          5.2440   54.3856   26.7432 C.2       1 UNK         0.0000 
      3 C3          4.2706   54.1000   25.7495 C.2       1 UNK         0.0000 
      4 N4          4.7007   54.2734   24.5046 N.2       1 UNK         0.0000 
      5 C5          5.9476   54.6579   24.4226 C.2       1 UNK         0.0000 
      6 S6          6.7042   54.8961   25.9395 S.3       1 UNK         0.0000 
      7 N7          6.7047   54.8906   23.2812 N.am      1 UNK         0.0000 
      8 C8          6.2639   54.8966   22.0057 C.2       1 UNK         0.0000 
      9 O9          5.1043   54.6414   21.6718 O.2       1 UNK         0.0000 
     10 C10         7.3344   55.2947   20.9632 C.3       1 UNK         0.0000 
     11 N11         6.7828   55.5122   19.6024 N.am      1 UNK         0.0000 
     12 C12         6.3594   54.5363   18.7654 C.2       1 UNK         0.0000 
     13 O13         6.3034   53.3287   18.9905 O.2       1 UNK         0.0000 
     14 C14         6.0146   55.2280   17.4412 C.3       1 UNK         0.0000 
     15 C15         6.9537   54.6938   16.3135 C.3       1 UNK         0.0000 
     16 C16         6.6673   53.2433   15.8562 C.3       1 UNK         0.0000 
     17 C17         5.1798   53.0267   15.5152 C.3       1 UNK         0.0000 
     18 C18         4.2434   53.5191   16.6370 C.3       1 UNK         0.0000 
     19 C19         4.5202   54.9980   17.0258 C.3       1 UNK         0.0000 
     20 H20         4.4063   55.5400   16.0836 H         1 UNK         0.0000 
     21 C21         3.4282   55.5435   17.9691 C.3       1 UNK         0.0000 
     22 N22         6.3080   56.5882   17.8134 N.am      1 UNK         0.0000 
     23 C23         6.6699   56.7586   19.0871 C.2       1 UNK         0.0000 
     24 O24         6.7044   57.8260   19.6953 O.2       1 UNK         0.0000 
     25 C25         2.8568   53.5867   25.9430 C.ar      1 UNK         0.0000 
     26 C26         2.0857   53.1961   24.8324 C.ar      1 UNK         0.0000 
     27 C27         0.8167   52.6476   24.9960 C.ar      1 UNK         0.0000 
     28 C28         0.2917   52.4951   26.2744 C.ar      1 UNK         0.0000 
     29 C29         1.0234   52.8945   27.3865 C.ar      1 UNK         0.0000 
     30 C30         2.2922   53.4422   27.2189 C.ar      1 UNK         0.0000 
     31 Br31       -1.4485   51.7604   26.5016 Br        1 UNK         0.0000 
     32 H32         4.9439   53.3080   28.5992 H         1 UNK         0.0000 
     33 H33         6.2194   54.4920   28.6873 H         1 UNK         0.0000 
     34 H34         4.5602   55.0278   28.7037 H         1 UNK         0.0000 
     35 H35         7.6813   55.1141   23.4319 H         1 UNK         0.0000 
     36 H36         8.0856   54.5077   20.9157 H         1 UNK         0.0000 
     37 H37         7.8641   56.1811   21.3165 H         1 UNK         0.0000 
     38 H38         7.9963   54.7760   16.6301 H         1 UNK         0.0000 
     39 H39         6.9484   55.3918   15.4752 H         1 UNK         0.0000 
     40 H40         7.2863   52.9995   14.9920 H         1 UNK         0.0000 
     41 H41         6.9625   52.5384   16.6343 H         1 UNK         0.0000 
     42 H42         4.9418   53.5502   14.5880 H         1 UNK         0.0000 
     43 H43         4.9959   51.9685   15.3238 H         1 UNK         0.0000 
     44 H44         3.2172   53.4322   16.2774 H         1 UNK         0.0000 
     45 H45         4.2771   52.8591   17.5051 H         1 UNK         0.0000 
     46 H46         3.5041   55.0856   18.9559 H         1 UNK         0.0000 
     47 H47         3.5136   56.6230   18.0930 H         1 UNK         0.0000 
     48 H48         2.4261   55.3416   17.5869 H         1 UNK         0.0000 
     49 H49         6.4515   57.2988   17.1149 H         1 UNK         0.0000 
     50 H50         2.4703   53.2882   23.8281 H         1 UNK         0.0000 
     51 H51         0.2418   52.3399   24.1347 H         1 UNK         0.0000 
     52 H52         0.6068   52.7784   28.3763 H         1 UNK         0.0000 
     53 H53         2.8151   53.7389   28.1082 H         1 UNK         0.0000 
@<TRIPOS>BOND
     1    1    2 1    
     2    1   32 1    
     3    1   33 1    
     4    1   34 1    
     5    2    6 1    
     6    2    3 2    
     7    3    4 1    
     8    3   25 1    
     9    4    5 2    
    10    5    6 1    
    11    5    7 am   BACKBONE|DICT|INTERRES
    12    7    8 am   BACKBONE|DICT|INTERRES
    13    7   35 1    
    14    8    9 2    
    15    8   10 1    
    16   10   11 1    
    17   10   36 1    
    18   10   37 1    
    19   11   23 am   BACKBONE|DICT|INTERRES
    20   11   12 am   BACKBONE|DICT|INTERRES
    21   12   13 2    
    22   12   14 1    
    23   14   19 1    
    24   14   15 1    
    25   14   22 1    
    26   15   16 1    
    27   15   38 1    
    28   15   39 1    
    29   16   17 1    
    30   16   40 1    
    31   16   41 1    
    32   17   18 1    
    33   17   42 1    
    34   17   43 1    
    35   18   19 1    
    36   18   44 1    
    37   18   45 1    
    38   19   20 1    
    39   19   21 1    
    40   21   46 1    
    41   21   47 1    
    42   21   48 1    
    43   22   23 am   BACKBONE|DICT|INTERRES
    44   22   49 1    
    45   23   24 2    
    46   25   30 ar   
    47   25   26 ar   
    48   26   27 ar   
    49   26   50 1    
    50   27   28 ar   
    51   27   51 1    
    52   28   29 ar   
    53   28   31 1    
    54   29   30 ar   
    55   29   52 1    
    56   30   53 1    
@<TRIPOS>SUBSTRUCTURE
     1 UNK         1 GROUP             0       ****    0 ROOT    
