ZINC47498103_1327
                    3D
 Schrodinger Suite 2024-2.
 51 53  0  0  1  0            999 V2000
    0.6661   51.0349   27.4806 C   0  0  0  0  0  0
    0.2885   52.4032   28.0882 C   0  0  1  0  0  0
   -0.6578   52.7070   27.6357 H   0  0  0  0  0  0
    0.0473   52.3644   29.6138 C   0  0  0  0  0  0
    1.3570   52.2066   30.4092 C   0  0  1  0  0  0
    1.8437   51.2967   30.0712 H   0  0  0  0  0  0
    2.3133   53.3671   30.0813 C   0  0  0  0  0  0
    2.6186   53.3684   28.5645 N   0  3  1  0  0  0
    1.3174   53.5037   27.7221 C   0  0  0  0  0  0
    3.6362   54.5003   28.2538 C   0  0  0  0  0  0
    4.3898   54.3732   26.9364 C   0  0  0  0  0  0
    3.7394   54.6204   25.7312 C   0  0  0  0  0  0
    4.4228   54.5970   24.5299 C   0  0  0  0  0  0
    5.8000   54.3941   24.5143 C   0  0  0  0  0  0
    6.4525   54.1226   25.7189 C   0  0  0  0  0  0
    5.7588   54.1042   26.9261 C   0  0  0  0  0  0
    6.6017   54.4643   23.2101 C   0  0  0  0  0  0
    5.8312   54.4959   21.9537 N   0  0  0  0  0  0
    5.1043   53.4646   21.4896 C   0  0  0  0  0  0
    5.1046   52.3672   22.0416 O   0  0  0  0  0  0
    4.4306   53.7772   20.3669 N   0  0  0  0  0  0
    3.6369   52.9278   19.6060 C   0  0  0  0  0  0
    3.1879   53.2986   18.4322 N   0  0  0  0  0  0
    2.4176   52.3212   17.8137 N   0  0  0  0  0  0
    2.2999   51.2439   18.5482 C   0  0  0  0  0  0
    3.1038   51.3268   20.0827 S   0  0  0  0  0  0
    1.1040   52.0965   31.9227 C   0  0  0  0  0  0
    1.6144   50.6559   27.8600 H   0  0  0  0  0  0
   -0.0992   50.2861   27.6824 H   0  0  0  0  0  0
    0.7550   51.0969   26.3956 H   0  0  0  0  0  0
   -0.4739   53.2661   29.9417 H   0  0  0  0  0  0
   -0.6357   51.5495   29.8663 H   0  0  0  0  0  0
    3.2683   53.2105   30.5892 H   0  0  0  0  0  0
    1.9045   54.3464   30.3458 H   0  0  0  0  0  0
    0.9255   54.5107   27.8788 H   0  0  0  0  0  0
    1.6039   53.3718   26.6822 H   0  0  0  0  0  0
    4.3502   54.5041   29.0810 H   0  0  0  0  0  0
    3.0745   55.4352   28.3025 H   0  0  0  0  0  0
    2.7043   54.8736   25.7048 H   0  0  0  0  0  0
    3.8751   54.8112   23.6251 H   0  0  0  0  0  0
    7.5043   53.9333   25.7244 H   0  0  0  0  0  0
    6.2967   53.9133   27.8445 H   0  0  0  0  0  0
    7.3031   53.6250   23.1816 H   0  0  0  0  0  0
    7.2239   55.3591   23.2520 H   0  0  0  0  0  0
    5.7900   55.3805   21.4694 H   0  0  0  0  0  0
    4.5486   54.7033   19.9871 H   0  0  0  0  0  0
    1.7914   50.3494   18.2221 H   0  0  0  0  0  0
    0.6827   53.0155   32.3349 H   0  0  0  0  0  0
    0.3987   51.2973   32.1563 H   0  0  0  0  0  0
    2.0257   51.8823   32.4615 H   0  0  0  0  0  0
    3.0480   52.4824   28.3326 H   0  0  0  0  0  0
  1  2  1  0  0  0
  1 28  1  0  0  0
  1 29  1  0  0  0
  1 30  1  0  0  0
  2  3  1  0  0  0
  2  9  1  0  0  0
  2  4  1  0  0  0
  4  5  1  0  0  0
  4 31  1  0  0  0
  4 32  1  0  0  0
  5  6  1  0  0  0
  5  7  1  0  0  0
  5 27  1  0  0  0
  7  8  1  0  0  0
  7 33  1  0  0  0
  7 34  1  0  0  0
  8  9  1  0  0  0
  8 10  1  0  0  0
  8 51  1  0  0  0
  9 35  1  0  0  0
  9 36  1  0  0  0
 10 11  1  0  0  0
 10 37  1  0  0  0
 10 38  1  0  0  0
 11 16  2  0  0  0
 11 12  1  0  0  0
 12 13  2  0  0  0
 12 39  1  0  0  0
 13 14  1  0  0  0
 13 40  1  0  0  0
 14 15  2  0  0  0
 14 17  1  0  0  0
 15 16  1  0  0  0
 15 41  1  0  0  0
 16 42  1  0  0  0
 17 18  1  0  0  0
 17 43  1  0  0  0
 17 44  1  0  0  0
 18 19  1  0  0  0
 18 45  1  0  0  0
 19 20  2  0  0  0
 19 21  1  0  0  0
 21 22  1  0  0  0
 21 46  1  0  0  0
 22 26  1  0  0  0
 22 23  2  0  0  0
 23 24  1  0  0  0
 24 25  2  0  0  0
 25 26  1  0  0  0
 25 47  1  0  0  0
 27 48  1  0  0  0
 27 49  1  0  0  0
 27 50  1  0  0  0
M  CHG  1   8   1
M  END
> <i_i_glide_confnum>
1

> <i_i_glide_lignum>
1328

> <i_i_glide_posenum>
66

> <i_i_glide_rotatable_bonds>
7

> <i_m_Source_File_Index>
248

> <b_m_subgroup_collapsed>
0

> <r_i_docking_score>
-4.36096

> <r_i_glide_ecoul>
2.04368

> <r_i_glide_eff_state_penalty>
0

> <r_i_glide_einternal>
3.89329

> <r_i_glide_emodel>
-46.0152

> <r_i_glide_energy>
-34.0016

> <r_i_glide_erotb>
0.885497

> <r_i_glide_esite>
-0.0653414

> <r_i_glide_evdw>
-36.0452

> <r_i_glide_gscore>
-4.36096

> <r_i_glide_hbond>
0

> <r_i_glide_ligand_efficiency>
-0.174438

> <r_i_glide_ligand_efficiency_ln>
-1.03368

> <r_i_glide_ligand_efficiency_sa>
-0.510061

> <r_i_glide_lipo>
-2.43486

> <r_i_glide_metal>
0

> <r_i_glide_rewards>
-1.25054

> <s_i_glide_gridfile>
wee1_glide-grid

> <s_m_Source_File>
wee1_decoys_glide_SP.sdf

> <s_m_Source_Path>
/Users/zhangxujun/Desktop

> <s_m_entry_id>
523

> <s_m_entry_name>
wee1_decoys_glide_SP.248

> <s_m_subgroup_title>
wee1_decoys_glide_SP

> <s_m_subgroupid>
wee1_decoys_glide_SP


$$$$
