ZINC20106298_935
                    3D
 Schrodinger Suite 2024-2.
 68 73  0  0  1  0            999 V2000
    1.8689   54.8438   29.6203 C   0  0  0  0  0  0
    2.2229   54.7106   28.2505 O   0  0  0  0  0  0
    3.5447   54.4972   27.9143 C   0  0  0  0  0  0
    4.5980   54.3770   28.8340 C   0  0  0  0  0  0
    5.9045   54.1746   28.3870 C   0  0  0  0  0  0
    6.1745   54.1004   27.0240 C   0  0  0  0  0  0
    5.1447   54.2217   26.0892 C   0  0  0  0  0  0
    3.8309   54.4155   26.5504 C   0  0  0  0  0  0
    5.5183   54.0967   24.7372 N   0  0  0  0  0  0
    4.7491   54.0965   23.6283 C   0  0  0  0  0  0
    3.5513   54.3806   23.6078 O   0  0  0  0  0  0
    5.4690   53.6865   22.3207 C   0  0  1  0  0  0
    6.5450   53.6952   22.5030 H   0  0  0  0  0  0
    5.0248   52.2770   21.8077 C   0  0  1  0  0  0
    5.5047   51.4241   22.2849 H   0  0  0  0  0  0
    3.5283   52.1456   21.5318 C   0  0  0  0  0  0
    3.2948   52.8960   20.4433 C   0  0  0  0  0  0
    4.6416   53.5233   20.1266 C   0  0  2  0  0  0
    5.0996   54.5810   21.1080 C   0  0  2  0  0  0
    4.3089   55.2962   21.3180 H   0  0  0  0  0  0
    6.2622   55.2973   20.4063 C   0  0  0  0  0  0
    7.0829   56.0265   20.9659 O   0  0  0  0  0  0
    6.1907   54.9267   19.0949 N   0  0  0  0  0  0
    5.0694   54.0224   18.7539 C   0  0  2  0  0  0
    5.3993   53.1903   18.1310 H   0  0  0  0  0  0
    3.9193   54.7337   17.9954 C   0  0  0  0  0  0
    3.8710   55.9626   17.9154 O   0  0  0  0  0  0
    3.0002   53.9283   17.4364 N   0  0  0  0  0  0
    1.8135   54.3654   16.6962 C   0  0  0  0  0  0
    1.9963   54.1624   15.1713 C   0  0  0  0  0  0
    2.1532   52.6751   14.7810 C   0  0  0  0  0  0
    0.9714   51.8274   15.2923 C   0  0  0  0  0  0
    0.6873   52.0479   16.7906 C   0  0  0  0  0  0
    0.5686   53.5529   17.1283 C   0  0  0  0  0  0
    7.2518   55.1777   18.1086 C   0  0  0  0  0  0
    7.7955   56.5911   18.0786 C   0  0  0  0  0  0
    9.1104   57.0263   18.2231 C   0  0  0  0  0  0
    9.2792   58.4054   18.0823 C   0  0  0  0  0  0
    8.0838   59.0575   17.8395 C   0  0  0  0  0  0
    6.7512   57.9571   17.7842 S   0  0  0  0  0  0
    5.4716   52.4377   20.4874 O   0  0  0  0  0  0
    0.7962   55.0177   29.6977 H   0  0  0  0  0  0
    2.0967   53.9368   30.1807 H   0  0  0  0  0  0
    2.3726   55.6945   30.0823 H   0  0  0  0  0  0
    4.4244   54.4462   29.8953 H   0  0  0  0  0  0
    6.7117   54.0903   29.1014 H   0  0  0  0  0  0
    7.1931   53.9354   26.7069 H   0  0  0  0  0  0
    2.9984   54.5000   25.8717 H   0  0  0  0  0  0
    6.4989   53.9113   24.5988 H   0  0  0  0  0  0
    2.8361   51.5741   22.1318 H   0  0  0  0  0  0
    2.3603   53.1128   19.9465 H   0  0  0  0  0  0
    3.1633   52.9325   17.4613 H   0  0  0  0  0  0
    1.6203   55.4220   16.8973 H   0  0  0  0  0  0
    1.1433   54.5915   14.6434 H   0  0  0  0  0  0
    2.8653   54.7285   14.8293 H   0  0  0  0  0  0
    2.2369   52.5821   13.6993 H   0  0  0  0  0  0
    3.0875   52.2815   15.1883 H   0  0  0  0  0  0
    0.0773   52.0791   14.7192 H   0  0  0  0  0  0
    1.1638   50.7704   15.1035 H   0  0  0  0  0  0
   -0.2267   51.5291   17.0780 H   0  0  0  0  0  0
    1.4857   51.5965   17.3844 H   0  0  0  0  0  0
    0.4014   53.6807   18.1993 H   0  0  0  0  0  0
   -0.3201   53.9642   16.6455 H   0  0  0  0  0  0
    8.0391   54.4349   18.2463 H   0  0  0  0  0  0
    6.8306   54.9701   17.1240 H   0  0  0  0  0  0
    9.9321   56.3519   18.4189 H   0  0  0  0  0  0
   10.2348   58.9049   18.1556 H   0  0  0  0  0  0
    7.9046   60.1110   17.6829 H   0  0  0  0  0  0
  1  2  1  0  0  0
  1 42  1  0  0  0
  1 43  1  0  0  0
  1 44  1  0  0  0
  2  3  1  0  0  0
  3  8  2  0  0  0
  3  4  1  0  0  0
  4  5  2  0  0  0
  4 45  1  0  0  0
  5  6  1  0  0  0
  5 46  1  0  0  0
  6  7  2  0  0  0
  6 47  1  0  0  0
  7  8  1  0  0  0
  7  9  1  0  0  0
  8 48  1  0  0  0
  9 10  1  0  0  0
  9 49  1  0  0  0
 10 11  2  0  0  0
 10 12  1  0  0  0
 12 13  1  0  0  0
 12 19  1  0  0  0
 12 14  1  0  0  0
 14 15  1  0  0  0
 14 41  1  0  0  0
 14 16  1  0  0  0
 16 17  2  0  0  0
 16 50  1  0  0  0
 17 18  1  0  0  0
 17 51  1  0  0  0
 18 24  1  0  0  0
 18 19  1  0  0  0
 18 41  1  0  0  0
 19 20  1  0  0  0
 19 21  1  0  0  0
 21 22  2  0  0  0
 21 23  1  0  0  0
 23 24  1  0  0  0
 23 35  1  0  0  0
 24 25  1  0  0  0
 24 26  1  0  0  0
 26 27  2  0  0  0
 26 28  1  0  0  0
 28 29  1  0  0  0
 28 52  1  0  0  0
 29 34  1  0  0  0
 29 30  1  0  0  0
 29 53  1  0  0  0
 30 31  1  0  0  0
 30 54  1  0  0  0
 30 55  1  0  0  0
 31 32  1  0  0  0
 31 56  1  0  0  0
 31 57  1  0  0  0
 32 33  1  0  0  0
 32 58  1  0  0  0
 32 59  1  0  0  0
 33 34  1  0  0  0
 33 60  1  0  0  0
 33 61  1  0  0  0
 34 62  1  0  0  0
 34 63  1  0  0  0
 35 36  1  0  0  0
 35 64  1  0  0  0
 35 65  1  0  0  0
 36 40  1  0  0  0
 36 37  2  0  0  0
 37 38  1  0  0  0
 37 66  1  0  0  0
 38 39  2  0  0  0
 38 67  1  0  0  0
 39 40  1  0  0  0
 39 68  1  0  0  0
M  END
> <i_i_glide_confnum>
39

> <i_i_glide_lignum>
936

> <i_i_glide_posenum>
286

> <i_i_glide_rotatable_bonds>
9

> <i_m_Source_File_Index>
4533

> <b_m_subgroup_collapsed>
0

> <r_i_docking_score>
-4.9127

> <r_i_glide_ecoul>
-2.94857

> <r_i_glide_eff_state_penalty>
0

> <r_i_glide_einternal>
9.71277

> <r_i_glide_emodel>
-56.759

> <r_i_glide_energy>
-47.4013

> <r_i_glide_erotb>
0.604454

> <r_i_glide_esite>
-0.010039

> <r_i_glide_evdw>
-44.4527

> <r_i_glide_gscore>
-4.9127

> <r_i_glide_hbond>
-0.03499

> <r_i_glide_ligand_efficiency>
-0.132776

> <r_i_glide_ligand_efficiency_ln>
-1.06545

> <r_i_glide_ligand_efficiency_sa>
-0.442438

> <r_i_glide_lipo>
-2.24068

> <r_i_glide_metal>
0

> <r_i_glide_rewards>
-0.566525

> <s_i_glide_gridfile>
wee1_glide-grid

> <s_m_Source_File>
wee1_decoys_glide_SP.sdf

> <s_m_Source_Path>
/Users/zhangxujun/Desktop

> <s_m_entry_id>
4808

> <s_m_entry_name>
wee1_decoys_glide_SP.4533

> <s_m_subgroup_title>
wee1_decoys_glide_SP

> <s_m_subgroupid>
wee1_decoys_glide_SP


$$$$
