@<TRIPOS>MOLECULE
ZINC14553659_3921
57   62    1
SMALL
USER_CHARGES


@<TRIPOS>ATOM
      1 C1         -8.8357   49.9101   27.9509 C.3       1 UNK         0.0000 
      2 C2         -7.4105   49.6926   28.4261 C.ar      1 UNK         0.0000 
      3 C3         -7.1314   48.7317   29.3993 C.ar      1 UNK         0.0000 
      4 C4         -5.8240   48.5447   29.8405 C.ar      1 UNK         0.0000 
      5 C5         -4.7907   49.3184   29.3124 C.ar      1 UNK         0.0000 
      6 C6         -5.0475   50.2982   28.3335 C.ar      1 UNK         0.0000 
      7 C7         -6.3725   50.4694   27.9033 C.ar      1 UNK         0.0000 
      8 C8         -3.9471   51.1701   27.7595 C.2       1 UNK         0.0000 
      9 O9         -4.2110   52.0839   26.9689 O.2       1 UNK         0.0000 
     10 N10        -2.6983   50.8968   28.1856 N.am      1 UNK         0.0000 
     11 C11        -1.5261   51.5569   27.8191 C.ar      1 UNK         0.0000 
     12 C12        -1.1458   51.6770   26.4827 C.ar      1 UNK         0.0000 
     13 C13         0.0655   52.2826   26.1695 C.ar      1 UNK         0.0000 
     14 C14         0.8710   52.8103   27.1803 C.ar      1 UNK         0.0000 
     15 C15         0.5108   52.6809   28.5374 C.ar      1 UNK         0.0000 
     16 C16        -0.6887   52.0243   28.8332 C.ar      1 UNK         0.0000 
     17 C17         1.3912   53.2451   29.6559 C.3       1 UNK         0.0000 
     18 H18         1.6758   52.4109   30.2995 H         1 UNK         0.0000 
     19 C19         0.7079   54.3514   30.4403 C.2       1 UNK         0.0000 
     20 C20         1.1992   55.5625   30.1272 C.2       1 UNK         0.0000 
     21 C21         2.3304   55.4611   29.1300 C.3       1 UNK         0.0000 
     22 C22         2.6485   53.9563   29.1262 C.3       1 UNK         0.0000 
     23 H23         3.4335   53.8023   29.8689 H         1 UNK         0.0000 
     24 C24         3.1730   53.3666   27.7899 C.3       1 UNK         0.0000 
     25 H25         3.4049   52.3141   27.9685 H         1 UNK         0.0000 
     26 N26         2.1014   53.3663   26.8007 N.pl3     1 UNK         0.0000 
     27 C27         4.4581   54.0075   27.2823 C.ar      1 UNK         0.0000 
     28 C28         5.5243   54.4209   28.0608 C.ar      1 UNK         0.0000 
     29 N29         6.5411   54.8965   27.2830 N.pl3     1 UNK         0.0000 
     30 H30         7.3926   55.2515   27.6979 H         1 UNK         0.0000 
     31 C31         6.1921   54.8096   25.9609 C.ar      1 UNK         0.0000 
     32 C32         4.8720   54.2665   25.9140 C.ar      1 UNK         0.0000 
     33 C33         4.2840   54.0895   24.6456 C.ar      1 UNK         0.0000 
     34 C34         5.0197   54.3793   23.4986 C.ar      1 UNK         0.0000 
     35 C35         6.3062   54.8964   23.5867 C.ar      1 UNK         0.0000 
     36 C36         6.9097   55.1502   24.8169 C.ar      1 UNK         0.0000 
     37 H37        -9.0259   50.9681   27.7641 H         1 UNK         0.0000 
     38 H38        -9.0219   49.3594   27.0285 H         1 UNK         0.0000 
     39 H39        -9.5598   49.5938   28.7020 H         1 UNK         0.0000 
     40 H40        -7.9258   48.1259   29.8120 H         1 UNK         0.0000 
     41 H41        -5.6056   47.8023   30.5960 H         1 UNK         0.0000 
     42 H42        -3.7909   49.1392   29.6844 H         1 UNK         0.0000 
     43 H43        -6.6051   51.2153   27.1560 H         1 UNK         0.0000 
     44 H44        -2.5571   50.0665   28.7530 H         1 UNK         0.0000 
     45 H45        -1.7688   51.2822   25.6929 H         1 UNK         0.0000 
     46 H46         0.3692   52.3536   25.1353 H         1 UNK         0.0000 
     47 H47        -0.9793   51.8982   29.8670 H         1 UNK         0.0000 
     48 H48        -0.0989   54.1495   31.1287 H         1 UNK         0.0000 
     49 H49         0.8627   56.5128   30.5214 H         1 UNK         0.0000 
     50 H50         3.1893   56.0461   29.4571 H         1 UNK         0.0000 
     51 H51         2.0285   55.8285   28.1479 H         1 UNK         0.0000 
     52 H52         2.4251   53.2463   25.8555 H         1 UNK         0.0000 
     53 H53         5.6547   54.4089   29.1330 H         1 UNK         0.0000 
     54 H54         3.2890   53.6928   24.5330 H         1 UNK         0.0000 
     55 H55         4.5818   54.2120   22.5244 H         1 UNK         0.0000 
     56 H56         6.8497   55.1150   22.6785 H         1 UNK         0.0000 
     57 H57         7.9040   55.5626   24.8811 H         1 UNK         0.0000 
@<TRIPOS>BOND
     1    1    2 1    
     2    1   37 1    
     3    1   38 1    
     4    1   39 1    
     5    2    7 ar   
     6    2    3 ar   
     7    3    4 ar   
     8    3   40 1    
     9    4    5 ar   
    10    4   41 1    
    11    5    6 ar   
    12    5   42 1    
    13    6    7 ar   
    14    6    8 1    
    15    7   43 1    
    16    8    9 2    
    17    8   10 am   BACKBONE|DICT|INTERRES
    18   10   11 1    
    19   10   44 1    
    20   11   16 ar   
    21   11   12 ar   
    22   12   13 ar   
    23   12   45 1    
    24   13   14 ar   
    25   13   46 1    
    26   14   26 1    
    27   14   15 ar   
    28   15   16 ar   
    29   15   17 1    
    30   16   47 1    
    31   17   18 1    
    32   17   22 1    
    33   17   19 1    
    34   19   20 2    
    35   19   48 1    
    36   20   21 1    
    37   20   49 1    
    38   21   22 1    
    39   21   50 1    
    40   21   51 1    
    41   22   23 1    
    42   22   24 1    
    43   24   25 1    
    44   24   26 1    
    45   24   27 1    
    46   26   52 1    
    47   27   32 ar   
    48   27   28 ar   
    49   28   29 ar   
    50   28   53 1    
    51   29   30 1    
    52   29   31 ar   
    53   31   36 ar   
    54   31   32 ar   
    55   32   33 ar   
    56   33   34 ar   
    57   33   54 1    
    58   34   35 ar   
    59   34   55 1    
    60   35   36 ar   
    61   35   56 1    
    62   36   57 1    
@<TRIPOS>SUBSTRUCTURE
     1 UNK         1 GROUP             0       ****    0 ROOT    
