@<TRIPOS>MOLECULE
ZINC03166611_460
55   58    1
SMALL
USER_CHARGES


@<TRIPOS>ATOM
      1 C1          1.2505   55.7813   30.0763 C.3       1 UNK         0.0000 
      2 C2          2.3234   54.7429   29.7707 C.3       1 UNK         0.0000 
      3 H3          3.1705   54.9462   30.4217 H         1 UNK         0.0000 
      4 C4          2.8338   54.7604   28.3279 C.3       1 UNK         0.0000 
      5 N5          3.8368   53.7009   28.2174 N.pl3     1 UNK         0.0000 
      6 C6          3.3303   52.3617   28.5036 C.3       1 UNK         0.0000 
      7 C7          2.6202   52.3023   29.8738 C.3       1 UNK         0.0000 
      8 H8          1.9934   51.4124   29.9367 H         1 UNK         0.0000 
      9 O9          1.7970   53.4536   30.1077 O.3       1 UNK         0.0000 
     10 C10         3.6373   52.1808   31.0239 C.3       1 UNK         0.0000 
     11 S11         5.4711   53.9846   27.5771 S.o2      1 UNK         0.0000 
     12 O12         6.3374   52.8584   27.8916 O.2       1 UNK         0.0000 
     13 O13         5.9044   55.2970   28.0059 O.2       1 UNK         0.0000 
     14 C14         5.3728   54.0967   25.7931 C.ar      1 UNK         0.0000 
     15 C15         6.5618   54.2619   25.0832 C.ar      1 UNK         0.0000 
     16 C16         6.5405   54.3560   23.6958 C.ar      1 UNK         0.0000 
     17 C17         5.3216   54.2892   23.0051 C.ar      1 UNK         0.0000 
     18 C18         4.1346   54.0967   23.7261 C.ar      1 UNK         0.0000 
     19 C19         4.1547   54.0226   25.1162 C.ar      1 UNK         0.0000 
     20 C20         5.2472   54.4950   21.5115 C.2       1 UNK         0.0000 
     21 O21         4.4058   53.8903   20.8484 O.2       1 UNK         0.0000 
     22 N22         6.1238   55.4000   21.0242 N.am      1 UNK         0.0000 
     23 C23         6.1802   55.9446   19.7524 C.2       1 UNK         0.0000 
     24 N24         7.1039   56.8215   19.4840 N.2       1 UNK         0.0000 
     25 C25         6.9160   57.3803   18.2576 C.ar      1 UNK         0.0000 
     26 C26         7.7347   58.3720   17.7021 C.ar      1 UNK         0.0000 
     27 C27         7.3847   58.9009   16.4584 C.ar      1 UNK         0.0000 
     28 C28         6.2485   58.4618   15.7763 C.ar      1 UNK         0.0000 
     29 C29         5.4383   57.4486   16.2964 C.ar      1 UNK         0.0000 
     30 C30         5.7832   56.9108   17.5423 C.ar      1 UNK         0.0000 
     31 S31         4.9923   55.6563   18.4817 S.3       1 UNK         0.0000 
     32 S32         5.8170   59.2216   14.2166 S.o2      1 UNK         0.0000 
     33 O33         6.8748   58.8788   13.2617 O.2       1 UNK         0.0000 
     34 O34         4.4169   58.8948   13.9288 O.2       1 UNK         0.0000 
     35 N35         5.9043   60.9416   14.4817 N.pl3     1 UNK         0.0000 
     36 H36         1.4786   56.7563   29.6433 H         1 UNK         0.0000 
     37 H37         0.3047   55.4215   29.6816 H         1 UNK         0.0000 
     38 H38         1.1195   55.9116   31.1512 H         1 UNK         0.0000 
     39 H39         3.3101   55.6968   28.0810 H         1 UNK         0.0000 
     40 H40         2.0347   54.5696   27.6112 H         1 UNK         0.0000 
     41 H41         2.6382   52.0971   27.7033 H         1 UNK         0.0000 
     42 H42         4.1826   51.6967   28.4817 H         1 UNK         0.0000 
     43 H43         4.2671   51.2994   30.9092 H         1 UNK         0.0000 
     44 H44         4.3043   53.0403   31.0727 H         1 UNK         0.0000 
     45 H45         3.1312   52.0961   31.9865 H         1 UNK         0.0000 
     46 H46         7.5041   54.3178   25.6070 H         1 UNK         0.0000 
     47 H47         7.4787   54.4914   23.1752 H         1 UNK         0.0000 
     48 H48         3.1832   54.0430   23.2138 H         1 UNK         0.0000 
     49 H49         3.2254   53.8878   25.6476 H         1 UNK         0.0000 
     50 H50         6.8361   55.7267   21.6564 H         1 UNK         0.0000 
     51 H51         8.6014   58.7363   18.2313 H         1 UNK         0.0000 
     52 H52         7.9887   59.6881   16.0284 H         1 UNK         0.0000 
     53 H53         4.5627   57.1027   15.7646 H         1 UNK         0.0000 
     54 H54         5.7122   61.4670   13.6282 H         1 UNK         0.0000 
     55 H55         5.2221   61.2443   15.2004 H         1 UNK         0.0000 
@<TRIPOS>BOND
     1    1    2 1    
     2    1   36 1    
     3    1   37 1    
     4    1   38 1    
     5    2    3 1    
     6    2    9 1    
     7    2    4 1    
     8    4    5 1    
     9    4   39 1    
    10    4   40 1    
    11    5    6 1    
    12    5   11 1    
    13    6    7 1    
    14    6   41 1    
    15    6   42 1    
    16    7    8 1    
    17    7    9 1    
    18    7   10 1    
    19   10   43 1    
    20   10   44 1    
    21   10   45 1    
    22   11   12 2    
    23   11   13 2    
    24   11   14 1    
    25   14   19 ar   
    26   14   15 ar   
    27   15   16 ar   
    28   15   46 1    
    29   16   17 ar   
    30   16   47 1    
    31   17   18 ar   
    32   17   20 1    
    33   18   19 ar   
    34   18   48 1    
    35   19   49 1    
    36   20   21 2    
    37   20   22 am   BACKBONE|DICT|INTERRES
    38   22   23 am   BACKBONE|DICT|INTERRES
    39   22   50 1    
    40   23   31 1    
    41   23   24 2    
    42   24   25 1    
    43   25   30 ar   
    44   25   26 ar   
    45   26   27 ar   
    46   26   51 1    
    47   27   28 ar   
    48   27   52 1    
    49   28   29 ar   
    50   28   32 1    
    51   29   30 ar   
    52   29   53 1    
    53   30   31 1    
    54   32   33 2    
    55   32   34 2    
    56   32   35 1    
    57   35   54 1    
    58   35   55 1    
@<TRIPOS>SUBSTRUCTURE
     1 UNK         1 GROUP             0       ****    0 ROOT    
