@<TRIPOS>MOLECULE
ZINC04100113_5013
49   52    1
SMALL
USER_CHARGES


@<TRIPOS>ATOM
      1 C1          2.0216   53.5606   28.1394 C.ar      1 UNK         0.0000 
      2 C2          2.6656   54.0952   27.0318 C.ar      1 UNK         0.0000 
      3 C3          2.3646   53.6369   25.7509 C.ar      1 UNK         0.0000 
      4 C4          1.3985   52.6023   25.5343 C.ar      1 UNK         0.0000 
      5 C5          0.7592   52.0539   26.6957 C.ar      1 UNK         0.0000 
      6 C6          1.0791   52.5509   27.9858 C.ar      1 UNK         0.0000 
      7 C7         -0.1712   51.0047   26.5508 C.ar      1 UNK         0.0000 
      8 C8         -0.4788   50.5137   25.2930 C.ar      1 UNK         0.0000 
      9 C9          0.1158   51.0362   24.1519 C.ar      1 UNK         0.0000 
     10 C10         1.0692   52.0761   24.2265 C.ar      1 UNK         0.0000 
     11 C11         1.7055   52.6230   23.0043 C.2       1 UNK         0.0000 
     12 N12         2.1068   51.9092   22.0311 N.2       1 UNK         0.0000 
     13 N13         2.6987   52.6046   21.0179 N.pl3     1 UNK         0.0000 
     14 C14         3.2506   51.9900   19.9627 C.2       1 UNK         0.0000 
     15 N15         3.1044   50.6987   19.6811 N.pl3     1 UNK         0.0000 
     16 S16         4.2800   52.8887   18.8755 S.3       1 UNK         0.0000 
     17 C17         4.5007   54.5115   19.6474 C.3       1 UNK         0.0000 
     18 H18         3.5044   54.9231   19.7484 H         1 UNK         0.0000 
     19 C19         5.2314   54.4967   20.9585 C.3       1 UNK         0.0000 
     20 C20         6.4109   55.4251   20.7483 C.2       1 UNK         0.0000 
     21 O21         7.2290   55.6963   21.6273 O.2       1 UNK         0.0000 
     22 N22         6.3785   55.8916   19.4684 N.am      1 UNK         0.0000 
     23 C23         5.3183   55.4243   18.7531 C.2       1 UNK         0.0000 
     24 O24         5.0294   55.6829   17.5830 O.2       1 UNK         0.0000 
     25 C25         7.3435   56.7818   18.9404 C.ar      1 UNK         0.0000 
     26 C26         6.9459   58.0147   18.4030 C.ar      1 UNK         0.0000 
     27 C27         7.8973   58.8946   17.8989 C.ar      1 UNK         0.0000 
     28 C28         9.2474   58.5540   17.9380 C.ar      1 UNK         0.0000 
     29 C29         9.6516   57.3250   18.4572 C.ar      1 UNK         0.0000 
     30 C30         8.7035   56.4379   18.9563 C.ar      1 UNK         0.0000 
     31 Br31       10.5479   59.7824   17.2880 Br        1 UNK         0.0000 
     32 O32        -0.2925   50.4954   22.9578 O.3       1 UNK         0.0000 
     33 H33         2.2592   53.9271   29.1268 H         1 UNK         0.0000 
     34 H34         3.4027   54.8740   27.1664 H         1 UNK         0.0000 
     35 H35         2.8951   54.0749   24.9182 H         1 UNK         0.0000 
     36 H36         0.5896   52.1338   28.8545 H         1 UNK         0.0000 
     37 H37        -0.6444   50.5720   27.4230 H         1 UNK         0.0000 
     38 H38        -1.2005   49.7133   25.2169 H         1 UNK         0.0000 
     39 H39         1.8066   53.7077   23.0084 H         1 UNK         0.0000 
     40 H40         2.7183   53.6143   21.0823 H         1 UNK         0.0000 
     41 H41         3.6644   50.3131   18.9178 H         1 UNK         0.0000 
     42 H42         4.6160   54.8965   21.7666 H         1 UNK         0.0000 
     43 H43         5.5709   53.5030   21.2538 H         1 UNK         0.0000 
     44 H44         5.9032   58.2988   18.3720 H         1 UNK         0.0000 
     45 H45         7.5817   59.8405   17.4834 H         1 UNK         0.0000 
     46 H46        10.6996   57.0615   18.4820 H         1 UNK         0.0000 
     47 H47         9.0325   55.4916   19.3639 H         1 UNK         0.0000 
     48 H48        -0.9252   49.7834   23.0759 H         1 UNK         0.0000 
     49 H49         2.5233   50.1122   20.2638 H         1 UNK         0.0000 
@<TRIPOS>BOND
     1    1    6 ar   
     2    1    2 ar   
     3    1   33 1    
     4    2    3 ar   
     5    2   34 1    
     6    3    4 ar   
     7    3   35 1    
     8    4   10 ar   
     9    4    5 ar   
    10    5    6 ar   
    11    5    7 ar   
    12    6   36 1    
    13    7    8 ar   
    14    7   37 1    
    15    8    9 ar   
    16    8   38 1    
    17    9   10 ar   
    18    9   32 1    
    19   10   11 1    
    20   11   12 2    
    21   11   39 1    
    22   12   13 1    
    23   13   14 1    
    24   13   40 1    
    25   14   15 2    
    26   14   16 1    
    27   15   41 1    
    28   15   49 1    
    29   16   17 1    
    30   17   18 1    
    31   17   23 1    
    32   17   19 1    
    33   19   20 1    
    34   19   42 1    
    35   19   43 1    
    36   20   21 2    
    37   20   22 am   BACKBONE|DICT|INTERRES
    38   22   23 am   BACKBONE|DICT|INTERRES
    39   22   25 1    
    40   23   24 2    
    41   25   30 ar   
    42   25   26 ar   
    43   26   27 ar   
    44   26   44 1    
    45   27   28 ar   
    46   27   45 1    
    47   28   29 ar   
    48   28   31 1    
    49   29   30 ar   
    50   29   46 1    
    51   30   47 1    
    52   32   48 1    
@<TRIPOS>SUBSTRUCTURE
     1 UNK         1 GROUP             0       ****    0 ROOT    
