@<TRIPOS>MOLECULE
ZINC51088571_4748
33   35    1
SMALL
USER_CHARGES


@<TRIPOS>ATOM
      1 C1          4.1804   54.1054   23.1114 C.ar      1 UNK         0.0000 
      2 C2          3.8832   53.9700   24.4751 C.ar      1 UNK         0.0000 
      3 C3          4.9138   54.1792   25.3845 C.ar      1 UNK         0.0000 
      4 C4          6.1748   54.5103   24.9796 C.ar      1 UNK         0.0000 
      5 C5          6.4944   54.6729   23.6365 C.ar      1 UNK         0.0000 
      6 C6          5.4657   54.4966   22.6842 C.ar      1 UNK         0.0000 
      7 N7          5.6105   54.7585   21.3070 N.am      1 UNK         0.0000 
      8 C8          6.5320   55.5257   20.6811 C.2       1 UNK         0.0000 
      9 O9          7.4596   56.0860   21.2683 O.2       1 UNK         0.0000 
     10 C10         6.3303   55.7754   19.1918 C.ar      1 UNK         0.0000 
     11 C11         6.9415   56.9229   18.6510 C.ar      1 UNK         0.0000 
     12 C12         6.7612   57.2935   17.3234 C.ar      1 UNK         0.0000 
     13 C13         5.9593   56.5208   16.4968 C.ar      1 UNK         0.0000 
     14 C14         5.3634   55.3680   16.9960 C.ar      1 UNK         0.0000 
     15 C15         5.5465   54.9578   18.3284 C.ar      1 UNK         0.0000 
     16 N16         4.9678   53.7453   18.7591 N.pl3     1 UNK         0.0000 
     17 N17         4.1836   52.8968   17.8746 N.3       1 UNK         0.0000 
     18 Cl18        7.5282   58.7121   16.7096 Cl        1 UNK         0.0000 
     19 O19         6.9660   54.6890   26.0707 O.3       1 UNK         0.0000 
     20 C20         6.2120   54.2251   27.1592 C.3       1 UNK         0.0000 
     21 O21         4.8754   54.1347   26.7420 O.3       1 UNK         0.0000 
     22 H22         3.3856   53.9677   22.3913 H         1 UNK         0.0000 
     23 H23         2.8869   53.7104   24.8004 H         1 UNK         0.0000 
     24 H24         7.4980   54.9534   23.3581 H         1 UNK         0.0000 
     25 H25         4.8487   54.4460   20.7202 H         1 UNK         0.0000 
     26 H26         7.5609   57.5619   19.2639 H         1 UNK         0.0000 
     27 H27         5.8068   56.8063   15.4662 H         1 UNK         0.0000 
     28 H28         4.7629   54.7802   16.3181 H         1 UNK         0.0000 
     29 H29         5.4988   53.1705   19.4031 H         1 UNK         0.0000 
     30 H30         4.7039   52.0320   17.6850 H         1 UNK         0.0000 
     31 H31         3.3189   52.6565   18.3410 H         1 UNK         0.0000 
     32 H32         6.3031   54.8964   28.0134 H         1 UNK         0.0000 
     33 H33         6.5681   53.2341   27.4464 H         1 UNK         0.0000 
@<TRIPOS>BOND
     1    1    6 ar   
     2    1    2 ar   
     3    1   22 1    
     4    2    3 ar   
     5    2   23 1    
     6    3   21 1    
     7    3    4 ar   
     8    4    5 ar   
     9    4   19 1    
    10    5    6 ar   
    11    5   24 1    
    12    6    7 1    
    13    7    8 am   BACKBONE|DICT|INTERRES
    14    7   25 1    
    15    8    9 2    
    16    8   10 1    
    17   10   15 ar   
    18   10   11 ar   
    19   11   12 ar   
    20   11   26 1    
    21   12   13 ar   
    22   12   18 1    
    23   13   14 ar   
    24   13   27 1    
    25   14   15 ar   
    26   14   28 1    
    27   15   16 1    
    28   16   17 1    
    29   16   29 1    
    30   17   30 1    
    31   17   31 1    
    32   19   20 1    
    33   20   21 1    
    34   20   32 1    
    35   20   33 1    
@<TRIPOS>SUBSTRUCTURE
     1 UNK         1 GROUP             0       ****    0 ROOT    
