@<TRIPOS>MOLECULE
ZINC34978311_695
74   77    1
SMALL
USER_CHARGES


@<TRIPOS>ATOM
      1 C1         -1.5805   47.5385   21.4446 C.3       1 UNK         0.0000 
      2 C2         -2.0553   47.2883   22.8718 C.ar      1 UNK         0.0000 
      3 C3         -3.2616   46.6005   23.0456 C.ar      1 UNK         0.0000 
      4 C4         -3.7320   46.2898   24.3216 C.ar      1 UNK         0.0000 
      5 C5         -2.9836   46.6448   25.4409 C.ar      1 UNK         0.0000 
      6 C6         -1.7819   47.3301   25.2823 C.ar      1 UNK         0.0000 
      7 C7         -1.3177   47.6800   24.0136 C.ar      1 UNK         0.0000 
      8 N8         -0.1096   48.3963   23.9826 N.am      1 UNK         0.0000 
      9 C9          0.0728   49.5869   23.3866 C.2       1 UNK         0.0000 
     10 O10        -0.7797   50.1706   22.7135 O.2       1 UNK         0.0000 
     11 N11         1.2849   50.0959   23.6680 N.am      1 UNK         0.0000 
     12 C12         1.7765   51.4478   23.3243 C.3       1 UNK         0.0000 
     13 H13         2.7038   51.5240   23.8880 H         1 UNK         0.0000 
     14 C14         0.8144   52.5513   23.8695 C.3       1 UNK         0.0000 
     15 C15         0.6011   52.4970   25.3769 C.ar      1 UNK         0.0000 
     16 C16         1.5916   52.9949   26.2494 C.ar      1 UNK         0.0000 
     17 C17         1.4510   52.8449   27.6229 C.ar      1 UNK         0.0000 
     18 C18         0.3501   52.1758   28.1463 C.ar      1 UNK         0.0000 
     19 C19        -0.6159   51.6485   27.2989 C.ar      1 UNK         0.0000 
     20 C20        -0.4989   51.7975   25.9233 C.ar      1 UNK         0.0000 
     21 C21         2.2078   51.6013   21.8314 C.2       1 UNK         0.0000 
     22 O22         1.8546   50.7243   21.0378 O.2       1 UNK         0.0000 
     23 N23         2.9843   52.6533   21.4388 N.am      1 UNK         0.0000 
     24 C24         3.3130   52.8256   20.0085 C.3       1 UNK         0.0000 
     25 C25         4.8313   53.0500   19.8571 C.3       1 UNK         0.0000 
     26 N26         5.2178   54.2172   20.6774 N.am      1 UNK         0.0000 
     27 C27         4.9255   54.0979   22.1253 C.3       1 UNK         0.0000 
     28 H28         5.0739   55.0719   22.5877 H         1 UNK         0.0000 
     29 C29         3.4223   53.7506   22.3269 C.3       1 UNK         0.0000 
     30 C30         5.8677   53.1479   22.8807 C.3       1 UNK         0.0000 
     31 C31         5.9045   55.2977   20.1967 C.2       1 UNK         0.0000 
     32 O32         6.3424   56.1689   20.9572 O.2       1 UNK         0.0000 
     33 C33         6.1222   55.4805   18.6692 C.3       1 UNK         0.0000 
     34 C34         4.7735   55.8987   18.0210 C.3       1 UNK         0.0000 
     35 C35         4.9527   56.0601   16.4982 C.3       1 UNK         0.0000 
     36 C36         6.0811   57.0524   16.1475 C.3       1 UNK         0.0000 
     37 C37         7.4066   56.6988   16.8549 C.3       1 UNK         0.0000 
     38 C38         7.2199   56.5451   18.3793 C.3       1 UNK         0.0000 
     39 H39        -1.9922   48.4740   21.0618 H         1 UNK         0.0000 
     40 H40        -0.4955   47.5821   21.3763 H         1 UNK         0.0000 
     41 H41        -1.8956   46.7335   20.7785 H         1 UNK         0.0000 
     42 H42        -3.8452   46.3054   22.1847 H         1 UNK         0.0000 
     43 H43        -4.6748   45.7771   24.4414 H         1 UNK         0.0000 
     44 H44        -3.3370   46.4104   26.4349 H         1 UNK         0.0000 
     45 H45        -1.2255   47.6165   26.1640 H         1 UNK         0.0000 
     46 H46         0.5762   48.1214   24.6720 H         1 UNK         0.0000 
     47 H47         1.9742   49.4773   24.0728 H         1 UNK         0.0000 
     48 H48         1.1678   53.5526   23.6314 H         1 UNK         0.0000 
     49 H49        -0.1572   52.4952   23.3796 H         1 UNK         0.0000 
     50 H50         2.4647   53.4915   25.8530 H         1 UNK         0.0000 
     51 H51         2.2080   53.2334   28.2882 H         1 UNK         0.0000 
     52 H52         0.2499   52.0467   29.2141 H         1 UNK         0.0000 
     53 H53        -1.4531   51.0986   27.7090 H         1 UNK         0.0000 
     54 H54        -1.2460   51.3632   25.2748 H         1 UNK         0.0000 
     55 H55         3.0192   51.9727   19.3934 H         1 UNK         0.0000 
     56 H56         2.7785   53.6965   19.6315 H         1 UNK         0.0000 
     57 H57         5.3646   52.1725   20.2213 H         1 UNK         0.0000 
     58 H58         5.0725   53.1340   18.8015 H         1 UNK         0.0000 
     59 H59         2.8339   54.6387   22.0880 H         1 UNK         0.0000 
     60 H60         3.2813   53.5343   23.3830 H         1 UNK         0.0000 
     61 H61         5.5663   53.0947   23.9244 H         1 UNK         0.0000 
     62 H62         5.8446   52.1339   22.4805 H         1 UNK         0.0000 
     63 H63         6.8932   53.5177   22.8802 H         1 UNK         0.0000 
     64 H64         6.4858   54.5214   18.3044 H         1 UNK         0.0000 
     65 H65         3.9998   55.1401   18.1496 H         1 UNK         0.0000 
     66 H66         4.4340   56.8682   18.3947 H         1 UNK         0.0000 
     67 H67         5.1710   55.0892   16.0505 H         1 UNK         0.0000 
     68 H68         4.0161   56.3968   16.0492 H         1 UNK         0.0000 
     69 H69         6.2334   57.0759   15.0670 H         1 UNK         0.0000 
     70 H70         5.7779   58.0616   16.4321 H         1 UNK         0.0000 
     71 H71         7.8071   55.7712   16.4396 H         1 UNK         0.0000 
     72 H72         8.1519   57.4684   16.6496 H         1 UNK         0.0000 
     73 H73         6.9273   57.5334   18.7404 H         1 UNK         0.0000 
     74 H74         8.1879   56.2430   18.7844 H         1 UNK         0.0000 
@<TRIPOS>BOND
     1    1    2 1    
     2    1   39 1    
     3    1   40 1    
     4    1   41 1    
     5    2    7 ar   
     6    2    3 ar   
     7    3    4 ar   
     8    3   42 1    
     9    4    5 ar   
    10    4   43 1    
    11    5    6 ar   
    12    5   44 1    
    13    6    7 ar   
    14    6   45 1    
    15    7    8 1    
    16    8    9 am   BACKBONE|DICT|INTERRES
    17    8   46 1    
    18    9   10 2    
    19    9   11 am   BACKBONE|DICT|INTERRES
    20   11   12 1    
    21   11   47 1    
    22   12   13 1    
    23   12   14 1    
    24   12   21 1    
    25   14   15 1    
    26   14   48 1    
    27   14   49 1    
    28   15   20 ar   
    29   15   16 ar   
    30   16   17 ar   
    31   16   50 1    
    32   17   18 ar   
    33   17   51 1    
    34   18   19 ar   
    35   18   52 1    
    36   19   20 ar   
    37   19   53 1    
    38   20   54 1    
    39   21   22 2    
    40   21   23 am   BACKBONE|DICT|INTERRES
    41   23   29 1    
    42   23   24 1    
    43   24   25 1    
    44   24   55 1    
    45   24   56 1    
    46   25   26 1    
    47   25   57 1    
    48   25   58 1    
    49   26   27 1    
    50   26   31 am   BACKBONE|DICT|INTERRES
    51   27   28 1    
    52   27   29 1    
    53   27   30 1    
    54   29   59 1    
    55   29   60 1    
    56   30   61 1    
    57   30   62 1    
    58   30   63 1    
    59   31   32 2    
    60   31   33 1    
    61   33   38 1    
    62   33   34 1    
    63   33   64 1    
    64   34   35 1    
    65   34   65 1    
    66   34   66 1    
    67   35   36 1    
    68   35   67 1    
    69   35   68 1    
    70   36   37 1    
    71   36   69 1    
    72   36   70 1    
    73   37   38 1    
    74   37   71 1    
    75   37   72 1    
    76   38   73 1    
    77   38   74 1    
@<TRIPOS>SUBSTRUCTURE
     1 UNK         1 GROUP             0       ****    0 ROOT    
