ZINC39675449_4083
                    3D
 Schrodinger Suite 2024-2.
 75 78  0  0  1  0            999 V2000
   -6.7706   49.6530   28.7934 C   0  0  0  0  0  0
   -6.0018   50.5008   27.7962 C   0  0  0  0  0  0
   -4.6453   50.7520   27.9931 C   0  0  0  0  0  0
   -3.9371   51.5174   27.0709 C   0  0  0  0  0  0
   -4.5642   52.0274   25.9220 C   0  0  0  0  0  0
   -5.9384   51.7742   25.7242 C   0  0  0  0  0  0
   -6.6393   51.0123   26.6641 C   0  0  0  0  0  0
   -6.6921   52.2822   24.4983 C   0  0  0  0  0  0
   -3.7463   52.8541   24.9531 C   0  0  0  0  0  0
   -4.0964   54.0127   24.7122 O   0  0  0  0  0  0
   -2.6197   52.3019   24.4286 N   0  0  0  0  0  0
   -1.6225   53.0928   23.7075 C   0  0  0  0  0  0
   -0.6228   52.0389   23.1711 C   0  0  2  0  0  0
   -0.9479   51.8070   22.1553 H   0  0  0  0  0  0
   -0.7698   50.8328   24.1383 C   0  0  0  0  0  0
   -2.2747   50.8784   24.4731 C   0  0  0  0  0  0
   -0.3038   49.5057   23.4884 C   0  0  0  0  0  0
   -0.5664   48.2990   24.3998 C   0  0  0  0  0  0
    0.2483   48.5199   25.6821 N   0  3  0  0  0  0
   -0.0858   49.8275   26.4328 C   0  0  0  0  0  0
    0.0715   50.9981   25.4465 C   0  0  0  0  0  0
    0.8366   52.5741   23.0525 C   0  0  0  0  0  0
    1.6353   51.9003   22.4095 O   0  0  0  0  0  0
    1.1962   53.7132   23.6851 N   0  0  0  0  0  0
    2.5546   54.2635   23.8275 C   0  0  2  0  0  0
    2.3845   55.2974   24.1178 H   0  0  0  0  0  0
    3.3571   54.3636   22.5069 C   0  0  0  0  0  0
    3.3683   53.5569   24.9546 C   0  0  0  0  0  0
    3.6249   54.3882   26.2351 C   0  0  0  0  0  0
    3.2275   53.7173   27.5446 C   0  0  0  0  0  0
    1.8980   53.7491   27.9714 C   0  0  0  0  0  0
    1.5488   53.2103   29.2089 C   0  0  0  0  0  0
    2.5286   52.6257   30.0263 C   0  0  0  0  0  0
    3.8472   52.5739   29.5788 C   0  0  0  0  0  0
    4.2020   53.1217   28.3500 C   0  0  0  0  0  0
    2.2846   52.0967   31.2798 O   0  0  0  0  0  0
    0.9755   52.1956   31.8396 C   0  0  0  0  0  0
   -6.1068   48.9617   29.3140 H   0  0  0  0  0  0
   -7.2715   50.2839   29.5272 H   0  0  0  0  0  0
   -7.5211   49.0467   28.2853 H   0  0  0  0  0  0
   -4.1337   50.3566   28.8604 H   0  0  0  0  0  0
   -2.8888   51.7070   27.2545 H   0  0  0  0  0  0
   -7.6909   50.8056   26.5146 H   0  0  0  0  0  0
   -7.7063   51.8826   24.4373 H   0  0  0  0  0  0
   -6.7477   53.3715   24.5043 H   0  0  0  0  0  0
   -6.1724   51.9821   23.5894 H   0  0  0  0  0  0
   -1.1559   53.6995   24.4814 H   0  0  0  0  0  0
   -2.0806   53.6859   22.9138 H   0  0  0  0  0  0
   -2.8137   50.3952   23.6563 H   0  0  0  0  0  0
   -2.5306   50.3222   25.3726 H   0  0  0  0  0  0
   -0.8449   49.3516   22.5551 H   0  0  0  0  0  0
    0.7493   49.5518   23.1997 H   0  0  0  0  0  0
   -1.6096   48.1794   24.6953 H   0  0  0  0  0  0
   -0.2045   47.3675   23.9689 H   0  0  0  0  0  0
    0.1357   47.7337   26.3216 H   0  0  0  0  0  0
   -1.0821   49.7234   26.8700 H   0  0  0  0  0  0
    0.6210   49.9145   27.2582 H   0  0  0  0  0  0
    1.1260   51.1121   25.2189 H   0  0  0  0  0  0
   -0.2064   51.9199   25.9610 H   0  0  0  0  0  0
    0.4769   54.2178   24.1737 H   0  0  0  0  0  0
    4.2947   54.8950   22.6658 H   0  0  0  0  0  0
    3.6303   53.3827   22.1123 H   0  0  0  0  0  0
    2.8046   54.8992   21.7394 H   0  0  0  0  0  0
    4.3503   53.2966   24.5627 H   0  0  0  0  0  0
    2.9171   52.5987   25.2023 H   0  0  0  0  0  0
    3.1047   55.3363   26.2001 H   0  0  0  0  0  0
    4.6795   54.6673   26.2796 H   0  0  0  0  0  0
    1.1412   54.2139   27.3566 H   0  0  0  0  0  0
    0.5170   53.2690   29.5212 H   0  0  0  0  0  0
    4.6060   52.1200   30.2000 H   0  0  0  0  0  0
    5.2336   53.0925   28.0301 H   0  0  0  0  0  0
    0.9577   51.6972   32.8086 H   0  0  0  0  0  0
    0.2216   51.7158   31.2131 H   0  0  0  0  0  0
    0.6907   53.2356   32.0029 H   0  0  0  0  0  0
    1.2318   48.5210   25.4420 H   0  0  0  0  0  0
  1  2  1  0  0  0
  1 38  1  0  0  0
  1 39  1  0  0  0
  1 40  1  0  0  0
  2  7  2  0  0  0
  2  3  1  0  0  0
  3  4  2  0  0  0
  3 41  1  0  0  0
  4  5  1  0  0  0
  4 42  1  0  0  0
  5  6  2  0  0  0
  5  9  1  0  0  0
  6  7  1  0  0  0
  6  8  1  0  0  0
  7 43  1  0  0  0
  8 44  1  0  0  0
  8 45  1  0  0  0
  8 46  1  0  0  0
  9 10  2  0  0  0
  9 11  1  0  0  0
 11 16  1  0  0  0
 11 12  1  0  0  0
 12 13  1  0  0  0
 12 47  1  0  0  0
 12 48  1  0  0  0
 13 14  1  0  0  0
 13 15  1  0  0  0
 13 22  1  0  0  0
 15 21  1  0  0  0
 15 16  1  0  0  0
 15 17  1  0  0  0
 16 49  1  0  0  0
 16 50  1  0  0  0
 17 18  1  0  0  0
 17 51  1  0  0  0
 17 52  1  0  0  0
 18 19  1  0  0  0
 18 53  1  0  0  0
 18 54  1  0  0  0
 19 20  1  0  0  0
 19 55  1  0  0  0
 19 75  1  0  0  0
 20 21  1  0  0  0
 20 56  1  0  0  0
 20 57  1  0  0  0
 21 58  1  0  0  0
 21 59  1  0  0  0
 22 23  2  0  0  0
 22 24  1  0  0  0
 24 25  1  0  0  0
 24 60  1  0  0  0
 25 26  1  0  0  0
 25 27  1  0  0  0
 25 28  1  0  0  0
 27 61  1  0  0  0
 27 62  1  0  0  0
 27 63  1  0  0  0
 28 29  1  0  0  0
 28 64  1  0  0  0
 28 65  1  0  0  0
 29 30  1  0  0  0
 29 66  1  0  0  0
 29 67  1  0  0  0
 30 35  2  0  0  0
 30 31  1  0  0  0
 31 32  2  0  0  0
 31 68  1  0  0  0
 32 33  1  0  0  0
 32 69  1  0  0  0
 33 34  2  0  0  0
 33 36  1  0  0  0
 34 35  1  0  0  0
 34 70  1  0  0  0
 35 71  1  0  0  0
 36 37  1  0  0  0
 37 72  1  0  0  0
 37 73  1  0  0  0
 37 74  1  0  0  0
M  CHG  1  19   1
M  END
> <i_i_glide_confnum>
75

> <i_i_glide_lignum>
4084

> <i_i_glide_posenum>
47

> <i_i_glide_rotatable_bonds>
9

> <i_m_Source_File_Index>
1770

> <b_m_subgroup_collapsed>
0

> <r_i_docking_score>
-5.07016

> <r_i_glide_ecoul>
-7.45892

> <r_i_glide_eff_state_penalty>
0

> <r_i_glide_einternal>
11.2498

> <r_i_glide_emodel>
-57.3207

> <r_i_glide_energy>
-46.4131

> <r_i_glide_erotb>
0.707666

> <r_i_glide_esite>
-0.0705577

> <r_i_glide_evdw>
-38.9542

> <r_i_glide_gscore>
-5.07016

> <r_i_glide_hbond>
-0.286774

> <r_i_glide_ligand_efficiency>
-0.144862

> <r_i_glide_ligand_efficiency_ln>
-1.11301

> <r_i_glide_ligand_efficiency_sa>
-0.473853

> <r_i_glide_lipo>
-1.84706

> <r_i_glide_metal>
0

> <r_i_glide_rewards>
-0.506891

> <s_i_glide_gridfile>
wee1_glide-grid

> <s_m_Source_File>
wee1_decoys_glide_SP.sdf

> <s_m_Source_Path>
/Users/zhangxujun/Desktop

> <s_m_entry_id>
2045

> <s_m_entry_name>
wee1_decoys_glide_SP.1770

> <s_m_subgroup_title>
wee1_decoys_glide_SP

> <s_m_subgroupid>
wee1_decoys_glide_SP


$$$$
