@<TRIPOS>MOLECULE
ZINC33058463_4491
62   65    1
SMALL
USER_CHARGES


@<TRIPOS>ATOM
      1 C1          1.4742   53.2077   28.8168 C.3       1 UNK         0.0000 
      2 C2          2.6400   53.6751   27.9628 C.ar      1 UNK         0.0000 
      3 C3          3.8303   54.0848   28.5603 C.ar      1 UNK         0.0000 
      4 C4          4.8979   54.4953   27.7699 C.ar      1 UNK         0.0000 
      5 C5          4.7866   54.5118   26.3759 C.ar      1 UNK         0.0000 
      6 C6          3.5892   54.0974   25.7526 C.ar      1 UNK         0.0000 
      7 C7          2.5275   53.6775   26.5706 C.ar      1 UNK         0.0000 
      8 N8          3.5400   54.0940   24.3405 N.pl3     1 UNK         0.0000 
      9 C9          2.7084   53.4695   23.4331 C.2       1 UNK         0.0000 
     10 C10         3.1166   52.9135   22.2106 C.2       1 UNK         0.0000 
     11 C11         2.0819   52.1723   21.6089 C.2       1 UNK         0.0000 
     12 C12         0.8671   52.2414   22.2830 C.2       1 UNK         0.0000 
     13 S13         0.9952   53.2571   23.6822 S.3       1 UNK         0.0000 
     14 C14        -0.4196   51.6409   21.9401 C.2       1 UNK         0.0000 
     15 O15        -1.0410   52.0963   20.9759 O.2       1 UNK         0.0000 
     16 C16        -0.8971   50.4230   22.6819 C.ar      1 UNK         0.0000 
     17 C17        -0.3117   49.9899   23.8804 C.ar      1 UNK         0.0000 
     18 C18        -0.8029   48.8615   24.5389 C.ar      1 UNK         0.0000 
     19 C19        -1.8725   48.1363   23.9975 C.ar      1 UNK         0.0000 
     20 C20        -2.4349   48.5475   22.7937 C.ar      1 UNK         0.0000 
     21 C21        -1.9691   49.6904   22.1513 C.ar      1 UNK         0.0000 
     22 O22        -2.4247   47.0144   24.5858 O.3       1 UNK         0.0000 
     23 C23        -2.3281   46.8922   25.9997 C.3       1 UNK         0.0000 
     24 N24         2.2591   51.4147   20.4840 N.pl3     1 UNK         0.0000 
     25 S25         4.8153   53.0068   21.5456 S.o2      1 UNK         0.0000 
     26 O26         5.6768   53.5581   22.6005 O.2       1 UNK         0.0000 
     27 O27         5.1038   51.6967   20.9583 O.2       1 UNK         0.0000 
     28 C28         4.8230   54.1738   20.1810 C.ar      1 UNK         0.0000 
     29 C29         4.0564   53.9300   19.0413 C.ar      1 UNK         0.0000 
     30 C30         4.0856   54.8260   17.9787 C.ar      1 UNK         0.0000 
     31 C31         4.8832   55.9684   18.0286 C.ar      1 UNK         0.0000 
     32 C32         5.6836   56.1911   19.1595 C.ar      1 UNK         0.0000 
     33 C33         5.6506   55.2972   20.2309 C.ar      1 UNK         0.0000 
     34 O34         4.8238   56.8003   16.9267 O.3       1 UNK         0.0000 
     35 C35         5.5647   58.0178   16.9154 C.3       1 UNK         0.0000 
     36 C36         5.9905   55.0011   25.5737 C.3       1 UNK         0.0000 
     37 H37         1.7947   52.9205   29.8197 H         1 UNK         0.0000 
     38 H38         0.7155   53.9872   28.8891 H         1 UNK         0.0000 
     39 H39         1.0062   52.3275   28.3727 H         1 UNK         0.0000 
     40 H40         3.9358   54.0776   29.6351 H         1 UNK         0.0000 
     41 H41         5.8141   54.8125   28.2518 H         1 UNK         0.0000 
     42 H42         1.5957   53.3414   26.1589 H         1 UNK         0.0000 
     43 H43         4.4593   54.3300   23.9856 H         1 UNK         0.0000 
     44 H44         0.5210   50.5181   24.3273 H         1 UNK         0.0000 
     45 H45        -0.3363   48.5587   25.4640 H         1 UNK         0.0000 
     46 H46        -3.2544   47.9910   22.3685 H         1 UNK         0.0000 
     47 H47        -2.4456   49.9875   21.2267 H         1 UNK         0.0000 
     48 H48        -2.9039   46.0292   26.3377 H         1 UNK         0.0000 
     49 H49        -2.7458   47.7746   26.4815 H         1 UNK         0.0000 
     50 H50        -1.3017   46.7505   26.3315 H         1 UNK         0.0000 
     51 H51         3.1890   51.2475   20.1104 H         1 UNK         0.0000 
     52 H52         1.4991   50.9199   20.0421 H         1 UNK         0.0000 
     53 H53         3.4339   53.0532   18.9625 H         1 UNK         0.0000 
     54 H54         3.4746   54.6361   17.1079 H         1 UNK         0.0000 
     55 H55         6.3222   57.0579   19.2279 H         1 UNK         0.0000 
     56 H56         6.2740   55.4833   21.0941 H         1 UNK         0.0000 
     57 H57         5.4197   58.5128   15.9573 H         1 UNK         0.0000 
     58 H58         5.2183   58.7106   17.6817 H         1 UNK         0.0000 
     59 H59         6.6349   57.8473   17.0346 H         1 UNK         0.0000 
     60 H60         6.7112   55.5311   26.2002 H         1 UNK         0.0000 
     61 H61         6.4936   54.1639   25.0872 H         1 UNK         0.0000 
     62 H62         5.6754   55.7033   24.7997 H         1 UNK         0.0000 
@<TRIPOS>BOND
     1    1    2 1    
     2    1   37 1    
     3    1   38 1    
     4    1   39 1    
     5    2    7 ar   
     6    2    3 ar   
     7    3    4 ar   
     8    3   40 1    
     9    4    5 ar   
    10    4   41 1    
    11    5    6 ar   
    12    5   36 1    
    13    6    7 ar   
    14    6    8 1    
    15    7   42 1    
    16    8    9 1    
    17    8   43 1    
    18    9   13 1    
    19    9   10 2    
    20   10   11 1    
    21   10   25 1    
    22   11   12 2    
    23   11   24 1    
    24   12   13 1    
    25   12   14 1    
    26   14   15 2    
    27   14   16 1    
    28   16   21 ar   
    29   16   17 ar   
    30   17   18 ar   
    31   17   44 1    
    32   18   19 ar   
    33   18   45 1    
    34   19   20 ar   
    35   19   22 1    
    36   20   21 ar   
    37   20   46 1    
    38   21   47 1    
    39   22   23 1    
    40   23   48 1    
    41   23   49 1    
    42   23   50 1    
    43   24   51 1    
    44   24   52 1    
    45   25   26 2    
    46   25   27 2    
    47   25   28 1    
    48   28   33 ar   
    49   28   29 ar   
    50   29   30 ar   
    51   29   53 1    
    52   30   31 ar   
    53   30   54 1    
    54   31   32 ar   
    55   31   34 1    
    56   32   33 ar   
    57   32   55 1    
    58   33   56 1    
    59   34   35 1    
    60   35   57 1    
    61   35   58 1    
    62   35   59 1    
    63   36   60 1    
    64   36   61 1    
    65   36   62 1    
@<TRIPOS>SUBSTRUCTURE
     1 UNK         1 GROUP             0       ****    0 ROOT    
