ZINC19499176_4754
                    3D
 Schrodinger Suite 2024-2.
 39 41  0  0  1  0            999 V2000
    7.3196   56.1210   18.1396 C   0  0  0  0  0  0
    6.2111   55.3424   18.8783 C   0  0  0  0  0  0
    6.3673   55.2969   20.4151 C   0  0  0  0  0  0
    7.2617   55.9667   20.9383 O   0  0  0  0  0  0
    5.5084   54.5245   21.1390 N   0  0  0  0  0  0
    4.2752   54.0031   20.5335 C   0  0  0  0  0  0
    3.4649   53.4045   21.6749 C   0  0  0  0  0  0
    4.1537   53.9393   22.8952 C   0  0  0  0  0  0
    5.3799   54.4967   22.5424 C   0  0  0  0  0  0
    6.3044   54.8275   23.5411 C   0  0  0  0  0  0
    5.9416   54.7138   24.8837 C   0  0  0  0  0  0
    4.6782   54.2276   25.2537 C   0  0  0  0  0  0
    3.7962   53.8227   24.2380 C   0  0  0  0  0  0
    4.3057   54.0962   26.7055 C   0  0  0  0  0  0
    5.0827   54.4966   27.7982 C   0  0  0  0  0  0
    4.2754   54.1086   29.2817 S   0  0  0  0  0  0
    2.9521   53.4707   28.3452 C   0  0  0  0  0  0
    3.1520   53.5381   27.0524 N   0  0  0  0  0  0
    1.8823   52.8609   28.9335 N   0  0  0  0  0  0
    1.1205   53.4790   29.7428 C   0  0  0  0  0  0
    0.0612   52.8267   30.3962 N   0  0  0  0  0  0
    1.1737   54.8462   30.0916 N   0  0  0  0  0  0
    7.1496   56.0900   17.0629 H   0  0  0  0  0  0
    8.3064   55.6898   18.3163 H   0  0  0  0  0  0
    7.3330   57.1747   18.4233 H   0  0  0  0  0  0
    5.2501   55.7991   18.6386 H   0  0  0  0  0  0
    6.1923   54.3207   18.4963 H   0  0  0  0  0  0
    3.7165   54.8868   20.2213 H   0  0  0  0  0  0
    4.3688   53.3884   19.6367 H   0  0  0  0  0  0
    2.4021   53.6340   21.5909 H   0  0  0  0  0  0
    3.5536   52.3177   21.6457 H   0  0  0  0  0  0
    7.2896   55.1978   23.2985 H   0  0  0  0  0  0
    6.6622   54.9990   25.6333 H   0  0  0  0  0  0
    2.8446   53.3810   24.4951 H   0  0  0  0  0  0
    6.0545   54.9669   27.8180 H   0  0  0  0  0  0
    0.0038   51.8265   30.2746 H   0  0  0  0  0  0
   -0.0995   53.0541   31.3669 H   0  0  0  0  0  0
    1.7263   55.4437   29.4962 H   0  0  0  0  0  0
    0.2913   55.2892   30.2926 H   0  0  0  0  0  0
  1  2  1  0  0  0
  1 23  1  0  0  0
  1 24  1  0  0  0
  1 25  1  0  0  0
  2  3  1  0  0  0
  2 26  1  0  0  0
  2 27  1  0  0  0
  3  4  2  0  0  0
  3  5  1  0  0  0
  5  9  1  0  0  0
  5  6  1  0  0  0
  6  7  1  0  0  0
  6 28  1  0  0  0
  6 29  1  0  0  0
  7  8  1  0  0  0
  7 30  1  0  0  0
  7 31  1  0  0  0
  8 13  2  0  0  0
  8  9  1  0  0  0
  9 10  2  0  0  0
 10 11  1  0  0  0
 10 32  1  0  0  0
 11 12  2  0  0  0
 11 33  1  0  0  0
 12 13  1  0  0  0
 12 14  1  0  0  0
 13 34  1  0  0  0
 14 18  1  0  0  0
 14 15  2  0  0  0
 15 16  1  0  0  0
 15 35  1  0  0  0
 16 17  1  0  0  0
 17 18  2  0  0  0
 17 19  1  0  0  0
 19 20  2  0  0  0
 20 21  1  0  0  0
 20 22  1  0  0  0
 21 36  1  0  0  0
 21 37  1  0  0  0
 22 38  1  0  0  0
 22 39  1  0  0  0
M  END
> <i_i_glide_confnum>
1

> <i_i_glide_lignum>
4755

> <i_i_glide_posenum>
72

> <i_i_glide_rotatable_bonds>
4

> <i_m_Source_File_Index>
4074

> <b_m_subgroup_collapsed>
0

> <r_i_docking_score>
-6.52849

> <r_i_glide_ecoul>
-3.78379

> <r_i_glide_eff_state_penalty>
0

> <r_i_glide_einternal>
3.72392

> <r_i_glide_emodel>
-59.1267

> <r_i_glide_energy>
-42.7598

> <r_i_glide_erotb>
0.561013

> <r_i_glide_esite>
-0.0308366

> <r_i_glide_evdw>
-38.976

> <r_i_glide_gscore>
-6.52849

> <r_i_glide_hbond>
-0.0326178

> <r_i_glide_ligand_efficiency>
-0.29675

> <r_i_glide_ligand_efficiency_ln>
-1.5958

> <r_i_glide_ligand_efficiency_sa>
-0.831504

> <r_i_glide_lipo>
-2.7627

> <r_i_glide_metal>
0

> <r_i_glide_rewards>
-1.74698

> <s_i_glide_gridfile>
wee1_glide-grid

> <s_m_Source_File>
wee1_decoys_glide_SP.sdf

> <s_m_Source_Path>
/Users/zhangxujun/Desktop

> <s_m_entry_id>
4349

> <s_m_entry_name>
wee1_decoys_glide_SP.4074

> <s_m_subgroup_title>
wee1_decoys_glide_SP

> <s_m_subgroupid>
wee1_decoys_glide_SP


$$$$
