@<TRIPOS>MOLECULE
ZINC20478470_3792
29   31    1
SMALL
USER_CHARGES


@<TRIPOS>ATOM
      1 C1          1.9047   53.6969   26.9288 C.ar      1 UNK         0.0000 
      2 C2          1.7724   53.7177   28.3139 C.ar      1 UNK         0.0000 
      3 C3          0.8656   52.8647   28.9360 C.ar      1 UNK         0.0000 
      4 C4          0.0858   51.9916   28.1806 C.ar      1 UNK         0.0000 
      5 C5          0.2106   51.9754   26.7939 C.ar      1 UNK         0.0000 
      6 C6          1.1202   52.8288   26.1470 C.ar      1 UNK         0.0000 
      7 C7          1.2483   52.7879   24.6363 C.2       1 UNK         0.0000 
      8 O8          0.3483   52.2994   23.9507 O.2       1 UNK         0.0000 
      9 N9          2.3987   53.2827   24.1266 N.am      1 UNK         0.0000 
     10 C10         2.9229   53.1307   22.8318 C.ar      1 UNK         0.0000 
     11 C11         2.6101   52.0444   21.9975 C.ar      1 UNK         0.0000 
     12 C12         3.2397   51.8454   20.7670 C.ar      1 UNK         0.0000 
     13 C13         4.1958   52.7922   20.3894 C.ar      1 UNK         0.0000 
     14 C14         4.5177   53.9082   21.1972 C.ar      1 UNK         0.0000 
     15 C15         3.8803   54.0678   22.4372 C.ar      1 UNK         0.0000 
     16 C16         5.5046   54.6127   20.4429 C.ar      1 UNK         0.0000 
     17 N17         5.7828   53.9998   19.3206 N.2       1 UNK         0.0000 
     18 N18         5.0126   52.8968   19.2817 N.pl3     1 UNK         0.0000 
     19 H19         5.1019   52.2253   18.5209 H         1 UNK         0.0000 
     20 Br20        0.7033   52.8967   30.8309 Br        1 UNK         0.0000 
     21 H21         2.6178   54.3748   26.4825 H         1 UNK         0.0000 
     22 H22         2.3755   54.3936   28.9008 H         1 UNK         0.0000 
     23 H23        -0.6105   51.3242   28.6689 H         1 UNK         0.0000 
     24 H24        -0.4017   51.2853   26.2279 H         1 UNK         0.0000 
     25 H25         3.0039   53.7621   24.7703 H         1 UNK         0.0000 
     26 H26         1.8919   51.3039   22.3167 H         1 UNK         0.0000 
     27 H27         3.0057   50.9937   20.1442 H         1 UNK         0.0000 
     28 H28         4.1369   54.8967   23.0766 H         1 UNK         0.0000 
     29 H29         6.0086   55.5291   20.7072 H         1 UNK         0.0000 
@<TRIPOS>BOND
     1    1    6 ar   
     2    1    2 ar   
     3    1   21 1    
     4    2    3 ar   
     5    2   22 1    
     6    3    4 ar   
     7    3   20 1    
     8    4    5 ar   
     9    4   23 1    
    10    5    6 ar   
    11    5   24 1    
    12    6    7 1    
    13    7    8 2    
    14    7    9 am   BACKBONE|DICT|INTERRES
    15    9   10 1    
    16    9   25 1    
    17   10   15 ar   
    18   10   11 ar   
    19   11   12 ar   
    20   11   26 1    
    21   12   13 ar   
    22   12   27 1    
    23   13   18 ar   
    24   13   14 ar   
    25   14   15 ar   
    26   14   16 ar   
    27   15   28 1    
    28   16   17 ar   
    29   16   29 1    
    30   17   18 ar   
    31   18   19 1    
@<TRIPOS>SUBSTRUCTURE
     1 UNK         1 GROUP             0       ****    0 ROOT    
