@<TRIPOS>MOLECULE
ZINC66678629_4608
49   51    1
SMALL
USER_CHARGES


@<TRIPOS>ATOM
      1 C1          3.1894   51.1877   20.8806 C.3       1 UNK         0.0000 
      2 C2          2.7015   52.5121   21.4899 C.3       1 UNK         0.0000 
      3 C3          1.5528   52.2946   22.4834 C.3       1 UNK         0.0000 
      4 O4          3.7538   53.1309   22.2277 O.3       1 UNK         0.0000 
      5 C5          4.7325   53.8883   21.5996 C.ar      1 UNK         0.0000 
      6 C6          4.7966   54.0918   20.2100 C.ar      1 UNK         0.0000 
      7 C7          5.7914   54.8934   19.6526 C.ar      1 UNK         0.0000 
      8 C8          6.7409   55.4972   20.4702 C.ar      1 UNK         0.0000 
      9 C9          6.7044   55.2964   21.8465 C.ar      1 UNK         0.0000 
     10 C10         5.6997   54.4967   22.4211 C.ar      1 UNK         0.0000 
     11 N11         5.5629   54.2899   23.8077 N.am      1 UNK         0.0000 
     12 C12         6.1942   54.8772   24.8443 C.2       1 UNK         0.0000 
     13 O13         7.1044   55.6968   24.7647 O.2       1 UNK         0.0000 
     14 C14         5.7137   54.4507   26.1984 C.ar      1 UNK         0.0000 
     15 C15         6.6441   54.2273   27.2173 C.ar      1 UNK         0.0000 
     16 C16         6.2213   53.8418   28.4817 C.ar      1 UNK         0.0000 
     17 C17         4.8643   53.6810   28.7509 C.ar      1 UNK         0.0000 
     18 C18         3.9197   53.9086   27.7436 C.ar      1 UNK         0.0000 
     19 C19         4.3461   54.2998   26.4727 C.ar      1 UNK         0.0000 
     20 N20         2.5417   53.7888   27.9547 N.am      1 UNK         0.0000 
     21 C21         1.9280   52.8283   28.6673 C.2       1 UNK         0.0000 
     22 O22         2.4938   51.9348   29.3026 O.2       1 UNK         0.0000 
     23 N23         0.6013   52.9035   28.5064 N.am      1 UNK         0.0000 
     24 C24        -0.2403   51.7220   28.3985 C.3       1 UNK         0.0000 
     25 C25        -1.3478   51.6965   27.3701 C.3       1 UNK         0.0000 
     26 C26        -0.0908   50.8965   27.1385 C.3       1 UNK         0.0000 
     27 F27         7.7000   56.2801   19.9293 F         1 UNK         0.0000 
     28 H28         2.3990   50.7038   20.3063 H         1 UNK         0.0000 
     29 H29         4.0332   51.3344   20.2060 H         1 UNK         0.0000 
     30 H30         3.5045   50.4945   21.6592 H         1 UNK         0.0000 
     31 H31         2.3256   53.1732   20.7087 H         1 UNK         0.0000 
     32 H32         0.6955   51.8269   21.9988 H         1 UNK         0.0000 
     33 H33         1.8590   51.6555   23.3124 H         1 UNK         0.0000 
     34 H34         1.2170   53.2435   22.9025 H         1 UNK         0.0000 
     35 H35         4.0820   53.6407   19.5393 H         1 UNK         0.0000 
     36 H36         5.8275   55.0464   18.5840 H         1 UNK         0.0000 
     37 H37         7.4713   55.7700   22.4383 H         1 UNK         0.0000 
     38 H38         4.8398   53.6260   24.0432 H         1 UNK         0.0000 
     39 H39         7.7019   54.3506   27.0416 H         1 UNK         0.0000 
     40 H40         6.9565   53.6942   29.2594 H         1 UNK         0.0000 
     41 H41         4.5529   53.3921   29.7426 H         1 UNK         0.0000 
     42 H42         3.6113   54.4859   25.7014 H         1 UNK         0.0000 
     43 H43         1.9565   54.3606   27.3665 H         1 UNK         0.0000 
     44 H44         0.1487   53.8038   28.4840 H         1 UNK         0.0000 
     45 H45        -0.3917   51.1904   29.3411 H         1 UNK         0.0000 
     46 H46        -2.2671   51.1639   27.6181 H         1 UNK         0.0000 
     47 H47        -1.5309   52.5869   26.7680 H         1 UNK         0.0000 
     48 H48         0.6122   51.2217   26.3708 H         1 UNK         0.0000 
     49 H49        -0.0972   49.8117   27.2512 H         1 UNK         0.0000 
@<TRIPOS>BOND
     1    1    2 1    
     2    1   28 1    
     3    1   29 1    
     4    1   30 1    
     5    2    3 1    
     6    2    4 1    
     7    2   31 1    
     8    3   32 1    
     9    3   33 1    
    10    3   34 1    
    11    4    5 1    
    12    5   10 ar   
    13    5    6 ar   
    14    6    7 ar   
    15    6   35 1    
    16    7    8 ar   
    17    7   36 1    
    18    8    9 ar   
    19    8   27 1    
    20    9   10 ar   
    21    9   37 1    
    22   10   11 1    
    23   11   12 am   BACKBONE|DICT|INTERRES
    24   11   38 1    
    25   12   13 2    
    26   12   14 1    
    27   14   19 ar   
    28   14   15 ar   
    29   15   16 ar   
    30   15   39 1    
    31   16   17 ar   
    32   16   40 1    
    33   17   18 ar   
    34   17   41 1    
    35   18   19 ar   
    36   18   20 1    
    37   19   42 1    
    38   20   21 am   BACKBONE|DICT|INTERRES
    39   20   43 1    
    40   21   22 2    
    41   21   23 am   BACKBONE|DICT|INTERRES
    42   23   24 1    
    43   23   44 1    
    44   24   26 1    
    45   24   25 1    
    46   24   45 1    
    47   25   26 1    
    48   25   46 1    
    49   25   47 1    
    50   26   48 1    
    51   26   49 1    
@<TRIPOS>SUBSTRUCTURE
     1 UNK         1 GROUP             0       ****    0 ROOT    
