@<TRIPOS>MOLECULE
ZINC44838634_5663
49   51    1
SMALL
USER_CHARGES


@<TRIPOS>ATOM
      1 C1          1.8563   59.1859   15.5777 C.3       1 UNK         0.0000 
      2 C2          2.5894   57.9819   16.1413 C.ar      1 UNK         0.0000 
      3 C3          1.9144   56.7726   16.3313 C.ar      1 UNK         0.0000 
      4 C4          2.5959   55.6721   16.8504 C.ar      1 UNK         0.0000 
      5 C5          3.9474   55.7836   17.1946 C.ar      1 UNK         0.0000 
      6 C6          4.6152   57.0022   17.0187 C.ar      1 UNK         0.0000 
      7 C7          3.9339   58.1000   16.4986 C.ar      1 UNK         0.0000 
      8 S8          4.8632   54.3204   17.7145 S.o2      1 UNK         0.0000 
      9 O9          5.6354   53.9741   16.5163 O.2       1 UNK         0.0000 
     10 O10         3.8391   53.3607   18.1386 O.2       1 UNK         0.0000 
     11 N11         5.7661   54.9239   18.8513 N.2       1 UNK         0.0000 
     12 C12         5.6322   54.7679   20.2135 C.ar      1 UNK         0.0000 
     13 C13         4.4993   54.2499   20.8642 C.ar      1 UNK         0.0000 
     14 C14         4.4488   54.0966   22.2483 C.ar      1 UNK         0.0000 
     15 C15         5.5280   54.4965   23.0550 C.ar      1 UNK         0.0000 
     16 C16         6.6567   55.0171   22.4217 C.ar      1 UNK         0.0000 
     17 C17         6.7165   55.1437   21.0347 C.ar      1 UNK         0.0000 
     18 Cl18        8.2264   55.6975   20.3775 Cl        1 UNK         0.0000 
     19 C19         5.5000   54.4015   24.5659 C.2       1 UNK         0.0000 
     20 O20         6.5342   54.5366   25.2232 O.2       1 UNK         0.0000 
     21 N21         4.2739   54.1994   25.0964 N.am      1 UNK         0.0000 
     22 C22         3.8979   53.8908   26.4106 C.ar      1 UNK         0.0000 
     23 C23         2.5273   53.7114   26.6087 C.ar      1 UNK         0.0000 
     24 C24         2.0415   53.3434   27.8560 C.ar      1 UNK         0.0000 
     25 C25         2.9278   53.1253   28.9208 C.ar      1 UNK         0.0000 
     26 C26         4.3030   53.3016   28.7190 C.ar      1 UNK         0.0000 
     27 C27         4.7886   53.6979   27.4775 C.ar      1 UNK         0.0000 
     28 C28         2.4296   52.6714   30.2517 C.2       1 UNK         0.0000 
     29 O29         3.1397   52.0995   31.0856 O.2       1 UNK         0.0000 
     30 O30         1.1484   53.0405   30.4750 O.3       1 UNK         0.0000 
     31 C31         0.5157   52.7668   31.7132 C.3       1 UNK         0.0000 
     32 H32         0.7856   59.1372   15.7862 H         1 UNK         0.0000 
     33 H33         2.2246   60.1064   16.0376 H         1 UNK         0.0000 
     34 H34         2.0082   59.2561   14.5001 H         1 UNK         0.0000 
     35 H35         0.8697   56.6805   16.0660 H         1 UNK         0.0000 
     36 H36         2.0773   54.7304   16.9697 H         1 UNK         0.0000 
     37 H37         5.6655   57.0923   17.2612 H         1 UNK         0.0000 
     38 H38         4.4533   59.0404   16.3663 H         1 UNK         0.0000 
     39 H39         3.6152   53.9609   20.3170 H         1 UNK         0.0000 
     40 H40         3.5439   53.6833   22.6701 H         1 UNK         0.0000 
     41 H41         7.5049   55.3311   23.0111 H         1 UNK         0.0000 
     42 H42         3.5133   54.2044   24.4374 H         1 UNK         0.0000 
     43 H43         1.8294   53.8483   25.7952 H         1 UNK         0.0000 
     44 H44         0.9733   53.2067   27.9729 H         1 UNK         0.0000 
     45 H45         5.0069   53.1344   29.5227 H         1 UNK         0.0000 
     46 H46         5.8563   53.8148   27.3684 H         1 UNK         0.0000 
     47 H47        -0.4989   53.1599   31.6915 H         1 UNK         0.0000 
     48 H48         1.0400   53.2408   32.5427 H         1 UNK         0.0000 
     49 H49         0.4623   51.6968   31.9054 H         1 UNK         0.0000 
@<TRIPOS>BOND
     1    1    2 1    
     2    1   32 1    
     3    1   33 1    
     4    1   34 1    
     5    2    7 ar   
     6    2    3 ar   
     7    3    4 ar   
     8    3   35 1    
     9    4    5 ar   
    10    4   36 1    
    11    5    6 ar   
    12    5    8 1    
    13    6    7 ar   
    14    6   37 1    
    15    7   38 1    
    16    8    9 2    
    17    8   10 2    
    18    8   11 1    
    19   11   12 1    
    20   12   17 ar   
    21   12   13 ar   
    22   13   14 ar   
    23   13   39 1    
    24   14   15 ar   
    25   14   40 1    
    26   15   16 ar   
    27   15   19 1    
    28   16   17 ar   
    29   16   41 1    
    30   17   18 1    
    31   19   20 2    
    32   19   21 am   BACKBONE|DICT|INTERRES
    33   21   22 1    
    34   21   42 1    
    35   22   27 ar   
    36   22   23 ar   
    37   23   24 ar   
    38   23   43 1    
    39   24   25 ar   
    40   24   44 1    
    41   25   26 ar   
    42   25   28 1    
    43   26   27 ar   
    44   26   45 1    
    45   27   46 1    
    46   28   29 2    
    47   28   30 1    
    48   30   31 1    
    49   31   47 1    
    50   31   48 1    
    51   31   49 1    
@<TRIPOS>SUBSTRUCTURE
     1 UNK         1 GROUP             0       ****    0 ROOT    
