@<TRIPOS>MOLECULE
ZINC19753973_6139
30   32    1
SMALL
USER_CHARGES


@<TRIPOS>ATOM
      1 C1          0.9664   52.4971   31.0222 C.ar      1 UNK         0.0000 
      2 C2          0.6709   53.2851   29.9150 C.ar      1 UNK         0.0000 
      3 C3          1.6931   53.6836   29.0585 C.ar      1 UNK         0.0000 
      4 C4          3.0158   53.2941   29.3075 C.ar      1 UNK         0.0000 
      5 C5          3.2985   52.4963   30.4227 C.ar      1 UNK         0.0000 
      6 C6          2.2756   52.0979   31.2812 C.ar      1 UNK         0.0000 
      7 C7          4.1232   53.6932   28.4140 C.2       1 UNK         0.0000 
      8 C8          4.0138   54.0854   27.1282 C.2       1 UNK         0.0000 
      9 C9          5.1126   54.4871   26.2624 C.ar      1 UNK         0.0000 
     10 N10         6.3065   54.8947   26.6528 N.2       1 UNK         0.0000 
     11 N11         7.1041   55.1524   25.5537 N.2       1 UNK         0.0000 
     12 C12         6.3651   54.8583   24.4663 C.ar      1 UNK         0.0000 
     13 N13         5.0832   54.4492   24.8775 N.pl3     1 UNK         0.0000 
     14 C14         4.1161   54.0943   23.9682 C.ar      1 UNK         0.0000 
     15 C15         4.4259   54.0969   22.6111 C.ar      1 UNK         0.0000 
     16 C16         5.6905   54.4928   22.1812 C.ar      1 UNK         0.0000 
     17 C17         6.6700   54.8908   23.0939 C.ar      1 UNK         0.0000 
     18 N18         3.4729   53.6944   21.6844 N.pl3     1 UNK         0.0000 
     19 H19         0.1681   52.1871   31.6818 H         1 UNK         0.0000 
     20 H20        -0.3485   53.5844   29.7218 H         1 UNK         0.0000 
     21 H21         1.4467   54.3022   28.2086 H         1 UNK         0.0000 
     22 H22         4.3116   52.1838   30.6305 H         1 UNK         0.0000 
     23 H23         2.4904   51.4970   32.1526 H         1 UNK         0.0000 
     24 H24         5.1107   53.6779   28.8541 H         1 UNK         0.0000 
     25 H25         3.0449   54.1021   26.6544 H         1 UNK         0.0000 
     26 H26         3.1599   53.7831   24.3589 H         1 UNK         0.0000 
     27 H27         5.9193   54.4961   21.1245 H         1 UNK         0.0000 
     28 H28         7.6458   55.2014   22.7544 H         1 UNK         0.0000 
     29 H29         2.5355   53.5273   22.0169 H         1 UNK         0.0000 
     30 H30         3.5930   53.9915   20.7253 H         1 UNK         0.0000 
@<TRIPOS>BOND
     1    1    6 ar   
     2    1    2 ar   
     3    1   19 1    
     4    2    3 ar   
     5    2   20 1    
     6    3    4 ar   
     7    3   21 1    
     8    4    5 ar   
     9    4    7 1    
    10    5    6 ar   
    11    5   22 1    
    12    6   23 1    
    13    7    8 2    
    14    7   24 1    
    15    8    9 1    
    16    8   25 1    
    17    9   13 ar   
    18    9   10 ar   
    19   10   11 ar   
    20   11   12 ar   
    21   12   17 ar   
    22   12   13 ar   
    23   13   14 ar   
    24   14   15 ar   
    25   14   26 1    
    26   15   16 ar   
    27   15   18 1    
    28   16   17 ar   
    29   16   27 1    
    30   17   28 1    
    31   18   29 1    
    32   18   30 1    
@<TRIPOS>SUBSTRUCTURE
     1 UNK         1 GROUP             0       ****    0 ROOT    
