@<TRIPOS>MOLECULE
ZINC63514451_5117
70   74    1
SMALL
USER_CHARGES


@<TRIPOS>ATOM
      1 C1          2.3026   52.3765   31.1711 C.3       1 UNK         0.0000 
      2 C2          2.8398   52.6286   29.7453 C.3       1 UNK         0.0000 
      3 N3          1.8100   52.5647   28.7026 N.pl3     1 UNK         0.0000 
      4 C4          1.2334   51.2287   28.6535 C.3       1 UNK         0.0000 
      5 C5          0.3849   51.1711   27.3946 C.3       1 UNK         0.0000 
      6 H6          0.5018   50.1880   26.9349 H         1 UNK         0.0000 
      7 C7          1.0956   52.2232   26.5751 C.ar      1 UNK         0.0000 
      8 C8          2.0085   52.9368   27.3682 C.ar      1 UNK         0.0000 
      9 C9          2.8389   53.8993   26.7938 C.ar      1 UNK         0.0000 
     10 C10         2.8158   54.0959   25.4124 C.ar      1 UNK         0.0000 
     11 C11         1.9197   53.3834   24.6168 C.ar      1 UNK         0.0000 
     12 C12         1.0585   52.4516   25.1954 C.ar      1 UNK         0.0000 
     13 C13        -1.0966   51.3918   27.7000 C.2       1 UNK         0.0000 
     14 C14        -2.1405   51.1500   26.8699 C.2       1 UNK         0.0000 
     15 C15        -3.5010   51.2380   27.3970 C.2       1 UNK         0.0000 
     16 O16        -4.4113   51.8674   26.8593 O.2       1 UNK         0.0000 
     17 N17        -3.6961   50.5096   28.5167 N.am      1 UNK         0.0000 
     18 C18        -4.9776   50.3379   29.2034 C.3       1 UNK         0.0000 
     19 C19        -5.9672   49.3979   28.4693 C.3       1 UNK         0.0000 
     20 C20        -5.5454   47.9398   28.3040 C.2       1 UNK         0.0000 
     21 C21        -6.2851   46.8171   28.2072 C.2       1 UNK         0.0000 
     22 C22        -7.7437   46.6235   28.2096 C.2       1 UNK         0.0000 
     23 C23        -8.2751   45.3891   28.0944 C.2       1 UNK         0.0000 
     24 C24        -7.3662   44.2592   27.9601 C.2       1 UNK         0.0000 
     25 C25        -6.0155   44.4190   27.9557 C.2       1 UNK         0.0000 
     26 C26        -5.4544   45.6969   28.0822 C.2       1 UNK         0.0000 
     27 N27        -4.1936   46.0481   28.1220 N.pl3     1 UNK         0.0000 
     28 C28        -4.0956   47.5034   28.2795 C.3       1 UNK         0.0000 
     29 N29        -1.9193   50.7435   25.5782 N.am      1 UNK         0.0000 
     30 C30        -2.3740   51.2966   24.4303 C.2       1 UNK         0.0000 
     31 O31        -3.1156   52.2797   24.3624 O.2       1 UNK         0.0000 
     32 C32        -1.8297   50.6656   23.1715 C.ar      1 UNK         0.0000 
     33 C33        -1.5836   49.2856   23.0998 C.ar      1 UNK         0.0000 
     34 C34        -1.0669   48.7246   21.9358 C.ar      1 UNK         0.0000 
     35 C35        -0.7817   49.5355   20.8373 C.ar      1 UNK         0.0000 
     36 C36        -1.0356   50.9058   20.8934 C.ar      1 UNK         0.0000 
     37 C37        -1.5625   51.4665   22.0537 C.ar      1 UNK         0.0000 
     38 C38        -0.2112   48.9284   19.5688 C.3       1 UNK         0.0000 
     39 H39         3.0991   52.4932   31.9092 H         1 UNK         0.0000 
     40 H40         1.5003   53.0739   31.4219 H         1 UNK         0.0000 
     41 H41         1.9041   51.3709   31.3077 H         1 UNK         0.0000 
     42 H42         3.6589   51.9467   29.5019 H         1 UNK         0.0000 
     43 H43         3.2874   53.6242   29.7094 H         1 UNK         0.0000 
     44 H44         2.0384   50.4973   28.6062 H         1 UNK         0.0000 
     45 H45         0.6532   51.0013   29.5466 H         1 UNK         0.0000 
     46 H46         3.5201   54.4766   27.4025 H         1 UNK         0.0000 
     47 H47         3.4805   54.8204   24.9616 H         1 UNK         0.0000 
     48 H48         1.9013   53.5434   23.5484 H         1 UNK         0.0000 
     49 H49         0.4026   51.8900   24.5498 H         1 UNK         0.0000 
     50 H50        -1.2964   51.7498   28.7028 H         1 UNK         0.0000 
     51 H51        -2.9162   49.9605   28.8627 H         1 UNK         0.0000 
     52 H52        -4.7585   49.9353   30.1943 H         1 UNK         0.0000 
     53 H53        -5.4378   51.3146   29.3649 H         1 UNK         0.0000 
     54 H54        -6.9226   49.4114   28.9925 H         1 UNK         0.0000 
     55 H55        -6.1715   49.8047   27.4783 H         1 UNK         0.0000 
     56 H56        -8.4239   47.4592   28.3058 H         1 UNK         0.0000 
     57 H57        -9.3461   45.2380   28.0986 H         1 UNK         0.0000 
     58 H58        -7.7834   43.2649   27.8616 H         1 UNK         0.0000 
     59 H59        -5.3850   43.5464   27.8513 H         1 UNK         0.0000 
     60 H60        -3.5188   47.8973   27.4406 H         1 UNK         0.0000 
     61 H61        -3.5692   47.7010   29.2162 H         1 UNK         0.0000 
     62 H62        -1.0931   50.1803   25.4506 H         1 UNK         0.0000 
     63 H63        -1.7982   48.6350   23.9362 H         1 UNK         0.0000 
     64 H64        -0.8906   47.6592   21.8885 H         1 UNK         0.0000 
     65 H65        -0.8209   51.5343   20.0409 H         1 UNK         0.0000 
     66 H66        -1.7507   52.5305   22.0848 H         1 UNK         0.0000 
     67 H67        -0.6056   49.4337   18.6859 H         1 UNK         0.0000 
     68 H68         0.8767   49.0172   19.5549 H         1 UNK         0.0000 
     69 H69        -0.4831   47.8763   19.4766 H         1 UNK         0.0000 
     70 H70        -3.3942   45.4148   28.0815 H         1 UNK         0.0000 
@<TRIPOS>BOND
     1    1    2 1    
     2    1   39 1    
     3    1   40 1    
     4    1   41 1    
     5    2    3 1    
     6    2   42 1    
     7    2   43 1    
     8    3    8 1    
     9    3    4 1    
    10    4    5 1    
    11    4   44 1    
    12    4   45 1    
    13    5    6 1    
    14    5    7 1    
    15    5   13 1    
    16    7   12 ar   
    17    7    8 ar   
    18    8    9 ar   
    19    9   10 ar   
    20    9   46 1    
    21   10   11 ar   
    22   10   47 1    
    23   11   12 ar   
    24   11   48 1    
    25   12   49 1    
    26   13   14 2    
    27   13   50 1    
    28   14   15 1    
    29   14   29 1    
    30   15   16 2    
    31   15   17 am   BACKBONE|DICT|INTERRES
    32   17   18 1    
    33   17   51 1    
    34   18   19 1    
    35   18   52 1    
    36   18   53 1    
    37   19   20 1    
    38   19   54 1    
    39   19   55 1    
    40   20   28 1    
    41   20   21 2    
    42   21   26 1    
    43   21   22 1    
    44   22   23 2    
    45   22   56 1    
    46   23   24 1    
    47   23   57 1    
    48   24   25 2    
    49   24   58 1    
    50   25   26 1    
    51   25   59 1    
    52   26   27 2    
    53   27   28 1    
    54   27   70 1    
    55   28   60 1    
    56   28   61 1    
    57   29   30 am   BACKBONE|DICT|INTERRES
    58   29   62 1    
    59   30   31 2    
    60   30   32 1    
    61   32   37 ar   
    62   32   33 ar   
    63   33   34 ar   
    64   33   63 1    
    65   34   35 ar   
    66   34   64 1    
    67   35   36 ar   
    68   35   38 1    
    69   36   37 ar   
    70   36   65 1    
    71   37   66 1    
    72   38   67 1    
    73   38   68 1    
    74   38   69 1    
@<TRIPOS>SUBSTRUCTURE
     1 UNK         1 GROUP             0       ****    0 ROOT    
