@<TRIPOS>MOLECULE
ZINC39977440_1205
44   47    1
SMALL
USER_CHARGES


@<TRIPOS>ATOM
      1 C1          0.1714   53.0204   30.8406 C.2       1 UNK         0.0000 
      2 C2          1.0886   53.9848   30.2308 C.2       1 UNK         0.0000 
      3 C3          1.3526   53.9244   28.9027 C.2       1 UNK         0.0000 
      4 C4          0.7162   52.9633   28.0253 C.2       1 UNK         0.0000 
      5 N5          0.9560   52.8965   26.7628 N.2       1 UNK         0.0000 
      6 C6          0.2486   52.0609   25.8869 C.2       1 UNK         0.0000 
      7 N7          0.3524   52.0666   24.6208 N.2       1 UNK         0.0000 
      8 S8          1.5689   53.0751   23.8540 S.o2      1 UNK         0.0000 
      9 O9          1.1044   54.3403   23.2816 O.2       1 UNK         0.0000 
     10 O10         2.9124   53.1110   24.4379 O.2       1 UNK         0.0000 
     11 C11         1.7432   51.9651   22.4412 C.ar      1 UNK         0.0000 
     12 C12         1.2589   52.3273   21.1809 C.ar      1 UNK         0.0000 
     13 C13         1.3267   51.4278   20.1192 C.ar      1 UNK         0.0000 
     14 C14         1.8638   50.1587   20.3218 C.ar      1 UNK         0.0000 
     15 C15         2.3515   49.7912   21.5720 C.ar      1 UNK         0.0000 
     16 C16         2.3041   50.6976   22.6258 C.ar      1 UNK         0.0000 
     17 Br17        1.9125   48.9058   18.8910 Br        1 UNK         0.0000 
     18 C18        -0.8106   51.0773   26.4860 C.3       1 UNK         0.0000 
     19 H19        -1.7786   51.4059   26.1027 H         1 UNK         0.0000 
     20 N20        -0.9843   51.2145   27.9693 N.pl3     1 UNK         0.0000 
     21 C21        -0.2972   52.0544   28.7231 C.2       1 UNK         0.0000 
     22 C22        -0.4952   52.0967   30.1012 C.2       1 UNK         0.0000 
     23 N23        -0.6194   49.6768   26.0817 N.pl3     1 UNK         0.0000 
     24 C24        -1.2416   49.2590   24.8943 C.ar      1 UNK         0.0000 
     25 C25        -0.4329   48.9505   23.7983 C.ar      1 UNK         0.0000 
     26 C26        -0.9979   48.5360   22.5927 C.ar      1 UNK         0.0000 
     27 C27        -2.3805   48.4007   22.4836 C.ar      1 UNK         0.0000 
     28 C28        -3.1953   48.6716   23.5829 C.ar      1 UNK         0.0000 
     29 C29        -2.6350   49.0935   24.7907 C.ar      1 UNK         0.0000 
     30 Cl30       -3.6959   49.3944   26.1266 Cl        1 UNK         0.0000 
     31 H31         0.0144   53.0322   31.9129 H         1 UNK         0.0000 
     32 H32         1.5208   54.7647   30.8386 H         1 UNK         0.0000 
     33 H33         2.0288   54.6548   28.4804 H         1 UNK         0.0000 
     34 H34         0.8157   53.2962   21.0183 H         1 UNK         0.0000 
     35 H35         0.9539   51.7091   19.1451 H         1 UNK         0.0000 
     36 H36         2.7650   48.8047   21.7248 H         1 UNK         0.0000 
     37 H37         2.6647   50.3927   23.5975 H         1 UNK         0.0000 
     38 H38        -1.1656   51.3922   30.5827 H         1 UNK         0.0000 
     39 H39        -0.9079   49.0641   26.8454 H         1 UNK         0.0000 
     40 H40         0.6399   49.0282   23.8884 H         1 UNK         0.0000 
     41 H41        -0.3643   48.3170   21.7455 H         1 UNK         0.0000 
     42 H42        -2.8199   48.0787   21.5506 H         1 UNK         0.0000 
     43 H43        -4.2659   48.5517   23.4998 H         1 UNK         0.0000 
     44 H44        -1.6365   50.5740   28.4224 H         1 UNK         0.0000 
@<TRIPOS>BOND
     1    1   22 2    
     2    1    2 1    
     3    1   31 1    
     4    2    3 2    
     5    2   32 1    
     6    3    4 1    
     7    3   33 1    
     8    4   21 1    
     9    4    5 2    
    10    5    6 1    
    11    6    7 2    
    12    6   18 1    
    13    7    8 1    
    14    8    9 2    
    15    8   10 2    
    16    8   11 1    
    17   11   16 ar   
    18   11   12 ar   
    19   12   13 ar   
    20   12   34 1    
    21   13   14 ar   
    22   13   35 1    
    23   14   15 ar   
    24   14   17 1    
    25   15   16 ar   
    26   15   36 1    
    27   16   37 1    
    28   18   19 1    
    29   18   20 1    
    30   18   23 1    
    31   20   21 2    
    32   20   44 1    
    33   21   22 1    
    34   22   38 1    
    35   23   24 1    
    36   23   39 1    
    37   24   29 ar   
    38   24   25 ar   
    39   25   26 ar   
    40   25   40 1    
    41   26   27 ar   
    42   26   41 1    
    43   27   28 ar   
    44   27   42 1    
    45   28   29 ar   
    46   28   43 1    
    47   29   30 1    
@<TRIPOS>SUBSTRUCTURE
     1 UNK         1 GROUP             0       ****    0 ROOT    
