@<TRIPOS>MOLECULE
ZINC24352171_2309
61   64    1
SMALL
USER_CHARGES


@<TRIPOS>ATOM
      1 C1          0.8835   54.4460   29.6663 C.3       1 UNK         0.0000 
      2 C2          1.5402   53.0875   29.3094 C.3       1 UNK         0.0000 
      3 C3          1.8624   52.3354   30.6228 C.3       1 UNK         0.0000 
      4 C4          0.4945   52.2259   28.5544 C.3       1 UNK         0.0000 
      5 C5          2.8540   53.2656   28.4517 C.3       1 UNK         0.0000 
      6 H6          3.3383   52.2856   28.4429 H         1 UNK         0.0000 
      7 C7          3.8670   54.2702   29.0763 C.3       1 UNK         0.0000 
      8 C8          5.2585   54.1773   28.4226 C.3       1 UNK         0.0000 
      9 C9          5.0741   54.2543   26.9162 C.2       1 UNK         0.0000 
     10 C10         3.8650   54.0375   26.2441 C.2       1 UNK         0.0000 
     11 C11         4.0261   54.0852   24.8513 C.2       1 UNK         0.0000 
     12 C12         5.3419   54.3098   24.4436 C.2       1 UNK         0.0000 
     13 S13         6.3907   54.4991   25.8183 S.3       1 UNK         0.0000 
     14 C14         5.9049   54.2844   23.1153 C.2       1 UNK         0.0000 
     15 O15         7.1052   54.0947   22.9347 O.2       1 UNK         0.0000 
     16 N16         5.0152   54.4954   22.1176 N.am      1 UNK         0.0000 
     17 N17         5.4226   54.7082   20.7788 N.am      1 UNK         0.0000 
     18 C18         6.1579   55.7984   20.4400 C.2       1 UNK         0.0000 
     19 O19         6.6900   56.5485   21.2630 O.2       1 UNK         0.0000 
     20 C20         6.2175   56.1489   18.9729 C.ar      1 UNK         0.0000 
     21 C21         6.1373   55.1781   17.9646 C.ar      1 UNK         0.0000 
     22 C22         6.1207   55.5632   16.6244 C.ar      1 UNK         0.0000 
     23 C23         6.1640   56.9154   16.2755 C.ar      1 UNK         0.0000 
     24 C24         6.2629   57.8818   17.2789 C.ar      1 UNK         0.0000 
     25 C25         6.3043   57.4995   18.6115 C.ar      1 UNK         0.0000 
     26 N26         6.1171   57.2648   14.9137 N.pl3     1 UNK         0.0000 
     27 C27         5.3127   58.4114   14.4973 C.3       1 UNK         0.0000 
     28 C28         6.2098   59.6658   14.3936 C.3       1 UNK         0.0000 
     29 C29         7.6915   59.2344   14.4241 C.3       1 UNK         0.0000 
     30 S30         7.6350   57.4066   14.0175 S.o2      1 UNK         0.0000 
     31 O31         8.7367   56.6979   14.6778 O.2       1 UNK         0.0000 
     32 O32         7.4240   57.3041   12.5679 O.2       1 UNK         0.0000 
     33 C33         2.5706   53.6702   26.9696 C.3       1 UNK         0.0000 
     34 H34        -0.0811   54.3076   30.1593 H         1 UNK         0.0000 
     35 H35         0.7047   55.0566   28.7827 H         1 UNK         0.0000 
     36 H36         1.5008   55.0353   30.3454 H         1 UNK         0.0000 
     37 H37         2.3547   51.3890   30.4063 H         1 UNK         0.0000 
     38 H38         2.5213   52.8958   31.2827 H         1 UNK         0.0000 
     39 H39         0.9600   52.1108   31.1951 H         1 UNK         0.0000 
     40 H40         0.9200   51.2784   28.2205 H         1 UNK         0.0000 
     41 H41        -0.3629   51.9809   29.1849 H         1 UNK         0.0000 
     42 H42         0.0949   52.7370   27.6786 H         1 UNK         0.0000 
     43 H43         3.4734   55.2882   29.0628 H         1 UNK         0.0000 
     44 H44         4.0104   54.0499   30.1329 H         1 UNK         0.0000 
     45 H45         5.9055   54.9728   28.7925 H         1 UNK         0.0000 
     46 H46         5.7282   53.2296   28.6897 H         1 UNK         0.0000 
     47 H47         3.2082   53.9054   24.1684 H         1 UNK         0.0000 
     48 H48         4.0722   54.8142   22.2860 H         1 UNK         0.0000 
     49 H49         5.3308   53.8875   20.1984 H         1 UNK         0.0000 
     50 H50         6.0817   54.1248   18.2011 H         1 UNK         0.0000 
     51 H51         6.0524   54.8081   15.8541 H         1 UNK         0.0000 
     52 H52         6.3010   58.9339   17.0402 H         1 UNK         0.0000 
     53 H53         6.3543   58.2762   19.3619 H         1 UNK         0.0000 
     54 H54         4.7046   58.2293   13.6122 H         1 UNK         0.0000 
     55 H55         4.5520   58.6398   15.2476 H         1 UNK         0.0000 
     56 H56         5.9731   60.2014   13.4738 H         1 UNK         0.0000 
     57 H57         5.9913   60.3734   15.1971 H         1 UNK         0.0000 
     58 H58         8.2971   59.7397   13.6734 H         1 UNK         0.0000 
     59 H59         8.1588   59.3661   15.3987 H         1 UNK         0.0000 
     60 H60         2.0926   52.8456   26.4386 H         1 UNK         0.0000 
     61 H61         1.8674   54.4963   26.9195 H         1 UNK         0.0000 
@<TRIPOS>BOND
     1    1    2 1    
     2    1   34 1    
     3    1   35 1    
     4    1   36 1    
     5    2    3 1    
     6    2    4 1    
     7    2    5 1    
     8    3   37 1    
     9    3   38 1    
    10    3   39 1    
    11    4   40 1    
    12    4   41 1    
    13    4   42 1    
    14    5    6 1    
    15    5   33 1    
    16    5    7 1    
    17    7    8 1    
    18    7   43 1    
    19    7   44 1    
    20    8    9 1    
    21    8   45 1    
    22    8   46 1    
    23    9   13 1    
    24    9   10 2    
    25   10   11 1    
    26   10   33 1    
    27   11   12 2    
    28   11   47 1    
    29   12   13 1    
    30   12   14 1    
    31   14   15 2    
    32   14   16 am   BACKBONE|DICT|INTERRES
    33   16   17 1    
    34   16   48 1    
    35   17   18 am   BACKBONE|DICT|INTERRES
    36   17   49 1    
    37   18   19 2    
    38   18   20 1    
    39   20   25 ar   
    40   20   21 ar   
    41   21   22 ar   
    42   21   50 1    
    43   22   23 ar   
    44   22   51 1    
    45   23   24 ar   
    46   23   26 1    
    47   24   25 ar   
    48   24   52 1    
    49   25   53 1    
    50   26   30 1    
    51   26   27 1    
    52   27   28 1    
    53   27   54 1    
    54   27   55 1    
    55   28   29 1    
    56   28   56 1    
    57   28   57 1    
    58   29   30 1    
    59   29   58 1    
    60   29   59 1    
    61   30   31 2    
    62   30   32 2    
    63   33   60 1    
    64   33   61 1    
@<TRIPOS>SUBSTRUCTURE
     1 UNK         1 GROUP             0       ****    0 ROOT    
