@<TRIPOS>MOLECULE
ZINC40960757_5355
60   64    1
SMALL
USER_CHARGES


@<TRIPOS>ATOM
      1 C1         -1.5705   51.2984   28.9361 C.ar      1 UNK         0.0000 
      2 C2         -0.4160   51.8456   29.4976 C.ar      1 UNK         0.0000 
      3 C3          0.5844   52.3906   28.6808 C.ar      1 UNK         0.0000 
      4 C4          0.3771   52.4024   27.2923 C.ar      1 UNK         0.0000 
      5 C5         -0.7794   51.8593   26.7197 C.ar      1 UNK         0.0000 
      6 C6         -1.7495   51.2968   27.5554 C.ar      1 UNK         0.0000 
      7 C7         -0.9653   51.8543   25.2024 C.3       1 UNK         0.0000 
      8 F8         -2.2586   51.8957   24.8708 F         1 UNK         0.0000 
      9 F9         -0.3584   52.8956   24.6272 F         1 UNK         0.0000 
     10 F10        -0.4338   50.7359   24.7072 F         1 UNK         0.0000 
     11 C11         1.8836   52.8879   29.2495 C.2       1 UNK         0.0000 
     12 N12         2.6762   53.6869   28.5616 N.2       1 UNK         0.0000 
     13 C13         3.7769   53.6755   29.2639 C.2       1 UNK         0.0000 
     14 O14         3.6463   53.0147   30.4395 O.3       1 UNK         0.0000 
     15 N15         2.3502   52.4970   30.4204 N.2       1 UNK         0.0000 
     16 C16         5.1572   54.2025   28.8795 C.3       1 UNK         0.0000 
     17 N17         5.2384   54.5591   27.3679 N.4       1 UNK         0.0000 
     18 C18         5.0517   53.3077   26.4811 C.3       1 UNK         0.0000 
     19 C19         5.0142   53.7646   25.0141 C.3       1 UNK         0.0000 
     20 C20         6.2933   54.5048   24.5634 C.3       1 UNK         0.0000 
     21 C21         6.5766   55.6539   25.5502 C.3       1 UNK         0.0000 
     22 C22         6.5967   55.2212   27.0334 C.3       1 UNK         0.0000 
     23 N23         6.3043   54.9786   23.1788 N.am      1 UNK         0.0000 
     24 C24         5.8883   54.3237   22.0811 C.2       1 UNK         0.0000 
     25 O25         5.5038   53.1550   22.0852 O.2       1 UNK         0.0000 
     26 C26         5.9040   55.1072   20.8694 C.2       1 UNK         0.0000 
     27 C27         6.5153   56.3356   20.6053 C.2       1 UNK         0.0000 
     28 C28         6.3319   56.7932   19.2936 C.2       1 UNK         0.0000 
     29 C29         5.5585   55.9044   18.5385 C.2       1 UNK         0.0000 
     30 S30         5.1088   54.4967   19.4457 S.3       1 UNK         0.0000 
     31 C31         5.0943   56.1481   17.1100 C.3       1 UNK         0.0000 
     32 C32         5.9383   57.2812   16.4870 C.3       1 UNK         0.0000 
     33 C33         6.0903   58.4848   17.4364 C.3       1 UNK         0.0000 
     34 C34         6.8395   58.1220   18.7394 C.3       1 UNK         0.0000 
     35 H35        -2.3101   50.8391   29.5777 H         1 UNK         0.0000 
     36 H36        -0.2956   51.8072   30.5712 H         1 UNK         0.0000 
     37 H37         1.1380   52.8054   26.6398 H         1 UNK         0.0000 
     38 H38        -2.6352   50.8311   27.1441 H         1 UNK         0.0000 
     39 H39         5.9437   53.4592   29.0275 H         1 UNK         0.0000 
     40 H40         5.4215   55.1118   29.4247 H         1 UNK         0.0000 
     41 H41         5.8578   52.6156   26.7168 H         1 UNK         0.0000 
     42 H42         4.0966   52.8481   26.7200 H         1 UNK         0.0000 
     43 H43         4.1468   54.4115   24.8688 H         1 UNK         0.0000 
     44 H44         4.8431   52.8973   24.3856 H         1 UNK         0.0000 
     45 H45         7.1125   53.7841   24.6354 H         1 UNK         0.0000 
     46 H46         7.5041   56.1446   25.2799 H         1 UNK         0.0000 
     47 H47         5.8023   56.4099   25.4134 H         1 UNK         0.0000 
     48 H48         7.3859   54.5005   27.2648 H         1 UNK         0.0000 
     49 H49         6.7042   56.0927   27.6817 H         1 UNK         0.0000 
     50 H50         6.5764   55.9392   23.0550 H         1 UNK         0.0000 
     51 H51         7.0741   56.8940   21.3387 H         1 UNK         0.0000 
     52 H52         4.0434   56.4412   17.1116 H         1 UNK         0.0000 
     53 H53         5.1705   55.2436   16.5039 H         1 UNK         0.0000 
     54 H54         5.4819   57.5990   15.5479 H         1 UNK         0.0000 
     55 H55         6.9263   56.9001   16.2248 H         1 UNK         0.0000 
     56 H56         5.1049   58.8849   17.6781 H         1 UNK         0.0000 
     57 H57         6.6125   59.2960   16.9290 H         1 UNK         0.0000 
     58 H58         7.9075   58.0436   18.5382 H         1 UNK         0.0000 
     59 H59         6.7205   58.9316   19.4587 H         1 UNK         0.0000 
     60 H60         4.4915   55.2135   27.1714 H         1 UNK         0.0000 
@<TRIPOS>BOND
     1    1    6 ar   
     2    1    2 ar   
     3    1   35 1    
     4    2    3 ar   
     5    2   36 1    
     6    3    4 ar   
     7    3   11 1    
     8    4    5 ar   
     9    4   37 1    
    10    5    6 ar   
    11    5    7 1    
    12    6   38 1    
    13    7    8 1    
    14    7    9 1    
    15    7   10 1    
    16   11   15 2    
    17   11   12 1    
    18   12   13 2    
    19   13   14 1    
    20   13   16 1    
    21   14   15 1    
    22   16   17 1    
    23   16   39 1    
    24   16   40 1    
    25   17   22 1    
    26   17   18 1    
    27   17   60 1    
    28   18   19 1    
    29   18   41 1    
    30   18   42 1    
    31   19   20 1    
    32   19   43 1    
    33   19   44 1    
    34   20   21 1    
    35   20   23 1    
    36   20   45 1    
    37   21   22 1    
    38   21   46 1    
    39   21   47 1    
    40   22   48 1    
    41   22   49 1    
    42   23   24 am   BACKBONE|DICT|INTERRES
    43   23   50 1    
    44   24   25 2    
    45   24   26 1    
    46   26   30 1    
    47   26   27 2    
    48   27   28 1    
    49   27   51 1    
    50   28   34 1    
    51   28   29 2    
    52   29   30 1    
    53   29   31 1    
    54   31   32 1    
    55   31   52 1    
    56   31   53 1    
    57   32   33 1    
    58   32   54 1    
    59   32   55 1    
    60   33   34 1    
    61   33   56 1    
    62   33   57 1    
    63   34   58 1    
    64   34   59 1    
@<TRIPOS>SUBSTRUCTURE
     1 UNK         1 GROUP             0       ****    0 ROOT    
