ZINC39687193_649
                    3D
 Schrodinger Suite 2024-2.
 67 71  0  0  1  0            999 V2000
    0.2762   49.2646   21.5210 C   0  0  0  0  0  0
    0.5496   49.9858   22.8588 C   0  0  2  0  0  0
    1.0592   49.2558   23.4937 H   0  0  0  0  0  0
   -0.7362   50.4008   23.6163 C   0  0  0  0  0  0
   -1.6149   49.2243   24.0300 C   0  0  0  0  0  0
   -1.3133   48.5000   25.1884 C   0  0  0  0  0  0
   -2.1118   47.4240   25.5743 C   0  0  0  0  0  0
   -3.2207   47.0665   24.8092 C   0  0  0  0  0  0
   -3.5258   47.7816   23.6515 C   0  0  0  0  0  0
   -2.7268   48.8558   23.2601 C   0  0  0  0  0  0
   -3.0372   49.5342   22.1304 F   0  0  0  0  0  0
    1.5072   51.0904   22.7199 N   0  0  0  0  0  0
    1.3585   52.2396   22.0238 C   0  0  0  0  0  0
    0.3546   52.4859   21.3558 O   0  0  0  0  0  0
    2.5309   53.2542   22.0113 C   0  0  1  0  0  0
    2.0902   54.1993   21.7310 H   0  0  0  0  0  0
    2.9996   53.4481   23.4659 C   0  0  0  0  0  0
    4.4380   53.6967   23.3846 N   0  0  0  0  0  0
    4.9258   53.5993   22.0053 C   0  0  0  0  0  0
    3.7948   52.9850   21.1368 C   0  0  0  0  0  0
    4.1098   51.4838   20.8401 C   0  0  0  0  0  0
    3.1590   50.8320   19.7883 C   0  0  0  0  0  0
    3.1042   51.6961   18.5140 N   0  3  0  0  0  0
    2.8026   53.1837   18.7701 C   0  0  0  0  0  0
    3.8554   53.6968   19.7577 C   0  0  0  0  0  0
    5.2636   54.0985   24.4021 C   0  0  0  0  0  0
    6.4324   54.4151   24.1613 O   0  0  0  0  0  0
    4.8112   54.0957   25.8666 C   0  0  0  0  0  0
    5.7586   54.2640   26.8889 C   0  0  0  0  0  0
    5.3865   54.0988   28.2225 C   0  0  0  0  0  0
    4.0504   53.7467   28.5345 C   0  0  0  0  0  0
    3.6042   53.4784   29.8509 C   0  0  0  0  0  0
    2.2767   53.1162   30.0817 C   0  0  0  0  0  0
    1.3705   53.0356   29.0290 C   0  0  0  0  0  0
    1.7763   53.3002   27.7224 C   0  0  0  0  0  0
    3.1241   53.6447   27.4563 C   0  0  0  0  0  0
    3.5091   53.8366   26.1684 N   0  0  0  0  0  0
   -0.4251   48.4425   21.6553 H   0  0  0  0  0  0
   -0.1738   49.9268   20.7812 H   0  0  0  0  0  0
    1.1864   48.8260   21.1120 H   0  0  0  0  0  0
   -1.3193   51.1140   23.0311 H   0  0  0  0  0  0
   -0.4606   50.9468   24.5194 H   0  0  0  0  0  0
   -0.4651   48.7682   25.8044 H   0  0  0  0  0  0
   -1.8725   46.8875   26.4818 H   0  0  0  0  0  0
   -3.8505   46.2482   25.1231 H   0  0  0  0  0  0
   -4.3870   47.5133   23.0582 H   0  0  0  0  0  0
    2.3801   50.9598   23.2086 H   0  0  0  0  0  0
    2.4738   54.2987   23.9023 H   0  0  0  0  0  0
    2.8904   52.5482   24.0705 H   0  0  0  0  0  0
    5.9025   53.1328   21.8706 H   0  0  0  0  0  0
    5.0550   54.6419   21.7060 H   0  0  0  0  0  0
    5.1252   51.3972   20.4537 H   0  0  0  0  0  0
    4.1201   50.9010   21.7584 H   0  0  0  0  0  0
    3.5047   49.8514   19.4592 H   0  0  0  0  0  0
    2.1230   50.7260   20.0871 H   0  0  0  0  0  0
    4.0208   51.5717   18.0808 H   0  0  0  0  0  0
    2.8673   53.6799   17.8009 H   0  0  0  0  0  0
    1.7812   53.2597   19.1445 H   0  0  0  0  0  0
    3.7071   54.7699   19.8859 H   0  0  0  0  0  0
    4.8507   53.6038   19.3157 H   0  0  0  0  0  0
    6.7938   54.4739   26.6602 H   0  0  0  0  0  0
    6.1186   54.2050   29.0117 H   0  0  0  0  0  0
    4.3043   53.5350   30.6705 H   0  0  0  0  0  0
    1.9405   52.8936   31.0851 H   0  0  0  0  0  0
    0.3464   52.7559   29.2287 H   0  0  0  0  0  0
    1.0690   53.2214   26.9076 H   0  0  0  0  0  0
    2.4473   51.2975   17.8581 H   0  0  0  0  0  0
  1  2  1  0  0  0
  1 38  1  0  0  0
  1 39  1  0  0  0
  1 40  1  0  0  0
  2  3  1  0  0  0
  2  4  1  0  0  0
  2 12  1  0  0  0
  4  5  1  0  0  0
  4 41  1  0  0  0
  4 42  1  0  0  0
  5 10  2  0  0  0
  5  6  1  0  0  0
  6  7  2  0  0  0
  6 43  1  0  0  0
  7  8  1  0  0  0
  7 44  1  0  0  0
  8  9  2  0  0  0
  8 45  1  0  0  0
  9 10  1  0  0  0
  9 46  1  0  0  0
 10 11  1  0  0  0
 12 13  1  0  0  0
 12 47  1  0  0  0
 13 14  2  0  0  0
 13 15  1  0  0  0
 15 16  1  0  0  0
 15 20  1  0  0  0
 15 17  1  0  0  0
 17 18  1  0  0  0
 17 48  1  0  0  0
 17 49  1  0  0  0
 18 19  1  0  0  0
 18 26  1  0  0  0
 19 20  1  0  0  0
 19 50  1  0  0  0
 19 51  1  0  0  0
 20 25  1  0  0  0
 20 21  1  0  0  0
 21 22  1  0  0  0
 21 52  1  0  0  0
 21 53  1  0  0  0
 22 23  1  0  0  0
 22 54  1  0  0  0
 22 55  1  0  0  0
 23 24  1  0  0  0
 23 56  1  0  0  0
 23 67  1  0  0  0
 24 25  1  0  0  0
 24 57  1  0  0  0
 24 58  1  0  0  0
 25 59  1  0  0  0
 25 60  1  0  0  0
 26 27  2  0  0  0
 26 28  1  0  0  0
 28 37  2  0  0  0
 28 29  1  0  0  0
 29 30  2  0  0  0
 29 61  1  0  0  0
 30 31  1  0  0  0
 30 62  1  0  0  0
 31 36  2  0  0  0
 31 32  1  0  0  0
 32 33  2  0  0  0
 32 63  1  0  0  0
 33 34  1  0  0  0
 33 64  1  0  0  0
 34 35  2  0  0  0
 34 65  1  0  0  0
 35 36  1  0  0  0
 35 66  1  0  0  0
 36 37  1  0  0  0
M  CHG  1  23   1
M  END
> <i_i_glide_confnum>
133

> <i_i_glide_lignum>
650

> <i_i_glide_posenum>
49

> <i_i_glide_rotatable_bonds>
7

> <i_m_Source_File_Index>
752

> <b_m_subgroup_collapsed>
0

> <r_i_docking_score>
-5.72452

> <r_i_glide_ecoul>
-4.813

> <r_i_glide_eff_state_penalty>
0

> <r_i_glide_einternal>
8.07571

> <r_i_glide_emodel>
-60.81

> <r_i_glide_energy>
-45.5694

> <r_i_glide_erotb>
0.537022

> <r_i_glide_esite>
-0.1

> <r_i_glide_evdw>
-40.7564

> <r_i_glide_gscore>
-5.72452

> <r_i_glide_hbond>
-0.150775

> <r_i_glide_ligand_efficiency>
-0.163558

> <r_i_glide_ligand_efficiency_ln>
-1.25666

> <r_i_glide_ligand_efficiency_sa>
-0.535008

> <r_i_glide_lipo>
-2.27248

> <r_i_glide_metal>
0

> <r_i_glide_rewards>
-0.978515

> <s_i_glide_gridfile>
wee1_glide-grid

> <s_m_Source_File>
wee1_decoys_glide_SP.sdf

> <s_m_Source_Path>
/Users/zhangxujun/Desktop

> <s_m_entry_id>
1027

> <s_m_entry_name>
wee1_decoys_glide_SP.752

> <s_m_subgroup_title>
wee1_decoys_glide_SP

> <s_m_subgroupid>
wee1_decoys_glide_SP


$$$$
