@<TRIPOS>MOLECULE
ZINC08271826_2651
40   42    1
SMALL
USER_CHARGES


@<TRIPOS>ATOM
      1 C1          5.8162   55.0844   20.3050 C.3       1 UNK         0.0000 
      2 C2          5.0373   54.4435   21.4696 C.3       1 UNK         0.0000 
      3 H3          4.1693   55.0708   21.6811 H         1 UNK         0.0000 
      4 C4          4.5880   53.0035   21.1223 C.2       1 UNK         0.0000 
      5 O5          5.1050   52.0338   21.6814 O.2       1 UNK         0.0000 
      6 N6          3.6127   52.8949   20.1900 N.am      1 UNK         0.0000 
      7 N7          3.0621   51.6442   19.8666 N.am      1 UNK         0.0000 
      8 C8          2.1568   51.0733   20.7003 C.2       1 UNK         0.0000 
      9 O9          1.7756   51.5960   21.7541 O.2       1 UNK         0.0000 
     10 C10         1.5521   49.7609   20.2439 C.ar      1 UNK         0.0000 
     11 C11         0.3687   49.2926   20.8645 C.ar      1 UNK         0.0000 
     12 C12        -0.2505   48.1018   20.4610 C.ar      1 UNK         0.0000 
     13 C13         0.3386   47.3935   19.4235 C.ar      1 UNK         0.0000 
     14 C14         1.4856   47.8224   18.8191 C.ar      1 UNK         0.0000 
     15 C15         2.1272   48.9934   19.2054 C.ar      1 UNK         0.0000 
     16 O16         1.8514   46.9211   17.8698 O.3       1 UNK         0.0000 
     17 C17         0.7586   46.0539   17.7377 C.3       1 UNK         0.0000 
     18 O18        -0.0479   46.2130   18.8727 O.3       1 UNK         0.0000 
     19 O19         5.9480   54.4630   22.5800 O.3       1 UNK         0.0000 
     20 C20         5.5059   54.3651   23.8867 C.ar      1 UNK         0.0000 
     21 C21         4.1704   54.1593   24.2680 C.ar      1 UNK         0.0000 
     22 C22         3.8318   54.0956   25.6188 C.ar      1 UNK         0.0000 
     23 C23         4.8227   54.2209   26.5911 C.ar      1 UNK         0.0000 
     24 C24         6.1486   54.4264   26.2227 C.ar      1 UNK         0.0000 
     25 C25         6.4832   54.4980   24.8728 C.ar      1 UNK         0.0000 
     26 Br26        4.3684   54.0981   28.4368 Br        1 UNK         0.0000 
     27 H27         5.2035   55.1769   19.4080 H         1 UNK         0.0000 
     28 H28         6.1475   56.0869   20.5719 H         1 UNK         0.0000 
     29 H29         6.7038   54.5052   20.0469 H         1 UNK         0.0000 
     30 H30         3.1173   53.6712   19.7752 H         1 UNK         0.0000 
     31 H31         3.6303   51.1338   19.2002 H         1 UNK         0.0000 
     32 H32        -0.0834   49.8576   21.6677 H         1 UNK         0.0000 
     33 H33        -1.1537   47.7553   20.9449 H         1 UNK         0.0000 
     34 H34         3.0388   49.2902   18.7023 H         1 UNK         0.0000 
     35 H35         1.1026   45.0213   17.6465 H         1 UNK         0.0000 
     36 H36         0.1898   46.3214   16.8429 H         1 UNK         0.0000 
     37 H37         3.3874   54.0403   23.5332 H         1 UNK         0.0000 
     38 H38         2.8059   53.9302   25.9098 H         1 UNK         0.0000 
     39 H39         6.9116   54.5219   26.9816 H         1 UNK         0.0000 
     40 H40         7.5075   54.6585   24.5752 H         1 UNK         0.0000 
@<TRIPOS>BOND
     1    1    2 1    
     2    1   27 1    
     3    1   28 1    
     4    1   29 1    
     5    2    3 1    
     6    2    4 1    
     7    2   19 1    
     8    4    5 2    
     9    4    6 am   BACKBONE|DICT|INTERRES
    10    6    7 1    
    11    6   30 1    
    12    7    8 am   BACKBONE|DICT|INTERRES
    13    7   31 1    
    14    8    9 2    
    15    8   10 1    
    16   10   15 ar   
    17   10   11 ar   
    18   11   12 ar   
    19   11   32 1    
    20   12   13 ar   
    21   12   33 1    
    22   13   18 1    
    23   13   14 ar   
    24   14   15 ar   
    25   14   16 1    
    26   15   34 1    
    27   16   17 1    
    28   17   18 1    
    29   17   35 1    
    30   17   36 1    
    31   19   20 1    
    32   20   25 ar   
    33   20   21 ar   
    34   21   22 ar   
    35   21   37 1    
    36   22   23 ar   
    37   22   38 1    
    38   23   24 ar   
    39   23   26 1    
    40   24   25 ar   
    41   24   39 1    
    42   25   40 1    
@<TRIPOS>SUBSTRUCTURE
     1 UNK         1 GROUP             0       ****    0 ROOT    
