@<TRIPOS>MOLECULE
ZINC05595813_5830
42   44    1
SMALL
USER_CHARGES


@<TRIPOS>ATOM
      1 C1         -1.0458   51.5560   29.9741 C.3       1 UNK         0.0000 
      2 C2          0.2530   52.0918   29.4160 C.ar      1 UNK         0.0000 
      3 C3          0.4223   52.1839   28.0377 C.ar      1 UNK         0.0000 
      4 C4          1.6119   52.6827   27.5228 C.ar      1 UNK         0.0000 
      5 C5          2.6429   53.0901   28.3788 C.ar      1 UNK         0.0000 
      6 C6          2.4642   52.9845   29.7638 C.ar      1 UNK         0.0000 
      7 C7          1.2685   52.4965   30.2826 C.ar      1 UNK         0.0000 
      8 C8          3.9092   53.6386   27.7982 C.ar      1 UNK         0.0000 
      9 C9          4.2027   53.8244   26.4386 C.ar      1 UNK         0.0000 
     10 C10         5.4777   54.3616   26.3708 C.ar      1 UNK         0.0000 
     11 N11         5.8363   54.4968   27.6877 N.pl3     1 UNK         0.0000 
     12 H12         6.6999   54.9152   28.0086 H         1 UNK         0.0000 
     13 N13         4.9154   54.0474   28.5463 N.2       1 UNK         0.0000 
     14 C14         6.2281   54.8538   25.2552 C.2       1 UNK         0.0000 
     15 O15         7.1044   55.6968   25.4211 O.2       1 UNK         0.0000 
     16 N16         5.8384   54.3584   24.0665 N.am      1 UNK         0.0000 
     17 N17         6.3043   54.8212   22.8838 N.2       1 UNK         0.0000 
     18 C18         5.7266   54.3839   21.8247 C.2       1 UNK         0.0000 
     19 C19         6.2305   54.8968   20.4817 C.3       1 UNK         0.0000 
     20 C20         4.5422   53.4887   21.7429 C.ar      1 UNK         0.0000 
     21 C21         3.3804   53.7634   22.4820 C.ar      1 UNK         0.0000 
     22 C22         2.2884   52.9011   22.4392 C.ar      1 UNK         0.0000 
     23 C23         2.3402   51.7639   21.6387 C.ar      1 UNK         0.0000 
     24 C24         3.4733   51.4863   20.8791 C.ar      1 UNK         0.0000 
     25 C25         4.5689   52.3437   20.9328 C.ar      1 UNK         0.0000 
     26 Br26        0.8480   50.5850   21.5777 Br        1 UNK         0.0000 
     27 H27        -1.8734   51.6903   29.2774 H         1 UNK         0.0000 
     28 H28        -0.9667   50.4987   30.2221 H         1 UNK         0.0000 
     29 H29        -1.2955   52.0955   30.8817 H         1 UNK         0.0000 
     30 H30        -0.3622   51.8645   27.3665 H         1 UNK         0.0000 
     31 H31         1.7176   52.7428   26.4513 H         1 UNK         0.0000 
     32 H32         3.2507   53.2824   30.4405 H         1 UNK         0.0000 
     33 H33         1.1322   52.4227   31.3531 H         1 UNK         0.0000 
     34 H34         3.5546   53.6016   25.6048 H         1 UNK         0.0000 
     35 H35         5.1141   53.6582   24.0035 H         1 UNK         0.0000 
     36 H36         5.5519   55.6540   20.0893 H         1 UNK         0.0000 
     37 H37         7.2065   55.3769   20.5718 H         1 UNK         0.0000 
     38 H38         6.3186   54.1084   19.7348 H         1 UNK         0.0000 
     39 H39         3.3140   54.6534   23.0922 H         1 UNK         0.0000 
     40 H40         1.4005   53.1193   23.0139 H         1 UNK         0.0000 
     41 H41         3.5050   50.6107   20.2454 H         1 UNK         0.0000 
     42 H42         5.4373   52.0971   20.3379 H         1 UNK         0.0000 
@<TRIPOS>BOND
     1    1    2 1    
     2    1   27 1    
     3    1   28 1    
     4    1   29 1    
     5    2    7 ar   
     6    2    3 ar   
     7    3    4 ar   
     8    3   30 1    
     9    4    5 ar   
    10    4   31 1    
    11    5    6 ar   
    12    5    8 1    
    13    6    7 ar   
    14    6   32 1    
    15    7   33 1    
    16    8   13 ar   
    17    8    9 ar   
    18    9   10 ar   
    19    9   34 1    
    20   10   11 ar   
    21   10   14 1    
    22   11   12 1    
    23   11   13 ar   
    24   14   15 2    
    25   14   16 am   BACKBONE|DICT|INTERRES
    26   16   17 1    
    27   16   35 1    
    28   17   18 2    
    29   18   19 1    
    30   18   20 1    
    31   19   36 1    
    32   19   37 1    
    33   19   38 1    
    34   20   25 ar   
    35   20   21 ar   
    36   21   22 ar   
    37   21   39 1    
    38   22   23 ar   
    39   22   40 1    
    40   23   24 ar   
    41   23   26 1    
    42   24   25 ar   
    43   24   41 1    
    44   25   42 1    
@<TRIPOS>SUBSTRUCTURE
     1 UNK         1 GROUP             0       ****    0 ROOT    
