@<TRIPOS>MOLECULE
ZINC59317331_4457
51   54    1
SMALL
USER_CHARGES


@<TRIPOS>ATOM
      1 C1          5.7741   54.4963   26.7192 C.3       1 UNK         0.0000 
      2 C2          4.3770   54.3070   27.3406 C.3       1 UNK         0.0000 
      3 H3          4.0102   55.2968   27.5895 H         1 UNK         0.0000 
      4 C4          4.4401   53.4707   28.6285 C.3       1 UNK         0.0000 
      5 C5          3.0943   53.5271   29.3761 C.3       1 UNK         0.0000 
      6 C6          1.9662   53.1154   28.4201 C.2       1 UNK         0.0000 
      7 C7          2.1525   53.1655   27.0281 C.2       1 UNK         0.0000 
      8 S8          0.8172   52.4868   26.1686 S.3       1 UNK         0.0000 
      9 C9         -0.0499   52.2018   27.6539 C.2       1 UNK         0.0000 
     10 C10         0.6966   52.5891   28.7899 C.2       1 UNK         0.0000 
     11 C11         0.2126   52.5828   30.1691 C.2       1 UNK         0.0000 
     12 O12         0.6289   53.3764   31.0083 O.2       1 UNK         0.0000 
     13 N13        -0.7386   51.6969   30.4817 N.am      1 UNK         0.0000 
     14 N14        -1.3455   51.6968   27.6766 N.am      1 UNK         0.0000 
     15 C15        -2.1278   51.2100   26.6902 C.2       1 UNK         0.0000 
     16 O16        -1.7987   51.1274   25.5075 O.2       1 UNK         0.0000 
     17 C17        -3.5631   50.7939   27.0988 C.3       1 UNK         0.0000 
     18 H18        -4.1983   51.5701   26.6669 H         1 UNK         0.0000 
     19 C19        -4.0081   49.4185   26.6403 C.3       1 UNK         0.0000 
     20 C20        -5.0155   48.9542   27.7005 C.2       1 UNK         0.0000 
     21 O21        -5.7897   48.0095   27.5463 O.2       1 UNK         0.0000 
     22 N22        -4.8946   49.7875   28.7767 N.am      1 UNK         0.0000 
     23 C23        -3.7886   50.7276   28.6022 C.3       1 UNK         0.0000 
     24 C24        -5.6376   49.7153   29.9804 C.ar      1 UNK         0.0000 
     25 C25        -6.9955   49.3567   29.9865 C.ar      1 UNK         0.0000 
     26 C26        -7.7397   49.4456   31.1613 C.ar      1 UNK         0.0000 
     27 C27        -7.1305   49.8806   32.3364 C.ar      1 UNK         0.0000 
     28 C28        -5.7718   50.1758   32.3568 C.ar      1 UNK         0.0000 
     29 C29        -5.0280   50.1003   31.1835 C.ar      1 UNK         0.0000 
     30 Cl30       -8.0697   50.0969   33.7679 Cl        1 UNK         0.0000 
     31 C31         3.3950   53.6968   26.3114 C.3       1 UNK         0.0000 
     32 H32         6.2227   53.5396   26.4464 H         1 UNK         0.0000 
     33 H33         5.7265   55.1109   25.8190 H         1 UNK         0.0000 
     34 H34         6.4523   54.9932   27.4154 H         1 UNK         0.0000 
     35 H35         5.2101   53.8817   29.2815 H         1 UNK         0.0000 
     36 H36         4.7697   52.4519   28.4183 H         1 UNK         0.0000 
     37 H37         3.1400   52.8718   30.2467 H         1 UNK         0.0000 
     38 H38         2.9109   54.5334   29.7554 H         1 UNK         0.0000 
     39 H39        -0.8786   50.8629   29.9283 H         1 UNK         0.0000 
     40 H40        -1.0948   51.6975   31.4444 H         1 UNK         0.0000 
     41 H41        -1.7520   51.6658   28.5978 H         1 UNK         0.0000 
     42 H42        -4.5687   49.4829   25.7074 H         1 UNK         0.0000 
     43 H43        -3.1922   48.7034   26.5159 H         1 UNK         0.0000 
     44 H44        -2.9530   50.2609   29.1305 H         1 UNK         0.0000 
     45 H45        -3.9934   51.6983   29.0540 H         1 UNK         0.0000 
     46 H46        -7.4979   49.0631   29.0768 H         1 UNK         0.0000 
     47 H47        -8.7936   49.2084   31.1516 H         1 UNK         0.0000 
     48 H48        -5.2968   50.4965   33.2736 H         1 UNK         0.0000 
     49 H49        -3.9783   50.3562   31.2238 H         1 UNK         0.0000 
     50 H50         3.1148   54.4588   25.5832 H         1 UNK         0.0000 
     51 H51         3.8889   52.8966   25.7686 H         1 UNK         0.0000 
@<TRIPOS>BOND
     1    1    2 1    
     2    1   32 1    
     3    1   33 1    
     4    1   34 1    
     5    2    3 1    
     6    2   31 1    
     7    2    4 1    
     8    4    5 1    
     9    4   35 1    
    10    4   36 1    
    11    5    6 1    
    12    5   37 1    
    13    5   38 1    
    14    6   10 1    
    15    6    7 2    
    16    7    8 1    
    17    7   31 1    
    18    8    9 1    
    19    9   10 2    
    20    9   14 am   BACKBONE|DICT|INTERRES
    21   10   11 1    
    22   11   12 2    
    23   11   13 am   BACKBONE|DICT|INTERRES
    24   13   39 1    
    25   13   40 1    
    26   14   15 am   BACKBONE|DICT|INTERRES
    27   14   41 1    
    28   15   16 2    
    29   15   17 1    
    30   17   18 1    
    31   17   23 1    
    32   17   19 1    
    33   19   20 1    
    34   19   42 1    
    35   19   43 1    
    36   20   21 2    
    37   20   22 am   BACKBONE|DICT|INTERRES
    38   22   23 1    
    39   22   24 1    
    40   23   44 1    
    41   23   45 1    
    42   24   29 ar   
    43   24   25 ar   
    44   25   26 ar   
    45   25   46 1    
    46   26   27 ar   
    47   26   47 1    
    48   27   28 ar   
    49   27   30 1    
    50   28   29 ar   
    51   28   48 1    
    52   29   49 1    
    53   31   50 1    
    54   31   51 1    
@<TRIPOS>SUBSTRUCTURE
     1 UNK         1 GROUP             0       ****    0 ROOT    
