@<TRIPOS>MOLECULE
ZINC14646994_4272
47   49    1
SMALL
USER_CHARGES


@<TRIPOS>ATOM
      1 C1          0.3044   53.6961   32.1241 C.3       1 UNK         0.0000 
      2 C2          0.9774   52.7935   31.0811 C.3       1 UNK         0.0000 
      3 C3          1.1332   53.4485   29.7015 C.3       1 UNK         0.0000 
      4 O4          1.7931   52.5154   28.8525 O.3       1 UNK         0.0000 
      5 C5          2.6655   53.0612   27.9430 C.ar      1 UNK         0.0000 
      6 C6          2.1868   53.6178   26.7600 C.ar      1 UNK         0.0000 
      7 C7          3.0771   54.0969   25.8013 C.ar      1 UNK         0.0000 
      8 C8          4.4641   54.0659   26.0250 C.ar      1 UNK         0.0000 
      9 C9          4.9347   53.5512   27.2421 C.ar      1 UNK         0.0000 
     10 C10         4.0410   53.0142   28.1750 C.ar      1 UNK         0.0000 
     11 Br11        4.7008   52.0971   29.7061 Br        1 UNK         0.0000 
     12 C12         5.4297   54.4969   24.9467 C.2       1 UNK         0.0000 
     13 O13         6.4854   55.0666   25.2326 O.2       1 UNK         0.0000 
     14 N14         5.0320   54.1331   23.7064 N.am      1 UNK         0.0000 
     15 C15         5.5921   54.3867   22.4557 C.2       1 UNK         0.0000 
     16 C16         5.1038   53.8905   21.2271 C.2       1 UNK         0.0000 
     17 C17         5.7968   54.4702   20.1214 C.2       1 UNK         0.0000 
     18 C18         6.8579   55.2967   20.5286 C.2       1 UNK         0.0000 
     19 S19         7.0054   55.3726   22.2433 S.3       1 UNK         0.0000 
     20 C20         7.7720   56.0911   19.6067 C.3       1 UNK         0.0000 
     21 C21         7.6493   55.5385   18.1750 C.3       1 UNK         0.0000 
     22 C22         6.1770   55.3582   17.7711 C.3       1 UNK         0.0000 
     23 C23         5.4683   54.2881   18.6309 C.3       1 UNK         0.0000 
     24 C24         3.9602   52.9840   21.1437 C.2       1 UNK         0.0000 
     25 O25         3.1175   52.9049   22.0371 O.2       1 UNK         0.0000 
     26 N26         3.9022   52.1810   20.0819 N.am      1 UNK         0.0000 
     27 H27         0.4952   53.3193   33.1304 H         1 UNK         0.0000 
     28 H28        -0.7756   53.7004   32.0142 H         1 UNK         0.0000 
     29 H29         0.6738   54.7211   32.0798 H         1 UNK         0.0000 
     30 H30         1.9618   52.4969   31.4462 H         1 UNK         0.0000 
     31 H31         0.4013   51.8722   30.9909 H         1 UNK         0.0000 
     32 H32         0.1589   53.6946   29.2799 H         1 UNK         0.0000 
     33 H33         1.6913   54.3825   29.8036 H         1 UNK         0.0000 
     34 H34         1.1239   53.6384   26.5691 H         1 UNK         0.0000 
     35 H35         2.6712   54.4893   24.8785 H         1 UNK         0.0000 
     36 H36         5.9975   53.4827   27.4326 H         1 UNK         0.0000 
     37 H37         4.1920   53.5729   23.6570 H         1 UNK         0.0000 
     38 H38         7.4724   57.1390   19.6084 H         1 UNK         0.0000 
     39 H39         8.8102   56.0543   19.9393 H         1 UNK         0.0000 
     40 H40         8.1507   56.2100   17.4778 H         1 UNK         0.0000 
     41 H41         8.1704   54.5817   18.0985 H         1 UNK         0.0000 
     42 H42         5.6529   56.3125   17.8617 H         1 UNK         0.0000 
     43 H43         6.1106   55.0821   16.7166 H         1 UNK         0.0000 
     44 H44         5.7930   53.2993   18.3039 H         1 UNK         0.0000 
     45 H45         4.3936   54.3368   18.4500 H         1 UNK         0.0000 
     46 H46         4.6296   52.1619   19.3785 H         1 UNK         0.0000 
     47 H47         3.1400   51.5251   20.0052 H         1 UNK         0.0000 
@<TRIPOS>BOND
     1    1    2 1    
     2    1   27 1    
     3    1   28 1    
     4    1   29 1    
     5    2    3 1    
     6    2   30 1    
     7    2   31 1    
     8    3    4 1    
     9    3   32 1    
    10    3   33 1    
    11    4    5 1    
    12    5   10 ar   
    13    5    6 ar   
    14    6    7 ar   
    15    6   34 1    
    16    7    8 ar   
    17    7   35 1    
    18    8    9 ar   
    19    8   12 1    
    20    9   10 ar   
    21    9   36 1    
    22   10   11 1    
    23   12   13 2    
    24   12   14 am   BACKBONE|DICT|INTERRES
    25   14   15 am   BACKBONE|DICT|INTERRES
    26   14   37 1    
    27   15   19 1    
    28   15   16 2    
    29   16   17 1    
    30   16   24 1    
    31   17   23 1    
    32   17   18 2    
    33   18   19 1    
    34   18   20 1    
    35   20   21 1    
    36   20   38 1    
    37   20   39 1    
    38   21   22 1    
    39   21   40 1    
    40   21   41 1    
    41   22   23 1    
    42   22   42 1    
    43   22   43 1    
    44   23   44 1    
    45   23   45 1    
    46   24   25 2    
    47   24   26 am   BACKBONE|DICT|INTERRES
    48   26   46 1    
    49   26   47 1    
@<TRIPOS>SUBSTRUCTURE
     1 UNK         1 GROUP             0       ****    0 ROOT    
