ZINC64066821_1162
                    3D
 Schrodinger Suite 2024-2.
 69 74  0  0  1  0            999 V2000
    9.0196   54.1740   16.8424 C   0  0  0  0  0  0
    8.7657   55.0467   17.9398 O   0  0  0  0  0  0
    7.6393   54.8450   18.7123 C   0  0  0  0  0  0
    7.4836   55.6890   19.8111 C   0  0  0  0  0  0
    6.3985   55.5391   20.6697 C   0  0  0  0  0  0
    5.4619   54.5276   20.4419 C   0  0  0  0  0  0
    5.5956   53.6950   19.3299 C   0  0  0  0  0  0
    6.6782   53.8516   18.4696 C   0  0  0  0  0  0
    4.2868   54.3387   21.3989 C   0  0  0  0  0  0
    4.5961   53.5775   22.7054 C   0  0  1  0  0  0
    4.8679   52.5473   22.4820 H   0  0  0  0  0  0
    5.7406   54.1219   23.4132 N   0  0  0  0  0  0
    5.4369   54.2678   24.7510 C   0  0  0  0  0  0
    6.2929   54.5935   25.8004 C   0  0  0  0  0  0
    5.7857   54.6658   27.0987 C   0  0  0  0  0  0
    4.4274   54.4367   27.3291 C   0  0  0  0  0  0
    3.5761   54.1178   26.2675 C   0  0  0  0  0  0
    4.0932   54.0140   24.9709 C   0  0  0  0  0  0
    3.5263   53.6882   23.7292 N   0  0  0  0  0  0
    2.4844   52.6332   23.6389 C   0  0  0  0  0  0
    1.0496   53.1332   23.9777 C   0  0  0  0  0  0
   -0.0106   51.9933   23.9781 C   0  0  0  0  0  0
    0.0507   51.3324   22.6559 N   0  0  0  0  0  0
    1.3268   50.6347   22.4851 C   0  0  0  0  0  0
    2.4068   51.7218   22.3738 C   0  0  0  0  0  0
   -0.7841   51.7649   21.6635 C   0  0  0  0  0  0
   -1.7490   52.4792   21.9395 O   0  0  0  0  0  0
   -0.7360   51.3600   20.1676 C   0  0  0  0  0  0
    0.3741   50.4810   19.6106 C   0  0  0  0  0  0
    0.4061   49.1491   19.4262 C   0  0  0  0  0  0
   -0.5626   48.1043   19.7919 C   0  0  0  0  0  0
   -0.3381   46.8147   19.4685 C   0  0  0  0  0  0
    0.8895   46.4948   18.7515 C   0  0  0  0  0  0
    1.7983   47.4473   18.4151 C   0  0  0  0  0  0
    1.5683   48.7854   18.7427 C   0  0  0  0  0  0
    2.3042   49.8331   18.4814 N   0  3  0  0  0  0
    1.6148   51.0504   18.9361 C   0  0  0  0  0  0
    9.9615   54.4523   16.3700 H   0  0  0  0  0  0
    9.1076   53.1334   17.1646 H   0  0  0  0  0  0
    8.2382   54.2491   16.0835 H   0  0  0  0  0  0
    8.2238   56.4516   20.0007 H   0  0  0  0  0  0
    6.2982   56.1940   21.5216 H   0  0  0  0  0  0
    4.8761   52.9129   19.1367 H   0  0  0  0  0  0
    6.7622   53.1784   17.6303 H   0  0  0  0  0  0
    3.4742   53.8739   20.8474 H   0  0  0  0  0  0
    3.8802   55.2965   21.6817 H   0  0  0  0  0  0
    6.6054   54.1554   22.8925 H   0  0  0  0  0  0
    7.3401   54.7719   25.6171 H   0  0  0  0  0  0
    6.4384   54.9067   27.9252 H   0  0  0  0  0  0
    4.0349   54.5027   28.3326 H   0  0  0  0  0  0
    2.5348   53.9333   26.4776 H   0  0  0  0  0  0
    2.7012   51.9283   24.4416 H   0  0  0  0  0  0
    0.7478   53.9024   23.2665 H   0  0  0  0  0  0
    1.0288   53.6093   24.9551 H   0  0  0  0  0  0
   -1.0207   52.2989   24.2594 H   0  0  0  0  0  0
    0.2399   51.2445   24.7308 H   0  0  0  0  0  0
    1.4927   50.0459   23.3901 H   0  0  0  0  0  0
    1.3365   49.8531   21.7328 H   0  0  0  0  0  0
    3.3422   51.2033   22.1733 H   0  0  0  0  0  0
    2.1925   52.3380   21.5076 H   0  0  0  0  0  0
   -0.7432   52.2806   19.5818 H   0  0  0  0  0  0
   -1.6834   50.8664   19.9508 H   0  0  0  0  0  0
   -1.4704   48.3425   20.3275 H   0  0  0  0  0  0
   -1.0445   46.0416   19.7331 H   0  0  0  0  0  0
    1.0890   45.4678   18.4820 H   0  0  0  0  0  0
    2.6938   47.1621   17.8786 H   0  0  0  0  0  0
    2.3078   51.5893   19.5758 H   0  0  0  0  0  0
    1.3934   51.6561   18.0547 H   0  0  0  0  0  0
    3.1892   49.8098   17.9537 H   0  0  0  0  0  0
  1  2  1  0  0  0
  1 38  1  0  0  0
  1 39  1  0  0  0
  1 40  1  0  0  0
  2  3  1  0  0  0
  3  8  2  0  0  0
  3  4  1  0  0  0
  4  5  2  0  0  0
  4 41  1  0  0  0
  5  6  1  0  0  0
  5 42  1  0  0  0
  6  7  2  0  0  0
  6  9  1  0  0  0
  7  8  1  0  0  0
  7 43  1  0  0  0
  8 44  1  0  0  0
  9 10  1  0  0  0
  9 45  1  0  0  0
  9 46  1  0  0  0
 10 11  1  0  0  0
 10 19  1  0  0  0
 10 12  1  0  0  0
 12 13  1  0  0  0
 12 47  1  0  0  0
 13 18  2  0  0  0
 13 14  1  0  0  0
 14 15  2  0  0  0
 14 48  1  0  0  0
 15 16  1  0  0  0
 15 49  1  0  0  0
 16 17  2  0  0  0
 16 50  1  0  0  0
 17 18  1  0  0  0
 17 51  1  0  0  0
 18 19  1  0  0  0
 19 20  1  0  0  0
 20 25  1  0  0  0
 20 21  1  0  0  0
 20 52  1  0  0  0
 21 22  1  0  0  0
 21 53  1  0  0  0
 21 54  1  0  0  0
 22 23  1  0  0  0
 22 55  1  0  0  0
 22 56  1  0  0  0
 23 24  1  0  0  0
 23 26  1  0  0  0
 24 25  1  0  0  0
 24 57  1  0  0  0
 24 58  1  0  0  0
 25 59  1  0  0  0
 25 60  1  0  0  0
 26 27  2  0  0  0
 26 28  1  0  0  0
 28 29  1  0  0  0
 28 61  1  0  0  0
 28 62  1  0  0  0
 29 37  1  0  0  0
 29 30  2  0  0  0
 30 35  1  0  0  0
 30 31  1  0  0  0
 31 32  2  0  0  0
 31 63  1  0  0  0
 32 33  1  0  0  0
 32 64  1  0  0  0
 33 34  2  0  0  0
 33 65  1  0  0  0
 34 35  1  0  0  0
 34 66  1  0  0  0
 35 36  2  0  0  0
 36 37  1  0  0  0
 36 69  1  0  0  0
 37 67  1  0  0  0
 37 68  1  0  0  0
M  CHG  1  36   1
M  END
> <i_i_glide_confnum>
155

> <i_i_glide_lignum>
1163

> <i_i_glide_posenum>
157

> <i_i_glide_rotatable_bonds>
7

> <i_m_Source_File_Index>
4291

> <b_m_subgroup_collapsed>
0

> <r_i_docking_score>
-5.93175

> <r_i_glide_ecoul>
-4.06252

> <r_i_glide_eff_state_penalty>
0

> <r_i_glide_einternal>
6.9138

> <r_i_glide_emodel>
-58.6759

> <r_i_glide_energy>
-43.1228

> <r_i_glide_erotb>
0.524798

> <r_i_glide_esite>
-0.104294

> <r_i_glide_evdw>
-39.0603

> <r_i_glide_gscore>
-5.93175

> <r_i_glide_hbond>
-0.285263

> <r_i_glide_ligand_efficiency>
-0.164771

> <r_i_glide_ligand_efficiency_ln>
-1.29415

> <r_i_glide_ligand_efficiency_sa>
-0.544061

> <r_i_glide_lipo>
-2.74308

> <r_i_glide_metal>
0

> <r_i_glide_rewards>
-0.761513

> <s_i_glide_gridfile>
wee1_glide-grid

> <s_m_Source_File>
wee1_decoys_glide_SP.sdf

> <s_m_Source_Path>
/Users/zhangxujun/Desktop

> <s_m_entry_id>
4566

> <s_m_entry_name>
wee1_decoys_glide_SP.4291

> <s_m_subgroup_title>
wee1_decoys_glide_SP

> <s_m_subgroupid>
wee1_decoys_glide_SP


$$$$
