@<TRIPOS>MOLECULE
ZINC59310293_4511
61   66    1
SMALL
USER_CHARGES


@<TRIPOS>ATOM
      1 C1          6.1527   54.2572   28.2168 C.3       1 UNK         0.0000 
      2 C2          4.8922   53.9314   27.3834 C.3       1 UNK         0.0000 
      3 H3          4.6827   52.8678   27.5209 H         1 UNK         0.0000 
      4 C4          5.0747   54.1110   25.8618 C.ar      1 UNK         0.0000 
      5 C5          3.9482   54.1051   25.0254 C.ar      1 UNK         0.0000 
      6 C6          4.0829   54.2890   23.6530 C.ar      1 UNK         0.0000 
      7 C7          5.3474   54.4652   23.0986 C.ar      1 UNK         0.0000 
      8 C8          6.4757   54.4754   23.9095 C.ar      1 UNK         0.0000 
      9 C9          6.3401   54.3055   25.2844 C.ar      1 UNK         0.0000 
     10 N10         3.7132   54.6670   27.8553 N.am      1 UNK         0.0000 
     11 C11         3.1347   54.6235   29.0656 C.2       1 UNK         0.0000 
     12 O12         3.5621   53.9530   30.0066 O.2       1 UNK         0.0000 
     13 C13         1.8717   55.4804   29.2160 C.3       1 UNK         0.0000 
     14 S14         0.7044   54.8856   30.4820 S.3       1 UNK         0.0000 
     15 C15         0.1045   53.4007   29.7388 C.ar      1 UNK         0.0000 
     16 N16         0.1965   53.1168   28.4408 N.2       1 UNK         0.0000 
     17 C17        -0.3868   51.9448   28.3614 C.ar      1 UNK         0.0000 
     18 N18        -0.8248   51.5699   29.5931 N.pl3     1 UNK         0.0000 
     19 N19        -0.4951   52.4973   30.4815 N.2       1 UNK         0.0000 
     20 N20        -0.5579   51.1366   27.2613 N.pl3     1 UNK         0.0000 
     21 N21         0.0622   51.3575   26.0290 N.2       1 UNK         0.0000 
     22 C22        -0.0519   50.4435   25.1533 C.2       1 UNK         0.0000 
     23 C23         0.5664   50.5095   23.8119 C.ar      1 UNK         0.0000 
     24 C24         1.6184   51.4072   23.6069 C.ar      1 UNK         0.0000 
     25 C25         2.3029   51.4977   22.4094 C.ar      1 UNK         0.0000 
     26 C26         1.9644   50.6932   21.3154 C.ar      1 UNK         0.0000 
     27 C27         2.6512   50.7752   20.0905 C.ar      1 UNK         0.0000 
     28 C28         2.2984   49.9778   19.0193 C.ar      1 UNK         0.0000 
     29 C29         1.2460   49.0485   19.1201 C.ar      1 UNK         0.0000 
     30 C30         0.8718   48.2070   18.0491 C.ar      1 UNK         0.0000 
     31 C31        -0.1840   47.3147   18.1759 C.ar      1 UNK         0.0000 
     32 C32        -0.9074   47.2279   19.3575 C.ar      1 UNK         0.0000 
     33 C33        -0.5849   48.0340   20.4734 C.ar      1 UNK         0.0000 
     34 C34         0.5139   48.9518   20.3567 C.ar      1 UNK         0.0000 
     35 C35         0.8743   49.7699   21.4625 C.ar      1 UNK         0.0000 
     36 C36         0.1509   49.6731   22.7142 C.ar      1 UNK         0.0000 
     37 C37        -0.9352   48.7584   22.7691 C.ar      1 UNK         0.0000 
     38 C38        -1.2953   47.9759   21.6853 C.ar      1 UNK         0.0000 
     39 H39         6.9931   53.6123   27.9576 H         1 UNK         0.0000 
     40 H40         6.4499   55.2958   28.0728 H         1 UNK         0.0000 
     41 H41         5.9866   54.1235   29.2810 H         1 UNK         0.0000 
     42 H42         2.9602   53.9552   25.4363 H         1 UNK         0.0000 
     43 H43         3.2069   54.3113   23.0212 H         1 UNK         0.0000 
     44 H44         5.4499   54.6034   22.0325 H         1 UNK         0.0000 
     45 H45         7.4518   54.6177   23.4735 H         1 UNK         0.0000 
     46 H46         7.2354   54.3195   25.8836 H         1 UNK         0.0000 
     47 H47         3.2446   55.1989   27.1392 H         1 UNK         0.0000 
     48 H48         2.1890   56.4820   29.5058 H         1 UNK         0.0000 
     49 H49         1.3460   55.5820   28.2656 H         1 UNK         0.0000 
     50 H50        -0.9558   50.2054   27.3625 H         1 UNK         0.0000 
     51 H51        -0.5978   49.5277   25.3674 H         1 UNK         0.0000 
     52 H52         1.9507   52.0469   24.4107 H         1 UNK         0.0000 
     53 H53         3.1266   52.1852   22.3041 H         1 UNK         0.0000 
     54 H54         3.4650   51.4778   19.9800 H         1 UNK         0.0000 
     55 H55         2.8296   50.0850   18.0838 H         1 UNK         0.0000 
     56 H56         1.4219   48.2693   17.1199 H         1 UNK         0.0000 
     57 H57        -0.4496   46.6863   17.3382 H         1 UNK         0.0000 
     58 H58        -1.7310   46.5333   19.4294 H         1 UNK         0.0000 
     59 H59        -1.5206   48.6631   23.6705 H         1 UNK         0.0000 
     60 H60        -2.1277   47.2939   21.7764 H         1 UNK         0.0000 
     61 H61        -1.2958   50.7054   29.8333 H         1 UNK         0.0000 
@<TRIPOS>BOND
     1    1    2 1    
     2    1   39 1    
     3    1   40 1    
     4    1   41 1    
     5    2    3 1    
     6    2    4 1    
     7    2   10 1    
     8    4    9 ar   
     9    4    5 ar   
    10    5    6 ar   
    11    5   42 1    
    12    6    7 ar   
    13    6   43 1    
    14    7    8 ar   
    15    7   44 1    
    16    8    9 ar   
    17    8   45 1    
    18    9   46 1    
    19   10   11 am   BACKBONE|DICT|INTERRES
    20   10   47 1    
    21   11   12 2    
    22   11   13 1    
    23   13   14 1    
    24   13   48 1    
    25   13   49 1    
    26   14   15 1    
    27   15   19 ar   
    28   15   16 ar   
    29   16   17 ar   
    30   17   18 ar   
    31   17   20 1    
    32   18   19 ar   
    33   18   61 1    
    34   20   21 1    
    35   20   50 1    
    36   21   22 2    
    37   22   23 1    
    38   22   51 1    
    39   23   36 ar   
    40   23   24 ar   
    41   24   25 ar   
    42   24   52 1    
    43   25   26 ar   
    44   25   53 1    
    45   26   35 ar   
    46   26   27 ar   
    47   27   28 ar   
    48   27   54 1    
    49   28   29 ar   
    50   28   55 1    
    51   29   34 ar   
    52   29   30 ar   
    53   30   31 ar   
    54   30   56 1    
    55   31   32 ar   
    56   31   57 1    
    57   32   33 ar   
    58   32   58 1    
    59   33   38 ar   
    60   33   34 ar   
    61   34   35 ar   
    62   35   36 ar   
    63   36   37 ar   
    64   37   38 ar   
    65   37   59 1    
    66   38   60 1    
@<TRIPOS>SUBSTRUCTURE
     1 UNK         1 GROUP             0       ****    0 ROOT    
