ZINC51168953_1863
                    3D
 Schrodinger Suite 2024-2.
 39 41  0  0  1  0            999 V2000
    1.7463   56.6151   29.7150 C   0  0  0  0  0  0
    1.1460   55.6001   30.5070 O   0  0  0  0  0  0
    0.8248   54.3812   29.9380 C   0  0  0  0  0  0
    1.0800   54.0562   28.5934 C   0  0  0  0  0  0
    0.6978   52.8224   28.0370 C   0  0  0  0  0  0
    0.0493   51.9080   28.8827 C   0  0  0  0  0  0
   -0.1981   52.2062   30.2197 C   0  0  0  0  0  0
    0.1912   53.4321   30.7511 C   0  0  0  0  0  0
   -0.0895   53.6959   32.0709 O   0  0  0  0  0  0
    0.9570   52.4970   26.5908 C   0  0  0  0  0  0
    1.6925   53.3690   25.8534 N   0  0  0  0  0  0
    1.8790   53.0982   24.5342 C   0  0  0  0  0  0
    1.4345   51.8852   23.9583 C   0  0  0  0  0  0
    0.7036   51.0306   24.8060 C   0  0  0  0  0  0
    0.4279   51.3513   26.0984 N   0  0  0  0  0  0
    0.2415   49.7835   24.3528 N   0  0  0  0  0  0
   -0.0966   48.7090   25.2796 N   0  0  0  0  0  0
    1.8191   51.4988   22.5215 C   0  0  0  0  0  0
    2.3588   52.6774   21.6877 C   0  0  0  0  0  0
    3.3391   53.5378   22.4980 C   0  0  0  0  0  0
    2.6098   54.1510   23.7039 C   0  0  0  0  0  0
    1.1051   56.9057   28.8817 H   0  0  0  0  0  0
    1.8994   57.4929   30.3412 H   0  0  0  0  0  0
    2.7193   56.3066   29.3308 H   0  0  0  0  0  0
    1.5681   54.7786   27.9586 H   0  0  0  0  0  0
   -0.2756   50.9458   28.5094 H   0  0  0  0  0  0
   -0.7107   51.4826   30.8397 H   0  0  0  0  0  0
   -0.6095   52.9838   32.4818 H   0  0  0  0  0  0
    0.5585   49.4352   23.4588 H   0  0  0  0  0  0
   -0.9606   48.2588   25.0122 H   0  0  0  0  0  0
    0.6702   48.0532   25.3846 H   0  0  0  0  0  0
    2.5924   50.7310   22.5789 H   0  0  0  0  0  0
    0.9739   51.0442   22.0038 H   0  0  0  0  0  0
    2.8414   52.3041   20.7831 H   0  0  0  0  0  0
    1.5261   53.2965   21.3499 H   0  0  0  0  0  0
    4.1859   52.9342   22.8289 H   0  0  0  0  0  0
    3.7483   54.3305   21.8696 H   0  0  0  0  0  0
    1.8683   54.8658   23.3437 H   0  0  0  0  0  0
    3.3056   54.7213   24.3210 H   0  0  0  0  0  0
  1  2  1  0  0  0
  1 22  1  0  0  0
  1 23  1  0  0  0
  1 24  1  0  0  0
  2  3  1  0  0  0
  3  8  2  0  0  0
  3  4  1  0  0  0
  4  5  2  0  0  0
  4 25  1  0  0  0
  5  6  1  0  0  0
  5 10  1  0  0  0
  6  7  2  0  0  0
  6 26  1  0  0  0
  7  8  1  0  0  0
  7 27  1  0  0  0
  8  9  1  0  0  0
  9 28  1  0  0  0
 10 15  2  0  0  0
 10 11  1  0  0  0
 11 12  2  0  0  0
 12 21  1  0  0  0
 12 13  1  0  0  0
 13 14  2  0  0  0
 13 18  1  0  0  0
 14 15  1  0  0  0
 14 16  1  0  0  0
 16 17  1  0  0  0
 16 29  1  0  0  0
 17 30  1  0  0  0
 17 31  1  0  0  0
 18 19  1  0  0  0
 18 32  1  0  0  0
 18 33  1  0  0  0
 19 20  1  0  0  0
 19 34  1  0  0  0
 19 35  1  0  0  0
 20 21  1  0  0  0
 20 36  1  0  0  0
 20 37  1  0  0  0
 21 38  1  0  0  0
 21 39  1  0  0  0
M  END
> <i_i_glide_confnum>
2

> <i_i_glide_lignum>
1864

> <i_i_glide_posenum>
395

> <i_i_glide_rotatable_bonds>
4

> <i_m_Source_File_Index>
2743

> <b_m_subgroup_collapsed>
0

> <r_i_docking_score>
-5.82108

> <r_i_glide_ecoul>
-6.67402

> <r_i_glide_eff_state_penalty>
0

> <r_i_glide_einternal>
0.285935

> <r_i_glide_emodel>
-53.4543

> <r_i_glide_energy>
-38.9013

> <r_i_glide_erotb>
0.221485

> <r_i_glide_esite>
-0.00323079

> <r_i_glide_evdw>
-32.2273

> <r_i_glide_gscore>
-5.82108

> <r_i_glide_hbond>
-0.0621903

> <r_i_glide_ligand_efficiency>
-0.277194

> <r_i_glide_ligand_efficiency_ln>
-1.43925

> <r_i_glide_ligand_efficiency_sa>
-0.764758

> <r_i_glide_lipo>
-1.78712

> <r_i_glide_metal>
0

> <r_i_glide_rewards>
-1.57756

> <s_i_glide_gridfile>
wee1_glide-grid

> <s_m_Source_File>
wee1_decoys_glide_SP.sdf

> <s_m_Source_Path>
/Users/zhangxujun/Desktop

> <s_m_entry_id>
3018

> <s_m_entry_name>
wee1_decoys_glide_SP.2743

> <s_m_subgroup_title>
wee1_decoys_glide_SP

> <s_m_subgroupid>
wee1_decoys_glide_SP


$$$$
