ZINC51171108_1801
                    3D
 Schrodinger Suite 2024-2.
 28 30  0  0  1  0            999 V2000
    6.8688   55.2965   21.7009 C   0  0  0  0  0  0
    6.4868   55.4037   20.3589 C   0  0  0  0  0  0
    5.2620   54.8059   20.0995 C   0  0  0  0  0  0
    4.5690   54.0957   21.5217 S   0  0  0  0  0  0
    5.9211   54.6349   22.4859 C   0  0  0  0  0  0
    6.0166   54.3260   23.8871 C   0  0  0  0  0  0
    7.1040   54.0336   24.3811 O   0  0  0  0  0  0
    4.8410   54.4264   24.5488 N   0  0  0  0  0  0
    4.5218   54.2403   25.9168 C   0  0  0  0  0  0
    3.1885   53.8546   26.1491 C   0  0  0  0  0  0
    2.7583   53.7019   27.4617 C   0  0  0  0  0  0
    3.5857   53.9283   28.5211 C   0  0  0  0  0  0
    4.9028   54.3260   28.3442 C   0  0  0  0  0  0
    5.3772   54.4810   27.0332 C   0  0  0  0  0  0
    6.6961   54.8987   26.8990 N   0  0  0  0  0  0
    2.8968   53.7527   29.6802 O   0  0  0  0  0  0
    1.6677   53.1893   29.3014 C   0  0  0  0  0  0
    1.5197   53.3826   27.9196 O   0  0  0  0  0  0
    4.4311   54.7194   18.5995 Cl  0  0  0  0  0  0
    7.8013   55.6887   22.0818 H   0  0  0  0  0  0
    7.0833   55.8894   19.6004 H   0  0  0  0  0  0
    4.0457   54.6295   23.9634 H   0  0  0  0  0  0
    2.5035   53.6847   25.3311 H   0  0  0  0  0  0
    5.5393   54.5258   29.1927 H   0  0  0  0  0  0
    7.2604   54.9381   27.7381 H   0  0  0  0  0  0
    7.1046   54.6549   25.9979 H   0  0  0  0  0  0
    1.6781   52.1176   29.5109 H   0  0  0  0  0  0
    0.8430   53.6524   29.8449 H   0  0  0  0  0  0
  1  5  2  0  0  0
  1  2  1  0  0  0
  1 20  1  0  0  0
  2  3  2  0  0  0
  2 21  1  0  0  0
  3  4  1  0  0  0
  3 19  1  0  0  0
  4  5  1  0  0  0
  5  6  1  0  0  0
  6  7  2  0  0  0
  6  8  1  0  0  0
  8  9  1  0  0  0
  8 22  1  0  0  0
  9 14  2  0  0  0
  9 10  1  0  0  0
 10 11  2  0  0  0
 10 23  1  0  0  0
 11 18  1  0  0  0
 11 12  1  0  0  0
 12 13  2  0  0  0
 12 16  1  0  0  0
 13 14  1  0  0  0
 13 24  1  0  0  0
 14 15  1  0  0  0
 15 25  1  0  0  0
 15 26  1  0  0  0
 16 17  1  0  0  0
 17 18  1  0  0  0
 17 27  1  0  0  0
 17 28  1  0  0  0
M  END
> <i_i_glide_confnum>
15

> <i_i_glide_lignum>
1802

> <i_i_glide_posenum>
5

> <i_i_glide_rotatable_bonds>
3

> <i_m_Source_File_Index>
3525

> <b_m_subgroup_collapsed>
0

> <r_i_docking_score>
-5.91035

> <r_i_glide_ecoul>
-1.77867

> <r_i_glide_eff_state_penalty>
0

> <r_i_glide_einternal>
9.49966

> <r_i_glide_emodel>
-47.5679

> <r_i_glide_energy>
-38.1694

> <r_i_glide_erotb>
0.624353

> <r_i_glide_esite>
0

> <r_i_glide_evdw>
-36.3907

> <r_i_glide_gscore>
-5.91035

> <r_i_glide_hbond>
-0.236868

> <r_i_glide_ligand_efficiency>
-0.311071

> <r_i_glide_ligand_efficiency_ln>
-1.4984

> <r_i_glide_ligand_efficiency_sa>
-0.830063

> <r_i_glide_lipo>
-2.17046

> <r_i_glide_metal>
0

> <r_i_glide_rewards>
-2.04104

> <s_i_glide_gridfile>
wee1_glide-grid

> <s_m_Source_File>
wee1_decoys_glide_SP.sdf

> <s_m_Source_Path>
/Users/zhangxujun/Desktop

> <s_m_entry_id>
3800

> <s_m_entry_name>
wee1_decoys_glide_SP.3525

> <s_m_subgroup_title>
wee1_decoys_glide_SP

> <s_m_subgroupid>
wee1_decoys_glide_SP


$$$$
