@<TRIPOS>MOLECULE
ZINC02414324_2391
59   62    1
SMALL
USER_CHARGES


@<TRIPOS>ATOM
      1 C1          2.2292   55.1629   29.4861 C.3       1 UNK         0.0000 
      2 C2          2.8588   53.7641   29.2405 C.3       1 UNK         0.0000 
      3 C3          4.2969   53.7639   29.8127 C.3       1 UNK         0.0000 
      4 C4          2.0412   52.7155   30.0404 C.3       1 UNK         0.0000 
      5 C5          2.8942   53.3830   27.7114 C.3       1 UNK         0.0000 
      6 H6          3.2248   52.3425   27.6661 H         1 UNK         0.0000 
      7 C7          1.5051   53.4709   27.0321 C.3       1 UNK         0.0000 
      8 C8          1.4773   52.8819   25.6105 C.3       1 UNK         0.0000 
      9 C9          2.6682   53.3957   24.7923 C.2       1 UNK         0.0000 
     10 C10         3.7653   54.0019   25.4160 C.2       1 UNK         0.0000 
     11 S11         4.9741   54.4956   24.2931 S.3       1 UNK         0.0000 
     12 C12         4.0183   53.9305   22.9463 C.2       1 UNK         0.0000 
     13 C13         2.8338   53.2964   23.3836 C.2       1 UNK         0.0000 
     14 C14         1.8596   52.6665   22.5101 C.2       1 UNK         0.0000 
     15 O15         0.6486   52.7537   22.7110 O.2       1 UNK         0.0000 
     16 N16         2.3857   51.9680   21.4870 N.am      1 UNK         0.0000 
     17 C17         1.5954   51.2732   20.4759 C.3       1 UNK         0.0000 
     18 H18         0.7723   50.7016   20.9169 H         1 UNK         0.0000 
     19 C19         2.4885   50.2675   19.7147 C.3       1 UNK         0.0000 
     20 C20         1.7246   49.7649   18.4838 C.3       1 UNK         0.0000 
     21 S21         0.7922   51.2647   17.8647 S.o2      1 UNK         0.0000 
     22 O22         1.5141   51.9198   16.7700 O.2       1 UNK         0.0000 
     23 O23        -0.6236   50.9171   17.7234 O.2       1 UNK         0.0000 
     24 C24         1.0408   52.2555   19.4303 C.3       1 UNK         0.0000 
     25 N25         4.4122   54.0941   21.6178 N.am      1 UNK         0.0000 
     26 C26         5.5046   54.7093   21.1202 C.2       1 UNK         0.0000 
     27 O27         6.3703   55.2981   21.7696 O.2       1 UNK         0.0000 
     28 C28         5.5806   54.6331   19.6863 C.2       1 UNK         0.0000 
     29 C29         5.0848   53.7020   18.7730 C.2       1 UNK         0.0000 
     30 C30         5.5581   54.0773   17.5150 C.2       1 UNK         0.0000 
     31 C31         6.3518   55.1941   17.7147 C.2       1 UNK         0.0000 
     32 O32         6.3852   55.5154   19.0332 O.3       1 UNK         0.0000 
     33 C33         3.9136   54.2438   26.9066 C.3       1 UNK         0.0000 
     34 H34         1.1812   55.1992   29.1885 H         1 UNK         0.0000 
     35 H35         2.2527   55.4431   30.5363 H         1 UNK         0.0000 
     36 H36         2.7481   55.9555   28.9494 H         1 UNK         0.0000 
     37 H37         4.8135   52.8334   29.5723 H         1 UNK         0.0000 
     38 H38         4.8986   54.5887   29.4279 H         1 UNK         0.0000 
     39 H39         4.3015   53.8635   30.8943 H         1 UNK         0.0000 
     40 H40         2.3919   51.7012   29.8471 H         1 UNK         0.0000 
     41 H41         2.1121   52.8830   31.1159 H         1 UNK         0.0000 
     42 H42         0.9777   52.7418   29.8013 H         1 UNK         0.0000 
     43 H43         0.7631   52.9295   27.6164 H         1 UNK         0.0000 
     44 H44         1.1544   54.4972   27.0432 H         1 UNK         0.0000 
     45 H45         0.5254   53.1512   25.1553 H         1 UNK         0.0000 
     46 H46         1.5033   51.7925   25.6563 H         1 UNK         0.0000 
     47 H47         3.3735   51.7628   21.5063 H         1 UNK         0.0000 
     48 H48         3.4211   50.7421   19.4020 H         1 UNK         0.0000 
     49 H49         2.7897   49.4423   20.3610 H         1 UNK         0.0000 
     50 H50         2.3043   49.3120   17.6808 H         1 UNK         0.0000 
     51 H51         0.9807   49.0382   18.8097 H         1 UNK         0.0000 
     52 H52         0.2011   52.8961   19.6926 H         1 UNK         0.0000 
     53 H53         1.8607   52.9220   19.1592 H         1 UNK         0.0000 
     54 H54         3.7593   53.7404   20.9338 H         1 UNK         0.0000 
     55 H55         4.4632   52.8434   18.9809 H         1 UNK         0.0000 
     56 H56         5.3608   53.5757   16.5776 H         1 UNK         0.0000 
     57 H57         6.9350   55.8222   17.0573 H         1 UNK         0.0000 
     58 H58         4.9354   54.0131   27.2073 H         1 UNK         0.0000 
     59 H59         3.7474   55.2970   27.0945 H         1 UNK         0.0000 
@<TRIPOS>BOND
     1    1    2 1    
     2    1   34 1    
     3    1   35 1    
     4    1   36 1    
     5    2    3 1    
     6    2    4 1    
     7    2    5 1    
     8    3   37 1    
     9    3   38 1    
    10    3   39 1    
    11    4   40 1    
    12    4   41 1    
    13    4   42 1    
    14    5    6 1    
    15    5   33 1    
    16    5    7 1    
    17    7    8 1    
    18    7   43 1    
    19    7   44 1    
    20    8    9 1    
    21    8   45 1    
    22    8   46 1    
    23    9   13 1    
    24    9   10 2    
    25   10   11 1    
    26   10   33 1    
    27   11   12 1    
    28   12   13 2    
    29   12   25 am   BACKBONE|DICT|INTERRES
    30   13   14 1    
    31   14   15 2    
    32   14   16 am   BACKBONE|DICT|INTERRES
    33   16   17 1    
    34   16   47 1    
    35   17   18 1    
    36   17   24 1    
    37   17   19 1    
    38   19   20 1    
    39   19   48 1    
    40   19   49 1    
    41   20   21 1    
    42   20   50 1    
    43   20   51 1    
    44   21   22 2    
    45   21   23 2    
    46   21   24 1    
    47   24   52 1    
    48   24   53 1    
    49   25   26 am   BACKBONE|DICT|INTERRES
    50   25   54 1    
    51   26   27 2    
    52   26   28 1    
    53   28   32 1    
    54   28   29 2    
    55   29   30 1    
    56   29   55 1    
    57   30   31 2    
    58   30   56 1    
    59   31   32 1    
    60   31   57 1    
    61   33   58 1    
    62   33   59 1    
@<TRIPOS>SUBSTRUCTURE
     1 UNK         1 GROUP             0       ****    0 ROOT    
