ZINC08900950_5981
                    3D
 Schrodinger Suite 2024-2.
 53 56  0  0  1  0            999 V2000
    5.9932   54.4482   25.5445 C   0  0  0  0  0  0
    5.5116   54.4642   24.0964 C   0  0  0  0  0  0
    6.4170   54.8478   23.0982 C   0  0  0  0  0  0
    6.0307   54.8921   21.7581 C   0  0  0  0  0  0
    4.7351   54.4875   21.4107 C   0  0  0  0  0  0
    3.8272   54.1023   22.3928 C   0  0  0  0  0  0
    4.1952   54.0979   23.7473 C   0  0  0  0  0  0
    3.2951   53.7759   24.7870 N   0  0  0  0  0  0
    2.0898   53.1652   24.7309 C   0  0  0  0  0  0
    1.5144   52.7951   23.7093 O   0  0  0  0  0  0
    1.5035   52.9274   26.0264 C   0  0  0  0  0  0
    0.4476   52.0951   26.3894 C   0  0  0  0  0  0
    0.2770   52.2423   27.7990 C   0  0  0  0  0  0
   -0.5629   51.6967   28.7807 C   0  0  0  0  0  0
   -0.4035   52.1154   30.1050 C   0  0  0  0  0  0
    0.5524   53.0710   30.4619 C   0  0  0  0  0  0
    1.3982   53.6382   29.5066 C   0  0  0  0  0  0
    1.2450   53.1972   28.1873 C   0  0  0  0  0  0
    1.9850   53.6074   27.1151 O   0  0  0  0  0  0
    6.9877   55.2980   20.8135 N   0  0  0  0  0  0
    6.7578   55.8762   19.6163 C   0  0  0  0  0  0
    5.6513   56.2280   19.2087 O   0  0  0  0  0  0
    7.9840   56.0911   18.7706 C   0  0  0  0  0  0
    8.8254   55.0081   18.4796 C   0  0  0  0  0  0
    9.9530   55.1804   17.6809 C   0  0  0  0  0  0
   10.2705   56.4412   17.1875 C   0  0  0  0  0  0
    9.4529   57.5363   17.4695 C   0  0  0  0  0  0
    8.2947   57.3627   18.2476 C   0  0  0  0  0  0
    7.5048   58.4494   18.5410 O   0  0  0  0  0  0
    6.4884   58.7194   17.5805 C   0  0  0  0  0  0
    9.8397   58.9108   16.9458 C   0  0  0  0  0  0
   11.0740   53.6969   17.2831 Br  0  0  0  0  0  0
    7.0745   54.5570   25.6206 H   0  0  0  0  0  0
    5.5185   55.2453   26.1155 H   0  0  0  0  0  0
    5.7375   53.4995   26.0192 H   0  0  0  0  0  0
    7.4240   55.1324   23.3729 H   0  0  0  0  0  0
    4.4043   54.4742   20.3835 H   0  0  0  0  0  0
    2.8324   53.8419   22.0656 H   0  0  0  0  0  0
    3.6286   53.9775   25.7161 H   0  0  0  0  0  0
   -0.1076   51.4572   25.7176 H   0  0  0  0  0  0
   -1.2964   50.9432   28.5295 H   0  0  0  0  0  0
   -1.0296   51.6860   30.8786 H   0  0  0  0  0  0
    0.6344   53.3654   31.4989 H   0  0  0  0  0  0
    2.1414   54.3763   29.7631 H   0  0  0  0  0  0
    7.9530   55.1873   21.0820 H   0  0  0  0  0  0
    8.6036   54.0202   18.8584 H   0  0  0  0  0  0
   11.1602   56.5586   16.5850 H   0  0  0  0  0  0
    5.6977   59.2965   18.0556 H   0  0  0  0  0  0
    6.8720   59.3041   16.7461 H   0  0  0  0  0  0
    6.0272   57.8158   17.1790 H   0  0  0  0  0  0
   10.8330   58.9179   16.4881 H   0  0  0  0  0  0
    9.1179   59.2534   16.2019 H   0  0  0  0  0  0
    9.8407   59.6379   17.7602 H   0  0  0  0  0  0
  1  2  1  0  0  0
  1 33  1  0  0  0
  1 34  1  0  0  0
  1 35  1  0  0  0
  2  7  2  0  0  0
  2  3  1  0  0  0
  3  4  2  0  0  0
  3 36  1  0  0  0
  4  5  1  0  0  0
  4 20  1  0  0  0
  5  6  2  0  0  0
  5 37  1  0  0  0
  6  7  1  0  0  0
  6 38  1  0  0  0
  7  8  1  0  0  0
  8  9  1  0  0  0
  8 39  1  0  0  0
  9 10  2  0  0  0
  9 11  1  0  0  0
 11 19  1  0  0  0
 11 12  2  0  0  0
 12 13  1  0  0  0
 12 40  1  0  0  0
 13 18  2  0  0  0
 13 14  1  0  0  0
 14 15  2  0  0  0
 14 41  1  0  0  0
 15 16  1  0  0  0
 15 42  1  0  0  0
 16 17  2  0  0  0
 16 43  1  0  0  0
 17 18  1  0  0  0
 17 44  1  0  0  0
 18 19  1  0  0  0
 20 21  1  0  0  0
 20 45  1  0  0  0
 21 22  2  0  0  0
 21 23  1  0  0  0
 23 28  2  0  0  0
 23 24  1  0  0  0
 24 25  2  0  0  0
 24 46  1  0  0  0
 25 26  1  0  0  0
 25 32  1  0  0  0
 26 27  2  0  0  0
 26 47  1  0  0  0
 27 28  1  0  0  0
 27 31  1  0  0  0
 28 29  1  0  0  0
 29 30  1  0  0  0
 30 48  1  0  0  0
 30 49  1  0  0  0
 30 50  1  0  0  0
 31 51  1  0  0  0
 31 52  1  0  0  0
 31 53  1  0  0  0
M  END
> <i_i_glide_confnum>
46

> <i_i_glide_lignum>
5982

> <i_i_glide_posenum>
390

> <i_i_glide_rotatable_bonds>
7

> <i_m_Source_File_Index>
3699

> <b_m_subgroup_collapsed>
0

> <r_i_docking_score>
-5.10976

> <r_i_glide_ecoul>
-2.74008

> <r_i_glide_eff_state_penalty>
0

> <r_i_glide_einternal>
3.94788

> <r_i_glide_emodel>
-60.7343

> <r_i_glide_energy>
-46.8892

> <r_i_glide_erotb>
0.502172

> <r_i_glide_esite>
0

> <r_i_glide_evdw>
-44.1492

> <r_i_glide_gscore>
-5.10976

> <r_i_glide_hbond>
0

> <r_i_glide_ligand_efficiency>
-0.15968

> <r_i_glide_ligand_efficiency_ln>
-1.14421

> <r_i_glide_ligand_efficiency_sa>
-0.506953

> <r_i_glide_lipo>
-2.4885

> <r_i_glide_metal>
0

> <r_i_glide_rewards>
-0.504963

> <s_i_glide_gridfile>
wee1_glide-grid

> <s_m_Source_File>
wee1_decoys_glide_SP.sdf

> <s_m_Source_Path>
/Users/zhangxujun/Desktop

> <s_m_entry_id>
3974

> <s_m_entry_name>
wee1_decoys_glide_SP.3699

> <s_m_subgroup_title>
wee1_decoys_glide_SP

> <s_m_subgroupid>
wee1_decoys_glide_SP


$$$$
