@<TRIPOS>MOLECULE
ZINC00673420_2795
59   64    1
SMALL
USER_CHARGES


@<TRIPOS>ATOM
      1 C1          3.9046   53.7253   29.7132 C.ar      1 UNK         0.0000 
      2 C2          3.0126   52.7516   30.1568 C.ar      1 UNK         0.0000 
      3 C3          2.1317   52.1659   29.2541 C.ar      1 UNK         0.0000 
      4 C4          2.1322   52.5546   27.9059 C.ar      1 UNK         0.0000 
      5 C5          3.0643   53.5141   27.4740 C.ar      1 UNK         0.0000 
      6 C6          3.9453   54.0994   28.3767 C.ar      1 UNK         0.0000 
      7 C7          1.1009   51.9382   26.9423 C.3       1 UNK         0.0000 
      8 H8          1.2974   50.8653   26.9742 H         1 UNK         0.0000 
      9 C9          1.1654   52.4964   25.5042 C.3       1 UNK         0.0000 
     10 C10         0.0390   51.9867   24.5866 C.2       1 UNK         0.0000 
     11 C11        -1.1397   51.5389   25.1131 C.2       1 UNK         0.0000 
     12 C12        -2.3145   51.0691   24.2088 C.3       1 UNK         0.0000 
     13 H13        -2.5735   50.0564   24.5184 H         1 UNK         0.0000 
     14 C14        -1.9104   51.0624   22.7346 C.2       1 UNK         0.0000 
     15 C15        -0.7215   51.5284   22.3035 C.2       1 UNK         0.0000 
     16 N16         0.2831   51.9503   23.1927 N.pl3     1 UNK         0.0000 
     17 C17         1.5636   52.3339   22.6875 C.ar      1 UNK         0.0000 
     18 C18         1.9584   53.6735   22.8213 C.ar      1 UNK         0.0000 
     19 C19         3.1992   54.1064   22.3583 C.ar      1 UNK         0.0000 
     20 C20         4.0531   53.2249   21.7059 C.ar      1 UNK         0.0000 
     21 C21         3.6757   51.8958   21.5415 C.ar      1 UNK         0.0000 
     22 C22         2.4519   51.4339   22.0416 C.ar      1 UNK         0.0000 
     23 C23         2.1483   50.0184   21.8485 C.1       1 UNK         0.0000 
     24 N24         1.9050   48.9005   21.6831 N.1       1 UNK         0.0000 
     25 N25        -0.4499   51.6587   20.9546 N.pl3     1 UNK         0.0000 
     26 C26        -2.8939   50.6297   21.7897 C.1       1 UNK         0.0000 
     27 N27        -3.6716   50.2989   20.9997 N.1       1 UNK         0.0000 
     28 C28        -3.5842   51.9017   24.4234 C.ar      1 UNK         0.0000 
     29 C29        -3.5011   53.2984   24.2875 C.ar      1 UNK         0.0000 
     30 C30        -4.5926   54.1231   24.5734 C.ar      1 UNK         0.0000 
     31 C31        -5.7747   53.5073   24.9644 C.ar      1 UNK         0.0000 
     32 C32        -5.8759   52.1485   25.0739 C.ar      1 UNK         0.0000 
     33 C33        -4.7998   51.3055   24.8148 C.ar      1 UNK         0.0000 
     34 O34        -7.1250   51.8268   25.5051 O.3       1 UNK         0.0000 
     35 C35        -7.8621   53.0218   25.4445 C.3       1 UNK         0.0000 
     36 O36        -6.9506   54.0815   25.3263 O.3       1 UNK         0.0000 
     37 C37        -1.4089   51.5609   26.5818 C.2       1 UNK         0.0000 
     38 O38        -2.5111   51.2948   27.0548 O.2       1 UNK         0.0000 
     39 C39        -0.3159   52.0699   27.5241 C.3       1 UNK         0.0000 
     40 H40         4.5866   54.1950   30.4066 H         1 UNK         0.0000 
     41 H41         2.9947   52.4645   31.1986 H         1 UNK         0.0000 
     42 H42         1.4353   51.4187   29.6085 H         1 UNK         0.0000 
     43 H43         3.1228   53.8292   26.4418 H         1 UNK         0.0000 
     44 H44         4.6528   54.8458   28.0416 H         1 UNK         0.0000 
     45 H45         1.1064   53.5851   25.4854 H         1 UNK         0.0000 
     46 H46         2.1431   52.1735   25.1437 H         1 UNK         0.0000 
     47 H47         1.2986   54.3906   23.2884 H         1 UNK         0.0000 
     48 H48         3.4873   55.1408   22.4728 H         1 UNK         0.0000 
     49 H49         4.9998   53.5706   21.3179 H         1 UNK         0.0000 
     50 H50         4.3532   51.2277   21.0252 H         1 UNK         0.0000 
     51 H51        -1.0933   51.3153   20.2565 H         1 UNK         0.0000 
     52 H52         0.3893   52.1215   20.6320 H         1 UNK         0.0000 
     53 H53        -2.5644   53.7480   23.9874 H         1 UNK         0.0000 
     54 H54        -4.4980   55.1939   24.4897 H         1 UNK         0.0000 
     55 H55        -4.8828   50.2365   24.9419 H         1 UNK         0.0000 
     56 H56        -8.4756   53.1368   26.3383 H         1 UNK         0.0000 
     57 H57        -8.5030   53.0000   24.5602 H         1 UNK         0.0000 
     58 H58        -0.4348   51.5337   28.4660 H         1 UNK         0.0000 
     59 H59        -0.5182   53.1213   27.7201 H         1 UNK         0.0000 
@<TRIPOS>BOND
     1    1    6 ar   
     2    1    2 ar   
     3    1   40 1    
     4    2    3 ar   
     5    2   41 1    
     6    3    4 ar   
     7    3   42 1    
     8    4    5 ar   
     9    4    7 1    
    10    5    6 ar   
    11    5   43 1    
    12    6   44 1    
    13    7    8 1    
    14    7   39 1    
    15    7    9 1    
    16    9   10 1    
    17    9   45 1    
    18    9   46 1    
    19   10   16 1    
    20   10   11 2    
    21   11   12 1    
    22   11   37 1    
    23   12   13 1    
    24   12   14 1    
    25   12   28 1    
    26   14   15 2    
    27   14   26 1    
    28   15   16 1    
    29   15   25 1    
    30   16   17 1    
    31   17   22 ar   
    32   17   18 ar   
    33   18   19 ar   
    34   18   47 1    
    35   19   20 ar   
    36   19   48 1    
    37   20   21 ar   
    38   20   49 1    
    39   21   22 ar   
    40   21   50 1    
    41   22   23 1    
    42   23   24 3    
    43   25   51 1    
    44   25   52 1    
    45   26   27 3    
    46   28   33 ar   
    47   28   29 ar   
    48   29   30 ar   
    49   29   53 1    
    50   30   31 ar   
    51   30   54 1    
    52   31   36 1    
    53   31   32 ar   
    54   32   33 ar   
    55   32   34 1    
    56   33   55 1    
    57   34   35 1    
    58   35   36 1    
    59   35   56 1    
    60   35   57 1    
    61   37   38 2    
    62   37   39 1    
    63   39   58 1    
    64   39   59 1    
@<TRIPOS>SUBSTRUCTURE
     1 UNK         1 GROUP             0       ****    0 ROOT    
