ZINC33063341_4441
                    3D
 Schrodinger Suite 2024-2.
 50 53  0  0  1  0            999 V2000
    5.8753   54.5306   24.2547 C   0  0  0  0  0  0
    6.8758   54.4935   25.2165 C   0  0  0  0  0  0
    6.5518   54.3919   26.5698 C   0  0  0  0  0  0
    5.2105   54.3516   26.9646 C   0  0  0  0  0  0
    4.2092   54.4298   25.9806 C   0  0  0  0  0  0
    4.5384   54.4967   24.6322 C   0  0  0  0  0  0
    4.8693   54.1826   28.4543 C   0  0  0  0  0  0
    3.4614   53.8615   28.6814 N   0  0  0  0  0  0
    2.9462   52.7843   29.2951 C   0  0  0  0  0  0
    3.5223   52.1229   30.1590 O   0  0  0  0  0  0
    1.5921   52.3958   28.7690 C   0  0  0  0  0  0
    1.3976   52.3116   27.3852 C   0  0  0  0  0  0
    0.1591   51.9737   26.8655 C   0  0  0  0  0  0
   -0.9103   51.7094   27.7223 C   0  0  0  0  0  0
   -0.7124   51.7455   29.1089 C   0  0  0  0  0  0
    0.5327   52.0968   29.6323 C   0  0  0  0  0  0
   -2.2772   51.4008   27.1225 C   0  0  2  0  0  0
   -2.9797   51.3715   27.9558 H   0  0  0  0  0  0
   -2.2818   50.0967   26.4819 N   0  0  0  0  0  0
   -3.2910   49.7374   25.5713 C   0  0  0  0  0  0
   -3.3406   48.4028   25.1680 C   0  0  0  0  0  0
   -4.2895   47.9655   24.2378 C   0  0  0  0  0  0
   -5.2057   48.8901   23.7178 C   0  0  0  0  0  0
   -5.1793   50.2223   24.1328 C   0  0  0  0  0  0
   -4.2388   50.6499   25.0732 C   0  0  0  0  0  0
   -4.3217   52.3420   25.6368 S   0  0  0  0  0  0
   -5.2687   52.4088   26.7549 O   0  0  0  0  0  0
   -4.5057   53.2287   24.4838 O   0  0  0  0  0  0
   -2.6994   52.4976   26.2407 N   0  0  0  0  0  0
   -4.3132   46.4963   23.8124 C   0  0  0  0  0  0
   -4.2211   45.6970   24.8776 F   0  0  0  0  0  0
   -5.4297   46.1774   23.1549 F   0  0  0  0  0  0
   -3.2705   46.2522   23.0152 F   0  0  0  0  0  0
    6.1359   54.5846   23.2084 H   0  0  0  0  0  0
    7.9041   54.5141   24.8865 H   0  0  0  0  0  0
    7.3405   54.3315   27.3081 H   0  0  0  0  0  0
    3.1634   54.4314   26.2416 H   0  0  0  0  0  0
    3.7613   54.5338   23.8833 H   0  0  0  0  0  0
    5.5127   53.4032   28.8723 H   0  0  0  0  0  0
    5.1299   55.0972   28.9921 H   0  0  0  0  0  0
    2.8040   54.4767   28.2289 H   0  0  0  0  0  0
    2.2098   52.4914   26.6960 H   0  0  0  0  0  0
    0.0303   51.9150   25.7942 H   0  0  0  0  0  0
   -1.5210   51.5064   29.7838 H   0  0  0  0  0  0
    0.6634   52.1275   30.7037 H   0  0  0  0  0  0
   -1.8768   49.3747   27.0901 H   0  0  0  0  0  0
   -2.6223   47.7021   25.5733 H   0  0  0  0  0  0
   -5.9535   48.5821   22.9996 H   0  0  0  0  0  0
   -5.9081   50.9181   23.7413 H   0  0  0  0  0  0
   -2.0098   52.7888   25.5478 H   0  0  0  0  0  0
  1  6  2  0  0  0
  1  2  1  0  0  0
  1 34  1  0  0  0
  2  3  2  0  0  0
  2 35  1  0  0  0
  3  4  1  0  0  0
  3 36  1  0  0  0
  4  5  2  0  0  0
  4  7  1  0  0  0
  5  6  1  0  0  0
  5 37  1  0  0  0
  6 38  1  0  0  0
  7  8  1  0  0  0
  7 39  1  0  0  0
  7 40  1  0  0  0
  8  9  1  0  0  0
  8 41  1  0  0  0
  9 10  2  0  0  0
  9 11  1  0  0  0
 11 16  2  0  0  0
 11 12  1  0  0  0
 12 13  2  0  0  0
 12 42  1  0  0  0
 13 14  1  0  0  0
 13 43  1  0  0  0
 14 15  2  0  0  0
 14 17  1  0  0  0
 15 16  1  0  0  0
 15 44  1  0  0  0
 16 45  1  0  0  0
 17 18  1  0  0  0
 17 29  1  0  0  0
 17 19  1  0  0  0
 19 20  1  0  0  0
 19 46  1  0  0  0
 20 25  2  0  0  0
 20 21  1  0  0  0
 21 22  2  0  0  0
 21 47  1  0  0  0
 22 23  1  0  0  0
 22 30  1  0  0  0
 23 24  2  0  0  0
 23 48  1  0  0  0
 24 25  1  0  0  0
 24 49  1  0  0  0
 25 26  1  0  0  0
 26 27  2  0  0  0
 26 28  2  0  0  0
 26 29  1  0  0  0
 29 50  1  0  0  0
 30 31  1  0  0  0
 30 32  1  0  0  0
 30 33  1  0  0  0
M  END
> <i_i_glide_confnum>
3

> <i_i_glide_lignum>
4442

> <i_i_glide_posenum>
76

> <i_i_glide_rotatable_bonds>
6

> <i_m_Source_File_Index>
5488

> <b_m_subgroup_collapsed>
0

> <r_i_docking_score>
-6.27832

> <r_i_glide_ecoul>
-8.94374

> <r_i_glide_eff_state_penalty>
0

> <r_i_glide_einternal>
9.20898

> <r_i_glide_emodel>
-65.1977

> <r_i_glide_energy>
-49.3574

> <r_i_glide_erotb>
0.378248

> <r_i_glide_esite>
-0.261005

> <r_i_glide_evdw>
-40.4137

> <r_i_glide_gscore>
-6.27832

> <r_i_glide_hbond>
-0.348048

> <r_i_glide_ligand_efficiency>
-0.196198

> <r_i_glide_ligand_efficiency_ln>
-1.40589

> <r_i_glide_ligand_efficiency_sa>
-0.622889

> <r_i_glide_lipo>
-2.20713

> <r_i_glide_metal>
0

> <r_i_glide_rewards>
-0.478138

> <s_i_glide_gridfile>
wee1_glide-grid

> <s_m_Source_File>
wee1_decoys_glide_SP.sdf

> <s_m_Source_Path>
/Users/zhangxujun/Desktop

> <s_m_entry_id>
5763

> <s_m_entry_name>
wee1_decoys_glide_SP.5488

> <s_m_subgroup_title>
wee1_decoys_glide_SP

> <s_m_subgroupid>
wee1_decoys_glide_SP


$$$$
