ZINC13389882_5891
                    3D
 Schrodinger Suite 2024-2.
 64 66  0  0  1  0            999 V2000
   -1.0487   51.3739   26.7977 C   0  0  0  0  0  0
    0.3040   52.0193   27.0524 C   0  0  0  0  0  0
    0.7486   52.0696   28.3741 C   0  0  0  0  0  0
    1.9582   52.6747   28.6959 C   0  0  0  0  0  0
    2.7555   53.2692   27.7091 C   0  0  0  0  0  0
    2.3041   53.2118   26.3786 C   0  0  0  0  0  0
    1.1011   52.5790   26.0325 C   0  0  0  0  0  0
    0.6644   52.4909   24.2742 S   0  0  0  0  0  0
   -0.5399   53.3060   24.0817 O   0  0  0  0  0  0
    1.8895   52.7718   23.5158 O   0  0  0  0  0  0
    0.2207   50.8025   23.9706 N   0  0  0  0  0  0
    1.2694   49.7942   23.6778 C   0  0  0  0  0  0
    1.1538   49.2894   22.2225 C   0  0  0  0  0  0
   -0.2982   48.7750   22.0148 C   0  0  0  0  0  0
   -1.3086   49.9315   22.1921 C   0  0  0  0  0  0
   -1.1856   50.4330   23.6423 C   0  0  0  0  0  0
   -0.4960   48.1589   20.6173 C   0  0  0  0  0  0
    0.0208   48.6624   19.6206 O   0  0  0  0  0  0
   -1.2543   47.0488   20.5821 N   0  0  0  0  0  0
   -1.5309   46.1908   19.4250 C   0  0  1  0  0  0
   -0.5686   45.7935   19.0901 H   0  0  0  0  0  0
   -2.4207   44.9892   19.8398 C   0  0  0  0  0  0
   -1.7440   44.0965   20.8869 C   0  0  0  0  0  0
   -0.8947   43.2736   20.4811 O   0  0  0  0  0  0
   -2.1579   46.9678   18.2715 C   0  0  0  0  0  0
   -1.6155   47.2590   17.0190 C   0  0  0  0  0  0
   -2.4608   47.9843   16.1752 C   0  0  0  0  0  0
   -3.6811   48.2629   16.7618 C   0  0  0  0  0  0
   -3.7744   47.6265   18.3674 S   0  0  0  0  0  0
    4.0886   53.9489   28.1144 C   0  0  0  0  0  0
    4.7967   54.6579   26.9326 C   0  0  0  0  0  0
    5.0694   52.8957   28.6705 C   0  0  0  0  0  0
    3.8374   55.0004   29.2206 C   0  0  0  0  0  0
   -1.6773   51.4056   27.6887 H   0  0  0  0  0  0
   -1.6033   51.9031   26.0249 H   0  0  0  0  0  0
   -0.9271   50.3288   26.5137 H   0  0  0  0  0  0
    0.1531   51.6305   29.1628 H   0  0  0  0  0  0
    2.2678   52.6779   29.7294 H   0  0  0  0  0  0
    2.8984   53.6411   25.5870 H   0  0  0  0  0  0
    2.2493   50.2443   23.8380 H   0  0  0  0  0  0
    1.1727   48.9858   24.4048 H   0  0  0  0  0  0
    1.3917   50.1330   21.5707 H   0  0  0  0  0  0
    1.8965   48.4966   22.1170 H   0  0  0  0  0  0
   -0.5215   47.9731   22.7231 H   0  0  0  0  0  0
   -2.3419   49.5986   22.0757 H   0  0  0  0  0  0
   -1.0874   50.7780   21.5376 H   0  0  0  0  0  0
   -1.5197   49.6809   24.3584 H   0  0  0  0  0  0
   -1.8347   51.2970   23.7841 H   0  0  0  0  0  0
   -1.4575   46.6187   21.4735 H   0  0  0  0  0  0
   -3.3778   45.3357   20.2332 H   0  0  0  0  0  0
   -2.6525   44.3734   18.9701 H   0  0  0  0  0  0
   -0.6195   46.9556   16.7286 H   0  0  0  0  0  0
   -2.1878   48.2931   15.1769 H   0  0  0  0  0  0
   -4.5125   48.8052   16.3374 H   0  0  0  0  0  0
    5.6959   55.1835   27.2579 H   0  0  0  0  0  0
    4.1453   55.3935   26.4626 H   0  0  0  0  0  0
    5.1087   53.9483   26.1641 H   0  0  0  0  0  0
    4.7048   52.4362   29.5902 H   0  0  0  0  0  0
    5.2348   52.0968   27.9538 H   0  0  0  0  0  0
    6.0466   53.3321   28.8817 H   0  0  0  0  0  0
    3.3788   54.5643   30.1046 H   0  0  0  0  0  0
    4.7727   55.4505   29.5573 H   0  0  0  0  0  0
    3.1757   55.7977   28.8810 H   0  0  0  0  0  0
   -2.0964   44.2252   22.0815 O   0  5  0  0  0  0
  1  2  1  0  0  0
  1 34  1  0  0  0
  1 35  1  0  0  0
  1 36  1  0  0  0
  2  7  2  0  0  0
  2  3  1  0  0  0
  3  4  2  0  0  0
  3 37  1  0  0  0
  4  5  1  0  0  0
  4 38  1  0  0  0
  5  6  2  0  0  0
  5 30  1  0  0  0
  6  7  1  0  0  0
  6 39  1  0  0  0
  7  8  1  0  0  0
  8  9  2  0  0  0
  8 10  2  0  0  0
  8 11  1  0  0  0
 11 16  1  0  0  0
 11 12  1  0  0  0
 12 13  1  0  0  0
 12 40  1  0  0  0
 12 41  1  0  0  0
 13 14  1  0  0  0
 13 42  1  0  0  0
 13 43  1  0  0  0
 14 15  1  0  0  0
 14 17  1  0  0  0
 14 44  1  0  0  0
 15 16  1  0  0  0
 15 45  1  0  0  0
 15 46  1  0  0  0
 16 47  1  0  0  0
 16 48  1  0  0  0
 17 18  2  0  0  0
 17 19  1  0  0  0
 19 20  1  0  0  0
 19 49  1  0  0  0
 20 21  1  0  0  0
 20 22  1  0  0  0
 20 25  1  0  0  0
 22 23  1  0  0  0
 22 50  1  0  0  0
 22 51  1  0  0  0
 23 24  2  0  0  0
 23 64  1  0  0  0
 25 29  1  0  0  0
 25 26  2  0  0  0
 26 27  1  0  0  0
 26 52  1  0  0  0
 27 28  2  0  0  0
 27 53  1  0  0  0
 28 29  1  0  0  0
 28 54  1  0  0  0
 30 31  1  0  0  0
 30 32  1  0  0  0
 30 33  1  0  0  0
 31 55  1  0  0  0
 31 56  1  0  0  0
 31 57  1  0  0  0
 32 58  1  0  0  0
 32 59  1  0  0  0
 32 60  1  0  0  0
 33 61  1  0  0  0
 33 62  1  0  0  0
 33 63  1  0  0  0
M  CHG  1  64  -1
M  END
> <i_i_glide_confnum>
148

> <i_i_glide_lignum>
5892

> <i_i_glide_posenum>
279

> <i_i_glide_rotatable_bonds>
9

> <i_m_Source_File_Index>
1141

> <b_m_subgroup_collapsed>
0

> <r_i_docking_score>
-3.65148

> <r_i_glide_ecoul>
-6.22675

> <r_i_glide_eff_state_penalty>
0

> <r_i_glide_einternal>
8.47818

> <r_i_glide_emodel>
-41.0194

> <r_i_glide_energy>
-35.5217

> <r_i_glide_erotb>
0.505364

> <r_i_glide_esite>
-0.0486289

> <r_i_glide_evdw>
-29.295

> <r_i_glide_gscore>
-3.65148

> <r_i_glide_hbond>
-0.4

> <r_i_glide_ligand_efficiency>
-0.110651

> <r_i_glide_ligand_efficiency_ln>
-0.812069

> <r_i_glide_ligand_efficiency_sa>
-0.354916

> <r_i_glide_lipo>
-1.77417

> <r_i_glide_metal>
0

> <r_i_glide_rewards>
0.464723

> <s_i_glide_gridfile>
wee1_glide-grid

> <s_m_Source_File>
wee1_decoys_glide_SP.sdf

> <s_m_Source_Path>
/Users/zhangxujun/Desktop

> <s_m_entry_id>
1416

> <s_m_entry_name>
wee1_decoys_glide_SP.1141

> <s_m_subgroup_title>
wee1_decoys_glide_SP

> <s_m_subgroupid>
wee1_decoys_glide_SP


$$$$
