@<TRIPOS>MOLECULE
ZINC10384409_5525
67   70    1
SMALL
USER_CHARGES


@<TRIPOS>ATOM
      1 C1         -3.6153   51.3511   26.3359 C.ar      1 UNK         0.0000 
      2 C2         -2.7715   50.2659   26.0343 C.ar      1 UNK         0.0000 
      3 C3         -3.2957   48.9702   26.0818 C.ar      1 UNK         0.0000 
      4 C4         -4.6234   48.7529   26.4495 C.ar      1 UNK         0.0000 
      5 C5         -5.4475   49.8340   26.7614 C.ar      1 UNK         0.0000 
      6 C6         -4.9438   51.1330   26.7021 C.ar      1 UNK         0.0000 
      7 Cl7        -5.9650   52.4744   27.0782 Cl        1 UNK         0.0000 
      8 Cl8        -5.2437   47.1441   26.5205 Cl        1 UNK         0.0000 
      9 N9         -1.4205   50.3866   25.6505 N.am      1 UNK         0.0000 
     10 C10        -0.6011   51.4497   25.7795 C.2       1 UNK         0.0000 
     11 O11        -0.8938   52.4965   26.3486 O.2       1 UNK         0.0000 
     12 C12         0.7987   51.3313   25.1655 C.3       1 UNK         0.0000 
     13 C13         0.9388   52.1403   23.8331 C.3       1 UNK         0.0000 
     14 H14         0.1946   52.9339   23.7250 H         1 UNK         0.0000 
     15 C15         0.6954   51.2022   22.6104 C.2       1 UNK         0.0000 
     16 O16        -0.3108   50.5082   22.4948 O.2       1 UNK         0.0000 
     17 N17         1.6190   51.1891   21.6320 N.am      1 UNK         0.0000 
     18 C18         2.8928   51.9095   21.6170 C.3       1 UNK         0.0000 
     19 H19         3.6321   51.2543   22.0817 H         1 UNK         0.0000 
     20 C20         3.3755   52.1486   20.1705 C.3       1 UNK         0.0000 
     21 C21         4.7232   52.8946   20.1405 C.3       1 UNK         0.0000 
     22 C22         4.6717   54.1979   20.9576 C.3       1 UNK         0.0000 
     23 C23         4.1628   53.9671   22.3955 C.3       1 UNK         0.0000 
     24 C24         2.7942   53.2395   22.4218 C.3       1 UNK         0.0000 
     25 H25         2.0262   53.8732   21.9713 H         1 UNK         0.0000 
     26 C26         2.2544   54.0923   24.8536 C.3       1 UNK         0.0000 
     27 C27         3.3740   53.9733   25.9227 C.2       1 UNK         0.0000 
     28 O28         4.5040   53.6968   25.5231 O.2       1 UNK         0.0000 
     29 N29         3.0892   54.0651   27.2550 N.am      1 UNK         0.0000 
     30 C30         4.1330   53.7881   28.2734 C.3       1 UNK         0.0000 
     31 C31         3.5332   52.8294   29.3401 C.3       1 UNK         0.0000 
     32 C32         2.2165   53.4040   29.9264 C.3       1 UNK         0.0000 
     33 C33         1.2205   53.6801   28.7814 C.3       1 UNK         0.0000 
     34 C34         1.8501   54.6668   27.7859 C.3       1 UNK         0.0000 
     35 C35         1.6086   52.4966   31.0242 C.2       1 UNK         0.0000 
     36 O36         2.3227   51.7450   31.6817 O.2       1 UNK         0.0000 
     37 N37         0.3043   52.6131   31.2816 N.am      1 UNK         0.0000 
     38 H38        -3.2664   52.3698   26.2841 H         1 UNK         0.0000 
     39 H39        -2.6663   48.1177   25.8677 H         1 UNK         0.0000 
     40 H40        -6.4749   49.6632   27.0465 H         1 UNK         0.0000 
     41 H41        -1.0135   49.5457   25.2729 H         1 UNK         0.0000 
     42 H42         1.4937   51.6968   25.9244 H         1 UNK         0.0000 
     43 H43         1.0794   50.2828   25.0383 H         1 UNK         0.0000 
     44 H44         1.4343   50.5506   20.8706 H         1 UNK         0.0000 
     45 H45         3.4734   51.2036   19.6316 H         1 UNK         0.0000 
     46 H46         2.6357   52.7409   19.6277 H         1 UNK         0.0000 
     47 H47         5.0066   53.1033   19.1069 H         1 UNK         0.0000 
     48 H48         5.5034   52.2426   20.5350 H         1 UNK         0.0000 
     49 H49         4.0083   54.8967   20.4490 H         1 UNK         0.0000 
     50 H50         5.6574   54.6662   20.9777 H         1 UNK         0.0000 
     51 H51         4.1441   54.8960   22.9623 H         1 UNK         0.0000 
     52 H52         4.8946   53.3522   22.9215 H         1 UNK         0.0000 
     53 H53         2.3640   55.0050   24.2695 H         1 UNK         0.0000 
     54 H54         1.2525   54.0968   25.2685 H         1 UNK         0.0000 
     55 H55         5.0257   53.3255   27.8462 H         1 UNK         0.0000 
     56 H56         4.4186   54.7331   28.7382 H         1 UNK         0.0000 
     57 H57         3.3635   51.8761   28.8357 H         1 UNK         0.0000 
     58 H58         4.2996   52.7220   30.1103 H         1 UNK         0.0000 
     59 H59         2.4169   54.3290   30.4675 H         1 UNK         0.0000 
     60 H60         0.3159   54.1772   29.1340 H         1 UNK         0.0000 
     61 H61         0.9739   52.7718   28.2284 H         1 UNK         0.0000 
     62 H62         2.1091   55.5963   28.2949 H         1 UNK         0.0000 
     63 H63         1.1045   54.8967   27.0455 H         1 UNK         0.0000 
     64 H64        -0.2672   53.2093   30.7075 H         1 UNK         0.0000 
     65 H65        -0.1571   52.0949   32.0303 H         1 UNK         0.0000 
     66 N66         2.3145   52.8867   23.8537 N.4       1 UNK         0.0000 
     67 H67         2.9961   52.2301   24.2116 H         1 UNK         0.0000 
@<TRIPOS>BOND
     1    1    6 ar   
     2    1    2 ar   
     3    1   38 1    
     4    2    3 ar   
     5    2    9 1    
     6    3    4 ar   
     7    3   39 1    
     8    4    5 ar   
     9    4    8 1    
    10    5    6 ar   
    11    5   40 1    
    12    6    7 1    
    13    9   10 am   BACKBONE|DICT|INTERRES
    14    9   41 1    
    15   10   11 2    
    16   10   12 1    
    17   12   13 1    
    18   12   42 1    
    19   12   43 1    
    20   13   14 1    
    21   13   15 1    
    22   13   66 1    
    23   15   16 2    
    24   15   17 am   BACKBONE|DICT|INTERRES
    25   17   18 1    
    26   17   44 1    
    27   18   19 1    
    28   18   24 1    
    29   18   20 1    
    30   20   21 1    
    31   20   45 1    
    32   20   46 1    
    33   21   22 1    
    34   21   47 1    
    35   21   48 1    
    36   22   23 1    
    37   22   49 1    
    38   22   50 1    
    39   23   24 1    
    40   23   51 1    
    41   23   52 1    
    42   24   25 1    
    43   24   66 1    
    44   26   27 1    
    45   26   53 1    
    46   26   54 1    
    47   26   66 1    
    48   27   28 2    
    49   27   29 am   BACKBONE|DICT|INTERRES
    50   29   34 1    
    51   29   30 1    
    52   30   31 1    
    53   30   55 1    
    54   30   56 1    
    55   31   32 1    
    56   31   57 1    
    57   31   58 1    
    58   32   33 1    
    59   32   35 1    
    60   32   59 1    
    61   33   34 1    
    62   33   60 1    
    63   33   61 1    
    64   34   62 1    
    65   34   63 1    
    66   35   36 2    
    67   35   37 am   BACKBONE|DICT|INTERRES
    68   37   64 1    
    69   37   65 1    
    70   66   67 1    
@<TRIPOS>SUBSTRUCTURE
     1 UNK         1 GROUP             0       ****    0 ROOT    
