ZINC06911505_4671
                    3D
 Schrodinger Suite 2024-2.
 31 31  0  0  1  0            999 V2000
    5.9443   55.3443   20.6552 C   0  0  0  0  0  0
    5.2651   54.7449   21.8854 C   0  0  1  0  0  0
    4.3448   55.2961   22.0781 H   0  0  0  0  0  0
    4.8553   53.2750   21.5923 C   0  0  0  0  0  0
    5.5032   52.3450   22.0816 O   0  0  0  0  0  0
    3.7687   53.1199   20.7973 N   0  0  0  0  0  0
    3.1842   51.9590   20.4326 C   0  0  0  0  0  0
    3.4394   50.8460   20.8979 O   0  0  0  0  0  0
    2.2956   52.1520   19.4469 N   0  0  0  0  0  0
    1.8558   51.0934   18.5462 C   0  0  0  0  0  0
    6.1580   54.8608   23.0525 N   0  0  0  0  0  0
    5.7280   54.6665   24.3798 C   0  0  0  0  0  0
    6.7045   54.6666   25.3742 C   0  0  0  0  0  0
    6.3536   54.4956   26.7117 C   0  0  0  0  0  0
    5.0152   54.3235   27.0547 C   0  0  0  0  0  0
    4.0290   54.3226   26.0724 C   0  0  0  0  0  0
    4.3829   54.4967   24.7370 C   0  0  0  0  0  0
    4.5274   54.0935   28.8794 Br  0  0  0  0  0  0
    5.3046   55.2703   19.7741 H   0  0  0  0  0  0
    6.1447   56.4019   20.8304 H   0  0  0  0  0  0
    6.8917   54.8459   20.4437 H   0  0  0  0  0  0
    3.3639   53.9591   20.4121 H   0  0  0  0  0  0
    1.9247   53.0767   19.2812 H   0  0  0  0  0  0
    1.3347   51.5204   17.6891 H   0  0  0  0  0  0
    1.1776   50.4098   19.0585 H   0  0  0  0  0  0
    2.7063   50.5198   18.1714 H   0  0  0  0  0  0
    7.1497   54.7631   22.8794 H   0  0  0  0  0  0
    7.7400   54.7977   25.1017 H   0  0  0  0  0  0
    7.1110   54.4957   27.4822 H   0  0  0  0  0  0
    2.9931   54.1863   26.3443 H   0  0  0  0  0  0
    3.6001   54.4916   23.9961 H   0  0  0  0  0  0
  1  2  1  0  0  0
  1 19  1  0  0  0
  1 20  1  0  0  0
  1 21  1  0  0  0
  2  3  1  0  0  0
  2  4  1  0  0  0
  2 11  1  0  0  0
  4  5  2  0  0  0
  4  6  1  0  0  0
  6  7  1  0  0  0
  6 22  1  0  0  0
  7  8  2  0  0  0
  7  9  1  0  0  0
  9 10  1  0  0  0
  9 23  1  0  0  0
 10 24  1  0  0  0
 10 25  1  0  0  0
 10 26  1  0  0  0
 11 12  1  0  0  0
 11 27  1  0  0  0
 12 17  2  0  0  0
 12 13  1  0  0  0
 13 14  2  0  0  0
 13 28  1  0  0  0
 14 15  1  0  0  0
 14 29  1  0  0  0
 15 16  2  0  0  0
 15 18  1  0  0  0
 16 17  1  0  0  0
 16 30  1  0  0  0
 17 31  1  0  0  0
M  END
> <i_i_glide_confnum>
4

> <i_i_glide_lignum>
4672

> <i_i_glide_posenum>
129

> <i_i_glide_rotatable_bonds>
6

> <i_m_Source_File_Index>
1650

> <b_m_subgroup_collapsed>
0

> <r_i_docking_score>
-5.43397

> <r_i_glide_ecoul>
-5.53211

> <r_i_glide_eff_state_penalty>
0

> <r_i_glide_einternal>
1.46235

> <r_i_glide_emodel>
-48.2288

> <r_i_glide_energy>
-35.7413

> <r_i_glide_erotb>
0.815944

> <r_i_glide_esite>
-0.0542042

> <r_i_glide_evdw>
-30.2092

> <r_i_glide_gscore>
-5.43397

> <r_i_glide_hbond>
-0.106261

> <r_i_glide_ligand_efficiency>
-0.319645

> <r_i_glide_ligand_efficiency_ln>
-1.4176

> <r_i_glide_ligand_efficiency_sa>
-0.821897

> <r_i_glide_lipo>
-2.17616

> <r_i_glide_metal>
0

> <r_i_glide_rewards>
-1.57301

> <s_i_glide_gridfile>
wee1_glide-grid

> <s_m_Source_File>
wee1_decoys_glide_SP.sdf

> <s_m_Source_Path>
/Users/zhangxujun/Desktop

> <s_m_entry_id>
1925

> <s_m_entry_name>
wee1_decoys_glide_SP.1650

> <s_m_subgroup_title>
wee1_decoys_glide_SP

> <s_m_subgroupid>
wee1_decoys_glide_SP


$$$$
