@<TRIPOS>MOLECULE
ZINC33063269_2117
56   60    1
SMALL
USER_CHARGES


@<TRIPOS>ATOM
      1 C1         -6.3175   49.3995   25.5817 C.ar      1 UNK         0.0000 
      2 C2         -7.2232   49.3411   26.6391 C.ar      1 UNK         0.0000 
      3 C3         -6.8003   49.6305   27.9354 C.ar      1 UNK         0.0000 
      4 C4         -5.4686   49.9750   28.1838 C.ar      1 UNK         0.0000 
      5 C5         -4.5448   50.0034   27.1221 C.ar      1 UNK         0.0000 
      6 C6         -4.9861   49.7361   25.8239 C.ar      1 UNK         0.0000 
      7 N7         -3.1942   50.3618   27.2819 N.pl3     1 UNK         0.0000 
      8 C8         -2.8077   51.1264   28.4648 C.3       1 UNK         0.0000 
      9 H9         -3.2977   52.0966   28.3938 H         1 UNK         0.0000 
     10 N10        -3.2956   50.4967   29.6997 N.pl3     1 UNK         0.0000 
     11 S11        -5.0277   50.3765   29.8656 S.o2      1 UNK         0.0000 
     12 O12        -5.3769   49.2458   30.7315 O.2       1 UNK         0.0000 
     13 O13        -5.5937   51.6968   30.1617 O.2       1 UNK         0.0000 
     14 C14        -1.2953   51.4601   28.5436 C.ar      1 UNK         0.0000 
     15 C15        -0.4609   51.3335   27.4243 C.ar      1 UNK         0.0000 
     16 C16         0.8962   51.6337   27.5079 C.ar      1 UNK         0.0000 
     17 C17         1.4530   52.1216   28.6977 C.ar      1 UNK         0.0000 
     18 C18         0.6310   52.2262   29.8224 C.ar      1 UNK         0.0000 
     19 C19        -0.7186   51.8976   29.7457 C.ar      1 UNK         0.0000 
     20 C20         2.9205   52.4968   28.8110 C.2       1 UNK         0.0000 
     21 O21         3.5411   52.0973   29.8019 O.2       1 UNK         0.0000 
     22 N22         3.4968   53.2759   27.8460 N.am      1 UNK         0.0000 
     23 C23         4.9070   53.6895   27.9935 C.3       1 UNK         0.0000 
     24 C24         5.5969   53.8486   26.6040 C.3       1 UNK         0.0000 
     25 N25         4.7254   54.0811   25.4351 N.pl3     1 UNK         0.0000 
     26 C26         3.5044   54.7686   25.8441 C.3       1 UNK         0.0000 
     27 C27         2.6640   54.0967   26.9484 C.3       1 UNK         0.0000 
     28 C28         5.1801   54.2791   24.1325 C.ar      1 UNK         0.0000 
     29 C29         4.2948   54.0967   23.0580 C.ar      1 UNK         0.0000 
     30 C30         4.6772   54.3988   21.7540 C.ar      1 UNK         0.0000 
     31 C31         5.9568   54.8861   21.5121 C.ar      1 UNK         0.0000 
     32 C32         6.8674   55.0177   22.5563 C.ar      1 UNK         0.0000 
     33 C33         6.4867   54.7032   23.8596 C.ar      1 UNK         0.0000 
     34 Cl34        6.4274   55.3136   19.9090 Cl        1 UNK         0.0000 
     35 H35        -6.6467   49.1854   24.5754 H         1 UNK         0.0000 
     36 H36        -8.2548   49.0794   26.4537 H         1 UNK         0.0000 
     37 H37        -7.5121   49.5965   28.7486 H         1 UNK         0.0000 
     38 H38        -4.2925   49.7814   24.9968 H         1 UNK         0.0000 
     39 H39        -2.5439   49.5798   27.2432 H         1 UNK         0.0000 
     40 H40        -2.7566   49.6715   30.0202 H         1 UNK         0.0000 
     41 H41        -0.8506   50.9808   26.4811 H         1 UNK         0.0000 
     42 H42         1.5044   51.4790   26.6310 H         1 UNK         0.0000 
     43 H43         1.0298   52.5601   30.7705 H         1 UNK         0.0000 
     44 H44        -1.2956   51.9689   30.6543 H         1 UNK         0.0000 
     45 H45         5.5049   53.0890   28.6818 H         1 UNK         0.0000 
     46 H46         4.8415   54.6959   28.4100 H         1 UNK         0.0000 
     47 H47         6.0865   52.8968   26.4035 H         1 UNK         0.0000 
     48 H48         6.3386   54.6428   26.6917 H         1 UNK         0.0000 
     49 H49         3.8836   55.6967   26.2497 H         1 UNK         0.0000 
     50 H50         2.8771   55.0279   24.9912 H         1 UNK         0.0000 
     51 H51         2.0864   54.8590   27.4733 H         1 UNK         0.0000 
     52 H52         2.0327   53.4430   26.3560 H         1 UNK         0.0000 
     53 H53         3.2906   53.7391   23.2319 H         1 UNK         0.0000 
     54 H54         3.9753   54.2779   20.9406 H         1 UNK         0.0000 
     55 H55         7.8675   55.3776   22.3604 H         1 UNK         0.0000 
     56 H56         7.2053   54.8391   24.6524 H         1 UNK         0.0000 
@<TRIPOS>BOND
     1    1    6 ar   
     2    1    2 ar   
     3    1   35 1    
     4    2    3 ar   
     5    2   36 1    
     6    3    4 ar   
     7    3   37 1    
     8    4   11 1    
     9    4    5 ar   
    10    5    6 ar   
    11    5    7 1    
    12    6   38 1    
    13    7    8 1    
    14    7   39 1    
    15    8    9 1    
    16    8   10 1    
    17    8   14 1    
    18   10   11 1    
    19   10   40 1    
    20   11   12 2    
    21   11   13 2    
    22   14   19 ar   
    23   14   15 ar   
    24   15   16 ar   
    25   15   41 1    
    26   16   17 ar   
    27   16   42 1    
    28   17   18 ar   
    29   17   20 1    
    30   18   19 ar   
    31   18   43 1    
    32   19   44 1    
    33   20   21 2    
    34   20   22 am   BACKBONE|DICT|INTERRES
    35   22   27 1    
    36   22   23 1    
    37   23   24 1    
    38   23   45 1    
    39   23   46 1    
    40   24   25 1    
    41   24   47 1    
    42   24   48 1    
    43   25   26 1    
    44   25   28 1    
    45   26   27 1    
    46   26   49 1    
    47   26   50 1    
    48   27   51 1    
    49   27   52 1    
    50   28   33 ar   
    51   28   29 ar   
    52   29   30 ar   
    53   29   53 1    
    54   30   31 ar   
    55   30   54 1    
    56   31   32 ar   
    57   31   34 1    
    58   32   33 ar   
    59   32   55 1    
    60   33   56 1    
@<TRIPOS>SUBSTRUCTURE
     1 UNK         1 GROUP             0       ****    0 ROOT    
