ZINC36596764_4643
                    3D
 Schrodinger Suite 2024-2.
 63 66  0  0  1  0            999 V2000
    3.4994   53.6928   22.0071 C   0  0  0  0  0  0
    2.6172   53.5173   23.2176 C   0  0  0  0  0  0
    2.7948   53.7241   24.5748 C   0  0  0  0  0  0
    1.6040   53.3525   25.1965 C   0  0  0  0  0  0
    0.7440   52.9155   24.2017 C   0  0  0  0  0  0
    1.3624   53.0453   22.9981 O   0  0  0  0  0  0
   -0.6841   52.3998   24.1863 C   0  0  0  0  0  0
   -0.7883   50.9348   24.3897 N   0  0  0  0  0  0
   -1.3007   50.4688   25.7182 C   0  0  1  0  0  0
   -1.0878   49.3988   25.7863 H   0  0  0  0  0  0
   -0.5405   51.1209   26.8644 C   0  0  0  0  0  0
    0.7640   50.6790   27.0857 C   0  0  0  0  0  0
    1.5806   51.2332   28.0848 C   0  0  0  0  0  0
    1.0314   52.1979   28.9056 C   0  0  0  0  0  0
   -0.2461   52.6301   28.7227 C   0  0  0  0  0  0
   -1.0613   52.1197   27.7063 C   0  0  0  0  0  0
   -0.4932   53.6107   29.6317 O   0  0  0  0  0  0
    0.5521   53.5438   30.5594 C   0  0  0  0  0  0
    1.6082   52.8656   29.9399 O   0  0  0  0  0  0
   -2.8428   50.4898   25.8733 C   0  0  0  0  0  0
   -3.5567   51.0127   25.0158 O   0  0  0  0  0  0
   -3.2980   49.9099   26.9997 N   0  0  0  0  0  0
   -4.6757   49.7853   27.4848 C   0  0  0  0  0  0
   -5.4851   48.8250   26.5844 C   0  0  0  0  0  0
   -5.3833   51.1619   27.5696 C   0  0  0  0  0  0
   -4.6009   49.1951   28.9106 C   0  0  0  0  0  0
   -0.7629   50.0605   23.3374 C   0  0  0  0  0  0
   -1.1412   48.8893   23.4154 O   0  0  0  0  0  0
   -0.1825   50.5223   22.0235 C   0  0  0  0  0  0
   -1.0241   51.1437   21.0928 C   0  0  0  0  0  0
   -0.5400   51.5785   19.8506 C   0  0  0  0  0  0
    0.8088   51.3603   19.5413 C   0  0  0  0  0  0
    1.6519   50.7298   20.4521 C   0  0  0  0  0  0
    1.1708   50.3102   21.6914 C   0  0  0  0  0  0
    1.9994   49.7543   22.4811 O   0  5  0  0  0  0
   -1.4355   52.2547   18.8842 N   0  3  0  0  0  0
   -2.5908   52.4900   19.2280 O   0  0  0  0  0  0
   -0.9899   52.5832   17.7895 O   0  5  0  0  0  0
    4.5044   54.0064   22.2834 H   0  0  0  0  0  0
    3.5960   52.7622   21.4483 H   0  0  0  0  0  0
    3.1054   54.4412   21.3216 H   0  0  0  0  0  0
    3.6865   54.0966   25.0571 H   0  0  0  0  0  0
    1.3941   53.3953   26.2540 H   0  0  0  0  0  0
   -1.1584   52.6804   23.2463 H   0  0  0  0  0  0
   -1.2920   52.9039   24.9376 H   0  0  0  0  0  0
    1.1202   49.8763   26.4587 H   0  0  0  0  0  0
    2.5937   50.8990   28.2271 H   0  0  0  0  0  0
   -2.0657   52.4790   27.5559 H   0  0  0  0  0  0
    0.8507   54.5433   30.8758 H   0  0  0  0  0  0
    0.2191   52.9818   31.4372 H   0  0  0  0  0  0
   -2.6056   49.4404   27.5876 H   0  0  0  0  0  0
   -5.0204   47.8378   26.5377 H   0  0  0  0  0  0
   -6.5001   48.6902   26.9579 H   0  0  0  0  0  0
   -5.5594   49.1989   25.5602 H   0  0  0  0  0  0
   -4.8104   51.8697   28.1709 H   0  0  0  0  0  0
   -5.5242   51.6083   26.5836 H   0  0  0  0  0  0
   -6.3722   51.0741   28.0205 H   0  0  0  0  0  0
   -4.0541   49.8560   29.5891 H   0  0  0  0  0  0
   -5.5901   49.0363   29.3381 H   0  0  0  0  0  0
   -4.0853   48.2309   28.9263 H   0  0  0  0  0  0
   -2.0659   51.2925   21.3439 H   0  0  0  0  0  0
    1.2156   51.6797   18.5922 H   0  0  0  0  0  0
    2.6879   50.5703   20.1895 H   0  0  0  0  0  0
  1  2  1  0  0  0
  1 39  1  0  0  0
  1 40  1  0  0  0
  1 41  1  0  0  0
  2  6  1  0  0  0
  2  3  2  0  0  0
  3  4  1  0  0  0
  3 42  1  0  0  0
  4  5  2  0  0  0
  4 43  1  0  0  0
  5  6  1  0  0  0
  5  7  1  0  0  0
  7  8  1  0  0  0
  7 44  1  0  0  0
  7 45  1  0  0  0
  8  9  1  0  0  0
  8 27  1  0  0  0
  9 10  1  0  0  0
  9 11  1  0  0  0
  9 20  1  0  0  0
 11 16  2  0  0  0
 11 12  1  0  0  0
 12 13  2  0  0  0
 12 46  1  0  0  0
 13 14  1  0  0  0
 13 47  1  0  0  0
 14 19  1  0  0  0
 14 15  2  0  0  0
 15 16  1  0  0  0
 15 17  1  0  0  0
 16 48  1  0  0  0
 17 18  1  0  0  0
 18 19  1  0  0  0
 18 49  1  0  0  0
 18 50  1  0  0  0
 20 21  2  0  0  0
 20 22  1  0  0  0
 22 23  1  0  0  0
 22 51  1  0  0  0
 23 24  1  0  0  0
 23 25  1  0  0  0
 23 26  1  0  0  0
 24 52  1  0  0  0
 24 53  1  0  0  0
 24 54  1  0  0  0
 25 55  1  0  0  0
 25 56  1  0  0  0
 25 57  1  0  0  0
 26 58  1  0  0  0
 26 59  1  0  0  0
 26 60  1  0  0  0
 27 28  2  0  0  0
 27 29  1  0  0  0
 29 34  2  0  0  0
 29 30  1  0  0  0
 30 31  2  0  0  0
 30 61  1  0  0  0
 31 32  1  0  0  0
 31 36  1  0  0  0
 32 33  2  0  0  0
 32 62  1  0  0  0
 33 34  1  0  0  0
 33 63  1  0  0  0
 34 35  1  0  0  0
 36 37  2  0  0  0
 36 38  1  0  0  0
M  CHG  3  35  -1  36   1  38  -1
M  END
> <i_i_glide_confnum>
92

> <i_i_glide_lignum>
4644

> <i_i_glide_posenum>
268

> <i_i_glide_rotatable_bonds>
10

> <i_m_Source_File_Index>
4602

> <b_m_subgroup_collapsed>
0

> <r_i_docking_score>
-4.2072

> <r_i_glide_ecoul>
-8.45518

> <r_i_glide_eff_state_penalty>
0

> <r_i_glide_einternal>
19.1148

> <r_i_glide_emodel>
-38.4037

> <r_i_glide_energy>
-38.21

> <r_i_glide_erotb>
0.554259

> <r_i_glide_esite>
-0.264001

> <r_i_glide_evdw>
-29.7548

> <r_i_glide_gscore>
-4.2072

> <r_i_glide_hbond>
-0.16

> <r_i_glide_ligand_efficiency>
-0.113708

> <r_i_glide_ligand_efficiency_ln>
-0.912442

> <r_i_glide_ligand_efficiency_sa>
-0.3789

> <r_i_glide_lipo>
-1.42824

> <r_i_glide_metal>
0

> <r_i_glide_rewards>
-0.153201

> <s_i_glide_gridfile>
wee1_glide-grid

> <s_m_Source_File>
wee1_decoys_glide_SP.sdf

> <s_m_Source_Path>
/Users/zhangxujun/Desktop

> <s_m_entry_id>
4877

> <s_m_entry_name>
wee1_decoys_glide_SP.4602

> <s_m_subgroup_title>
wee1_decoys_glide_SP

> <s_m_subgroupid>
wee1_decoys_glide_SP


$$$$
