ZINC10453146_4319
                    3D
 Schrodinger Suite 2024-2.
 45 47  0  0  1  0            999 V2000
   -1.9271   48.4318   25.6553 C   0  0  0  0  0  0
   -1.3931   49.5263   24.7402 C   0  0  0  0  0  0
   -2.1494   50.4325   24.3913 O   0  0  0  0  0  0
   -0.1076   49.4035   24.3488 N   0  0  0  0  0  0
    0.6237   50.2865   23.5355 C   0  0  0  0  0  0
    0.4190   51.6734   23.5400 C   0  0  0  0  0  0
    1.2347   52.4988   22.7724 C   0  0  0  0  0  0
    2.2685   51.9515   22.0123 C   0  0  0  0  0  0
    2.4430   50.5621   21.9673 C   0  0  0  0  0  0
    1.6316   49.7375   22.7415 C   0  0  0  0  0  0
    3.1230   52.8686   21.3799 N   0  0  0  0  0  0
    4.4650   52.7643   21.2704 C   0  0  0  0  0  0
    5.1017   51.7221   21.4138 O   0  0  0  0  0  0
    5.2251   54.0795   21.0652 C   0  0  0  0  0  0
    6.3006   54.5459   22.4822 S   0  0  0  0  0  0
    5.3841   54.4813   24.0036 C   0  0  0  0  0  0
    6.0498   54.6255   25.2207 C   0  0  0  0  0  0
    5.3064   54.4982   26.3962 C   0  0  0  0  0  0
    3.9367   54.2192   26.2912 C   0  0  0  0  0  0
    3.3352   54.0982   25.0767 N   0  0  0  0  0  0
    4.0475   54.2477   23.9520 N   0  0  0  0  0  0
    3.0516   54.0345   27.4732 C   0  0  0  0  0  0
    2.0902   53.0131   27.5045 C   0  0  0  0  0  0
    1.2703   52.8445   28.6176 C   0  0  0  0  0  0
    1.3888   53.7197   29.6935 C   0  0  0  0  0  0
    2.3100   54.7594   29.6622 C   0  0  0  0  0  0
    3.1554   54.8963   28.5689 C   0  0  0  0  0  0
    0.3044   53.4897   31.2346 Br  0  0  0  0  0  0
   -2.5962   47.7731   25.1037 H   0  0  0  0  0  0
   -2.4886   48.8735   26.4807 H   0  0  0  0  0  0
   -1.1228   47.8306   26.0816 H   0  0  0  0  0  0
    0.3783   48.5626   24.6256 H   0  0  0  0  0  0
   -0.3396   52.1237   24.1626 H   0  0  0  0  0  0
    1.0974   53.5695   22.8182 H   0  0  0  0  0  0
    3.2216   50.1157   21.3669 H   0  0  0  0  0  0
    1.8067   48.6726   22.7310 H   0  0  0  0  0  0
    2.7213   53.7794   21.2072 H   0  0  0  0  0  0
    5.8488   53.9790   20.1769 H   0  0  0  0  0  0
    4.5367   54.8980   20.8605 H   0  0  0  0  0  0
    7.1136   54.8049   25.2495 H   0  0  0  0  0  0
    5.7871   54.5864   27.3602 H   0  0  0  0  0  0
    1.9874   52.3348   26.6696 H   0  0  0  0  0  0
    0.5480   52.0410   28.6451 H   0  0  0  0  0  0
    2.3705   55.4583   30.4816 H   0  0  0  0  0  0
    3.8764   55.6966   28.5672 H   0  0  0  0  0  0
  1  2  1  0  0  0
  1 29  1  0  0  0
  1 30  1  0  0  0
  1 31  1  0  0  0
  2  3  2  0  0  0
  2  4  1  0  0  0
  4  5  1  0  0  0
  4 32  1  0  0  0
  5 10  2  0  0  0
  5  6  1  0  0  0
  6  7  2  0  0  0
  6 33  1  0  0  0
  7  8  1  0  0  0
  7 34  1  0  0  0
  8  9  2  0  0  0
  8 11  1  0  0  0
  9 10  1  0  0  0
  9 35  1  0  0  0
 10 36  1  0  0  0
 11 12  1  0  0  0
 11 37  1  0  0  0
 12 13  2  0  0  0
 12 14  1  0  0  0
 14 15  1  0  0  0
 14 38  1  0  0  0
 14 39  1  0  0  0
 15 16  1  0  0  0
 16 21  2  0  0  0
 16 17  1  0  0  0
 17 18  2  0  0  0
 17 40  1  0  0  0
 18 19  1  0  0  0
 18 41  1  0  0  0
 19 20  2  0  0  0
 19 22  1  0  0  0
 20 21  1  0  0  0
 22 27  2  0  0  0
 22 23  1  0  0  0
 23 24  2  0  0  0
 23 42  1  0  0  0
 24 25  1  0  0  0
 24 43  1  0  0  0
 25 26  2  0  0  0
 25 28  1  0  0  0
 26 27  1  0  0  0
 26 44  1  0  0  0
 27 45  1  0  0  0
M  END
> <i_i_glide_confnum>
145

> <i_i_glide_lignum>
4320

> <i_i_glide_posenum>
391

> <i_i_glide_rotatable_bonds>
8

> <i_m_Source_File_Index>
2608

> <b_m_subgroup_collapsed>
0

> <r_i_docking_score>
-5.94899

> <r_i_glide_ecoul>
-4.62053

> <r_i_glide_eff_state_penalty>
0

> <r_i_glide_einternal>
8.1539

> <r_i_glide_emodel>
-65.0985

> <r_i_glide_energy>
-51.0938

> <r_i_glide_erotb>
0.672817

> <r_i_glide_esite>
-0.0529264

> <r_i_glide_evdw>
-46.4732

> <r_i_glide_gscore>
-5.94899

> <r_i_glide_hbond>
-0.142475

> <r_i_glide_ligand_efficiency>
-0.212464

> <r_i_glide_ligand_efficiency_ln>
-1.3732

> <r_i_glide_ligand_efficiency_sa>
-0.645166

> <r_i_glide_lipo>
-3.08287

> <r_i_glide_metal>
0

> <r_i_glide_rewards>
-0.326791

> <s_i_glide_gridfile>
wee1_glide-grid

> <s_m_Source_File>
wee1_decoys_glide_SP.sdf

> <s_m_Source_Path>
/Users/zhangxujun/Desktop

> <s_m_entry_id>
2883

> <s_m_entry_name>
wee1_decoys_glide_SP.2608

> <s_m_subgroup_title>
wee1_decoys_glide_SP

> <s_m_subgroupid>
wee1_decoys_glide_SP


$$$$
