@<TRIPOS>MOLECULE
ZINC32527496_4280
58   61    1
SMALL
USER_CHARGES


@<TRIPOS>ATOM
      1 C1          6.7109   55.0144   24.2967 C.3       1 UNK         0.0000 
      2 C2          5.3375   54.5274   24.7164 C.ar      1 UNK         0.0000 
      3 C3          4.3612   54.2663   23.7653 C.ar      1 UNK         0.0000 
      4 C4          3.0833   53.8298   24.1278 C.ar      1 UNK         0.0000 
      5 C5          2.7835   53.5628   25.4980 C.ar      1 UNK         0.0000 
      6 C6          3.7746   53.9075   26.4583 C.ar      1 UNK         0.0000 
      7 C7          5.0348   54.3693   26.0602 C.ar      1 UNK         0.0000 
      8 C8          3.4360   53.7932   27.9006 C.ar      1 UNK         0.0000 
      9 C9          2.2192   53.3362   28.2516 C.ar      1 UNK         0.0000 
     10 C10         1.2405   52.8050   27.3291 C.ar      1 UNK         0.0000 
     11 O11         0.2351   52.2510   27.7766 O.2       1 UNK         0.0000 
     12 N12         1.5921   52.8986   26.0006 N.pl3     1 UNK         0.0000 
     13 C13         0.7113   52.1239   25.0912 C.3       1 UNK         0.0000 
     14 C14        -0.6976   52.7327   24.8362 C.3       1 UNK         0.0000 
     15 C15        -1.6179   51.9409   23.9036 C.2       1 UNK         0.0000 
     16 O16        -2.2733   52.5496   23.0600 O.2       1 UNK         0.0000 
     17 N17        -1.6536   50.6118   24.1114 N.am      1 UNK         0.0000 
     18 C18        -2.4882   49.6491   23.5481 C.2       1 UNK         0.0000 
     19 C19        -2.4244   48.2730   23.8309 C.2       1 UNK         0.0000 
     20 C20        -3.4603   47.5466   23.1771 C.2       1 UNK         0.0000 
     21 C21        -4.2840   48.3813   22.4017 C.2       1 UNK         0.0000 
     22 S22        -3.8170   50.0415   22.4908 S.3       1 UNK         0.0000 
     23 C23        -5.4924   47.9271   21.5964 C.3       1 UNK         0.0000 
     24 C24        -5.3931   46.4089   21.3554 C.3       1 UNK         0.0000 
     25 C25        -5.0815   45.6534   22.6565 C.3       1 UNK         0.0000 
     26 C26        -3.7044   46.0330   23.2499 C.3       1 UNK         0.0000 
     27 C27        -1.3506   47.6972   24.6178 C.2       1 UNK         0.0000 
     28 O28        -0.1863   48.0632   24.4810 O.2       1 UNK         0.0000 
     29 N29        -1.6956   46.7835   25.5247 N.am      1 UNK         0.0000 
     30 C30         4.4453   54.2463   28.9517 C.3       1 UNK         0.0000 
     31 C31         2.0843   53.7988   22.9736 C.3       1 UNK         0.0000 
     32 H32         6.8093   56.0863   24.4677 H         1 UNK         0.0000 
     33 H33         7.4784   54.5055   24.8797 H         1 UNK         0.0000 
     34 H34         6.9190   54.7983   23.2496 H         1 UNK         0.0000 
     35 H35         4.5898   54.4516   22.7238 H         1 UNK         0.0000 
     36 H36         5.7938   54.6099   26.7894 H         1 UNK         0.0000 
     37 H37         1.9552   53.2788   29.2969 H         1 UNK         0.0000 
     38 H38         0.5950   51.1155   25.4979 H         1 UNK         0.0000 
     39 H39         1.2120   51.8991   24.1564 H         1 UNK         0.0000 
     40 H40        -0.6033   53.7495   24.4740 H         1 UNK         0.0000 
     41 H41        -1.2146   52.8967   25.7813 H         1 UNK         0.0000 
     42 H42        -0.9868   50.2390   24.7727 H         1 UNK         0.0000 
     43 H43        -5.5596   48.4579   20.6458 H         1 UNK         0.0000 
     44 H44        -6.4061   48.1530   22.1464 H         1 UNK         0.0000 
     45 H45        -4.6178   46.2001   20.6138 H         1 UNK         0.0000 
     46 H46        -6.3287   46.0449   20.9258 H         1 UNK         0.0000 
     47 H47        -5.1214   44.5772   22.4828 H         1 UNK         0.0000 
     48 H48        -5.8643   45.8666   23.3865 H         1 UNK         0.0000 
     49 H49        -3.6776   45.6771   24.2782 H         1 UNK         0.0000 
     50 H50        -2.9121   45.5147   22.7071 H         1 UNK         0.0000 
     51 H51        -0.9656   46.4968   26.1694 H         1 UNK         0.0000 
     52 H52        -2.6578   46.7034   25.8155 H         1 UNK         0.0000 
     53 H53         4.7050   55.2968   28.8163 H         1 UNK         0.0000 
     54 H54         4.0519   54.1339   29.9623 H         1 UNK         0.0000 
     55 H55         5.3534   53.6436   28.8868 H         1 UNK         0.0000 
     56 H56         2.3742   54.4940   22.1840 H         1 UNK         0.0000 
     57 H57         2.0024   52.8121   22.5121 H         1 UNK         0.0000 
     58 H58         1.1094   54.1591   23.2899 H         1 UNK         0.0000 
@<TRIPOS>BOND
     1    1    2 1    
     2    1   32 1    
     3    1   33 1    
     4    1   34 1    
     5    2    7 ar   
     6    2    3 ar   
     7    3    4 ar   
     8    3   35 1    
     9    4    5 ar   
    10    4   31 1    
    11    5   12 ar   
    12    5    6 ar   
    13    6    7 ar   
    14    6    8 ar   
    15    7   36 1    
    16    8    9 ar   
    17    8   30 1    
    18    9   10 ar   
    19    9   37 1    
    20   10   11 2    
    21   10   12 ar   
    22   12   13 1    
    23   13   14 1    
    24   13   38 1    
    25   13   39 1    
    26   14   15 1    
    27   14   40 1    
    28   14   41 1    
    29   15   16 2    
    30   15   17 am   BACKBONE|DICT|INTERRES
    31   17   18 am   BACKBONE|DICT|INTERRES
    32   17   42 1    
    33   18   22 1    
    34   18   19 2    
    35   19   20 1    
    36   19   27 1    
    37   20   26 1    
    38   20   21 2    
    39   21   22 1    
    40   21   23 1    
    41   23   24 1    
    42   23   43 1    
    43   23   44 1    
    44   24   25 1    
    45   24   45 1    
    46   24   46 1    
    47   25   26 1    
    48   25   47 1    
    49   25   48 1    
    50   26   49 1    
    51   26   50 1    
    52   27   28 2    
    53   27   29 am   BACKBONE|DICT|INTERRES
    54   29   51 1    
    55   29   52 1    
    56   30   53 1    
    57   30   54 1    
    58   30   55 1    
    59   31   56 1    
    60   31   57 1    
    61   31   58 1    
@<TRIPOS>SUBSTRUCTURE
     1 UNK         1 GROUP             0       ****    0 ROOT    
