ZINC35664229_2917
                    3D
 Schrodinger Suite 2024-2.
 84 86  0  0  1  0            999 V2000
   -0.3575   52.3017   21.3698 C   0  0  0  0  0  0
    0.9981   52.4414   22.0961 C   0  0  0  0  0  0
    1.0511   51.8932   23.4798 N   0  0  0  0  0  0
    1.3930   52.6044   24.6374 C   0  0  0  0  0  0
    1.0335   52.0980   25.8611 C   0  0  0  0  0  0
    0.0693   50.8882   25.8765 C   0  0  2  0  0  0
    0.1569   50.2748   26.7764 H   0  0  0  0  0  0
    0.4752   50.0368   24.7370 N   0  0  0  0  0  0
    0.8618   50.5234   23.5286 C   0  0  0  0  0  0
    1.0709   49.7283   22.6109 O   0  0  0  0  0  0
   -1.4156   51.3041   25.9075 C   0  0  0  0  0  0
   -2.1134   51.2965   27.1216 C   0  0  0  0  0  0
   -3.4462   51.6966   27.1750 C   0  0  0  0  0  0
   -4.0983   52.1416   26.0230 C   0  0  0  0  0  0
   -3.4064   52.1504   24.8079 C   0  0  0  0  0  0
   -2.0812   51.7328   24.7531 C   0  0  0  0  0  0
   -5.5537   52.6094   26.1223 C   0  0  0  0  0  0
   -5.9403   53.6923   25.0936 C   0  0  0  0  0  0
   -6.5266   51.4183   26.0749 C   0  0  0  0  0  0
    1.5046   52.5981   27.1858 C   0  0  0  0  0  0
    2.4646   53.3579   27.3340 O   0  0  0  0  0  0
    0.7953   52.1107   28.2371 O   0  0  0  0  0  0
    1.0897   52.4558   29.5881 C   0  0  0  0  0  0
    0.5325   53.8391   29.9589 C   0  0  0  0  0  0
    2.2242   53.8999   24.4420 C   0  0  0  0  0  0
    3.7473   53.6968   24.1820 N   0  3  2  0  0  0
    4.6625   54.7193   24.9110 C   0  0  0  0  0  0
    6.1598   54.3654   24.8840 C   0  0  0  0  0  0
    6.9428   54.7686   23.6085 C   0  0  0  0  0  0
    6.2884   54.4750   22.3237 N   0  0  0  0  0  0
    5.4973   53.2332   22.3131 C   0  0  0  0  0  0
    4.0258   53.4388   22.6800 C   0  0  0  0  0  0
    6.4321   55.3074   21.2477 C   0  0  0  0  0  0
    7.1027   56.3401   21.2821 O   0  0  0  0  0  0
    5.8100   54.9156   20.1128 N   0  0  0  0  0  0
    6.0416   55.3713   18.7332 C   0  0  0  0  0  0
    7.5011   55.0966   18.2993 C   0  0  0  0  0  0
    5.7157   56.8728   18.5562 C   0  0  0  0  0  0
    5.0983   54.5576   17.8216 C   0  0  0  0  0  0
   -0.2636   52.6700   20.3474 H   0  0  0  0  0  0
   -0.6852   51.2641   21.2932 H   0  0  0  0  0  0
   -1.1404   52.8803   21.8601 H   0  0  0  0  0  0
    1.2572   53.4960   22.0736 H   0  0  0  0  0  0
    1.7604   51.9563   21.4831 H   0  0  0  0  0  0
    0.1276   49.0886   24.7239 H   0  0  0  0  0  0
   -1.6337   50.9589   28.0305 H   0  0  0  0  0  0
   -3.9634   51.6706   28.1231 H   0  0  0  0  0  0
   -3.8864   52.4728   23.8968 H   0  0  0  0  0  0
   -1.5830   51.7470   23.8000 H   0  0  0  0  0  0
   -5.6578   53.0837   27.1003 H   0  0  0  0  0  0
   -5.2059   54.4975   25.0648 H   0  0  0  0  0  0
   -6.0230   53.2818   24.0857 H   0  0  0  0  0  0
   -6.9051   54.1364   25.3389 H   0  0  0  0  0  0
   -6.3011   50.6885   26.8534 H   0  0  0  0  0  0
   -7.5564   51.7420   26.2242 H   0  0  0  0  0  0
   -6.4785   50.9023   25.1142 H   0  0  0  0  0  0
    0.6285   51.7010   30.2266 H   0  0  0  0  0  0
    2.1637   52.4057   29.7744 H   0  0  0  0  0  0
    0.6925   54.0508   31.0159 H   0  0  0  0  0  0
    1.0110   54.6316   29.3835 H   0  0  0  0  0  0
   -0.5394   53.8898   29.7702 H   0  0  0  0  0  0
    2.1693   54.4968   25.3397 H   0  0  0  0  0  0
    1.8426   54.5800   23.6817 H   0  0  0  0  0  0
    4.3151   54.7064   25.9446 H   0  0  0  0  0  0
    4.4872   55.6966   24.4919 H   0  0  0  0  0  0
    6.2726   53.2967   25.0619 H   0  0  0  0  0  0
    6.6499   54.8273   25.7419 H   0  0  0  0  0  0
    7.8442   54.1535   23.6219 H   0  0  0  0  0  0
    7.2323   55.8199   23.6715 H   0  0  0  0  0  0
    5.5050   52.8142   21.3057 H   0  0  0  0  0  0
    5.9748   52.4387   22.8820 H   0  0  0  0  0  0
    3.5522   54.2362   22.1025 H   0  0  0  0  0  0
    3.5165   52.5019   22.4784 H   0  0  0  0  0  0
    5.1973   54.1185   20.1783 H   0  0  0  0  0  0
    7.6719   55.3815   17.2599 H   0  0  0  0  0  0
    7.7534   54.0390   18.3903 H   0  0  0  0  0  0
    8.2173   55.6532   18.9054 H   0  0  0  0  0  0
    4.7024   57.1001   18.8796 H   0  0  0  0  0  0
    6.3893   57.5148   19.1247 H   0  0  0  0  0  0
    5.7973   57.1805   17.5131 H   0  0  0  0  0  0
    4.0501   54.7197   18.0795 H   0  0  0  0  0  0
    5.2174   54.8325   16.7733 H   0  0  0  0  0  0
    5.2885   53.4851   17.8954 H   0  0  0  0  0  0
    3.9714   52.8390   24.6722 H   0  0  0  0  0  0
  1  2  1  0  0  0
  1 40  1  0  0  0
  1 41  1  0  0  0
  1 42  1  0  0  0
  2  3  1  0  0  0
  2 43  1  0  0  0
  2 44  1  0  0  0
  3  9  1  0  0  0
  3  4  1  0  0  0
  4  5  2  0  0  0
  4 25  1  0  0  0
  5  6  1  0  0  0
  5 20  1  0  0  0
  6  7  1  0  0  0
  6  8  1  0  0  0
  6 11  1  0  0  0
  8  9  1  0  0  0
  8 45  1  0  0  0
  9 10  2  0  0  0
 11 16  2  0  0  0
 11 12  1  0  0  0
 12 13  2  0  0  0
 12 46  1  0  0  0
 13 14  1  0  0  0
 13 47  1  0  0  0
 14 15  2  0  0  0
 14 17  1  0  0  0
 15 16  1  0  0  0
 15 48  1  0  0  0
 16 49  1  0  0  0
 17 18  1  0  0  0
 17 19  1  0  0  0
 17 50  1  0  0  0
 18 51  1  0  0  0
 18 52  1  0  0  0
 18 53  1  0  0  0
 19 54  1  0  0  0
 19 55  1  0  0  0
 19 56  1  0  0  0
 20 21  2  0  0  0
 20 22  1  0  0  0
 22 23  1  0  0  0
 23 24  1  0  0  0
 23 57  1  0  0  0
 23 58  1  0  0  0
 24 59  1  0  0  0
 24 60  1  0  0  0
 24 61  1  0  0  0
 25 26  1  0  0  0
 25 62  1  0  0  0
 25 63  1  0  0  0
 26 32  1  0  0  0
 26 27  1  0  0  0
 26 84  1  0  0  0
 27 28  1  0  0  0
 27 64  1  0  0  0
 27 65  1  0  0  0
 28 29  1  0  0  0
 28 66  1  0  0  0
 28 67  1  0  0  0
 29 30  1  0  0  0
 29 68  1  0  0  0
 29 69  1  0  0  0
 30 31  1  0  0  0
 30 33  1  0  0  0
 31 32  1  0  0  0
 31 70  1  0  0  0
 31 71  1  0  0  0
 32 72  1  0  0  0
 32 73  1  0  0  0
 33 34  2  0  0  0
 33 35  1  0  0  0
 35 36  1  0  0  0
 35 74  1  0  0  0
 36 37  1  0  0  0
 36 38  1  0  0  0
 36 39  1  0  0  0
 37 75  1  0  0  0
 37 76  1  0  0  0
 37 77  1  0  0  0
 38 78  1  0  0  0
 38 79  1  0  0  0
 38 80  1  0  0  0
 39 81  1  0  0  0
 39 82  1  0  0  0
 39 83  1  0  0  0
M  CHG  1  26   1
M  END
> <i_i_glide_confnum>
35

> <i_i_glide_lignum>
2918

> <i_i_glide_posenum>
195

> <i_i_glide_rotatable_bonds>
11

> <i_m_Source_File_Index>
2896

> <b_m_subgroup_collapsed>
0

> <r_i_docking_score>
-5.28228

> <r_i_glide_ecoul>
-2.14462

> <r_i_glide_eff_state_penalty>
0

> <r_i_glide_einternal>
9.77365

> <r_i_glide_emodel>
-53.9275

> <r_i_glide_energy>
-43.233

> <r_i_glide_erotb>
0.515943

> <r_i_glide_esite>
-0.00711861

> <r_i_glide_evdw>
-41.0884

> <r_i_glide_gscore>
-5.28228

> <r_i_glide_hbond>
-0.199446

> <r_i_glide_ligand_efficiency>
-0.139007

> <r_i_glide_ligand_efficiency_ln>
-1.13902

> <r_i_glide_ligand_efficiency_sa>
-0.467339

> <r_i_glide_lipo>
-2.15698

> <r_i_glide_metal>
0

> <r_i_glide_rewards>
-1.05857

> <s_i_glide_gridfile>
wee1_glide-grid

> <s_m_Source_File>
wee1_decoys_glide_SP.sdf

> <s_m_Source_Path>
/Users/zhangxujun/Desktop

> <s_m_entry_id>
3171

> <s_m_entry_name>
wee1_decoys_glide_SP.2896

> <s_m_subgroup_title>
wee1_decoys_glide_SP

> <s_m_subgroupid>
wee1_decoys_glide_SP


$$$$
