@<TRIPOS>MOLECULE
ZINC09043240_970
42   46    1
SMALL
USER_CHARGES


@<TRIPOS>ATOM
      1 C1          3.4089   50.8549   20.8144 C.ar      1 UNK         0.0000 
      2 C2          4.1488   51.9377   21.2808 C.ar      1 UNK         0.0000 
      3 C3          3.5074   52.9929   21.9387 C.ar      1 UNK         0.0000 
      4 C4          2.1212   52.9176   22.1486 C.ar      1 UNK         0.0000 
      5 C5          1.3958   51.8020   21.7344 C.ar      1 UNK         0.0000 
      6 C6          2.0406   50.7692   21.0592 C.ar      1 UNK         0.0000 
      7 Br7        -0.4770   51.6973   22.0593 Br        1 UNK         0.0000 
      8 C8          4.2636   54.2872   22.2904 C.3       1 UNK         0.0000 
      9 H9          3.4960   55.0639   22.3158 H         1 UNK         0.0000 
     10 C10         5.3470   54.7178   21.3190 C.2       1 UNK         0.0000 
     11 C11         6.4464   54.9137   22.0560 C.2       1 UNK         0.0000 
     12 C12         6.2580   54.6049   23.4652 C.2       1 UNK         0.0000 
     13 O13         7.1031   54.6345   24.3654 O.2       1 UNK         0.0000 
     14 N14         4.9355   54.3062   23.6073 N.am      1 UNK         0.0000 
     15 C15         4.2643   54.0963   24.8344 C.2       1 UNK         0.0000 
     16 N16         3.0200   53.7010   24.9086 N.2       1 UNK         0.0000 
     17 C17         2.6341   53.4354   26.1859 C.ar      1 UNK         0.0000 
     18 C18         1.3923   52.8963   26.5540 C.ar      1 UNK         0.0000 
     19 C19         1.1477   52.6522   27.9088 C.ar      1 UNK         0.0000 
     20 C20         2.1047   52.9436   28.8831 C.ar      1 UNK         0.0000 
     21 C21         3.3431   53.4876   28.5413 C.ar      1 UNK         0.0000 
     22 C22         3.6004   53.7184   27.1836 C.ar      1 UNK         0.0000 
     23 S23         5.0476   54.3252   26.4088 S.3       1 UNK         0.0000 
     24 F24         1.8336   52.6889   30.1813 F         1 UNK         0.0000 
     25 O25         7.6149   55.2967   21.6819 O.co2     1 UNK         0.0000 
     26 C26         5.0855   54.8968   19.8671 C.2       1 UNK         0.0000 
     27 O27         4.3105   54.1372   19.2875 O.2       1 UNK         0.0000 
     28 C28         5.6168   56.0483   19.1154 C.2       1 UNK         0.0000 
     29 C29         6.7020   56.9158   19.2420 C.2       1 UNK         0.0000 
     30 C30         6.6124   57.8575   18.2180 C.2       1 UNK         0.0000 
     31 C31         5.4915   57.5245   17.4856 C.2       1 UNK         0.0000 
     32 O32         4.8909   56.4349   18.0263 O.3       1 UNK         0.0000 
     33 H33         3.8988   50.0967   20.2285 H         1 UNK         0.0000 
     34 H34         5.2046   51.9909   21.0593 H         1 UNK         0.0000 
     35 H35         1.6010   53.7364   22.6252 H         1 UNK         0.0000 
     36 H36         1.4788   49.9175   20.7030 H         1 UNK         0.0000 
     37 H37         0.6512   52.6564   25.8066 H         1 UNK         0.0000 
     38 H38         0.2028   52.2220   28.2118 H         1 UNK         0.0000 
     39 H39         4.0842   53.6946   29.2975 H         1 UNK         0.0000 
     40 H40         7.4898   56.8975   19.9702 H         1 UNK         0.0000 
     41 H41         7.2823   58.6829   18.0278 H         1 UNK         0.0000 
     42 H42         5.0156   57.9500   16.6146 H         1 UNK         0.0000 
@<TRIPOS>BOND
     1    1    6 ar   
     2    1    2 ar   
     3    1   33 1    
     4    2    3 ar   
     5    2   34 1    
     6    3    4 ar   
     7    3    8 1    
     8    4    5 ar   
     9    4   35 1    
    10    5    6 ar   
    11    5    7 1    
    12    6   36 1    
    13    8    9 1    
    14    8   14 1    
    15    8   10 1    
    16   10   11 2    
    17   10   26 1    
    18   11   12 1    
    19   11   25 1    
    20   12   13 2    
    21   12   14 am   BACKBONE|DICT|INTERRES
    22   14   15 am   BACKBONE|DICT|INTERRES
    23   15   23 1    
    24   15   16 2    
    25   16   17 1    
    26   17   22 ar   
    27   17   18 ar   
    28   18   19 ar   
    29   18   37 1    
    30   19   20 ar   
    31   19   38 1    
    32   20   21 ar   
    33   20   24 1    
    34   21   22 ar   
    35   21   39 1    
    36   22   23 1    
    37   26   27 2    
    38   26   28 1    
    39   28   32 1    
    40   28   29 2    
    41   29   30 1    
    42   29   40 1    
    43   30   31 2    
    44   30   41 1    
    45   31   32 1    
    46   31   42 1    
@<TRIPOS>SUBSTRUCTURE
     1 UNK         1 GROUP             0       ****    0 ROOT    
