ZINC34903822_3982
                    3D
 Schrodinger Suite 2024-2.
 76 79  0  0  1  0            999 V2000
    3.7688   52.3357   29.3023 C   0  0  0  0  0  0
    2.4392   53.1193   29.4215 C   0  0  0  0  0  0
    1.7951   52.7447   30.7831 C   0  0  0  0  0  0
    2.7457   54.6396   29.4458 C   0  0  0  0  0  0
    1.5374   52.7808   28.2083 C   0  0  0  0  0  0
    0.2901   52.1514   28.3473 C   0  0  0  0  0  0
   -0.4839   51.8527   27.2318 C   0  0  0  0  0  0
   -0.0228   52.1695   25.9476 C   0  0  0  0  0  0
    1.2102   52.8086   25.7997 C   0  0  0  0  0  0
    1.9806   53.1073   26.9188 C   0  0  0  0  0  0
   -0.8681   51.9092   24.7310 C   0  0  0  0  0  0
   -1.1564   52.8697   24.0096 O   0  0  0  0  0  0
   -1.2702   50.6343   24.4647 N   0  0  0  0  0  0
   -0.8878   49.4185   25.1926 C   0  0  0  0  0  0
   -2.0069   48.4349   24.8909 C   0  0  0  0  0  0
   -2.3762   48.7701   23.4531 C   0  0  0  0  0  0
   -2.1273   50.2871   23.3069 C   0  0  2  0  0  0
   -3.0718   50.8218   23.4243 H   0  0  0  0  0  0
   -1.5197   50.6210   21.9282 C   0  0  0  0  0  0
   -2.2550   51.0171   21.0226 O   0  0  0  0  0  0
   -0.1926   50.4512   21.8124 N   0  0  0  0  0  0
    0.6124   50.7082   20.6228 C   0  0  1  0  0  0
    0.6569   52.1885   20.1505 C   0  0  0  0  0  0
    1.6518   52.4281   18.9905 C   0  0  0  0  0  0
    3.0732   51.9083   19.3042 C   0  0  2  0  0  0
    2.9236   50.3880   19.5161 C   0  0  0  0  0  0
    2.0004   50.0279   20.6991 C   0  0  0  0  0  0
    3.6715   52.5470   20.4828 N   0  0  0  0  0  0
    4.4317   53.6590   20.4733 C   0  0  0  0  0  0
    4.7140   54.2702   19.4404 O   0  0  0  0  0  0
    5.0022   54.0939   21.8057 C   0  0  0  0  0  0
    6.1499   54.8981   21.8386 C   0  0  0  0  0  0
    6.7043   55.2965   23.0518 C   0  0  0  0  0  0
    6.1417   54.8897   24.2609 C   0  0  0  0  0  0
    4.9855   54.0968   24.2336 C   0  0  0  0  0  0
    4.4171   53.7078   23.0207 C   0  0  0  0  0  0
    6.7771   55.3033   25.4181 O   0  0  0  0  0  0
    6.2720   54.8723   26.6785 C   0  0  0  0  0  0
    4.4300   52.5352   30.1461 H   0  0  0  0  0  0
    4.3214   52.5887   28.3963 H   0  0  0  0  0  0
    3.5865   51.2616   29.2813 H   0  0  0  0  0  0
    0.9002   53.3347   30.9840 H   0  0  0  0  0  0
    1.5089   51.6966   30.8221 H   0  0  0  0  0  0
    2.4813   52.8925   31.6134 H   0  0  0  0  0  0
    1.8362   55.2287   29.5844 H   0  0  0  0  0  0
    3.4327   54.8954   30.2512 H   0  0  0  0  0  0
    3.2160   54.9854   28.5237 H   0  0  0  0  0  0
   -0.1063   51.8785   29.3133 H   0  0  0  0  0  0
   -1.4460   51.3763   27.3710 H   0  0  0  0  0  0
    1.5738   53.0855   24.8201 H   0  0  0  0  0  0
    2.9340   53.5907   26.7759 H   0  0  0  0  0  0
    0.0623   49.0578   24.7943 H   0  0  0  0  0  0
   -0.7736   49.5310   26.2712 H   0  0  0  0  0  0
   -1.7197   47.3954   25.0378 H   0  0  0  0  0  0
   -2.8559   48.6415   25.5458 H   0  0  0  0  0  0
   -1.7273   48.2032   22.7804 H   0  0  0  0  0  0
   -3.4038   48.4923   23.2156 H   0  0  0  0  0  0
    0.3158   50.1625   22.6326 H   0  0  0  0  0  0
    0.1193   50.1895   19.7945 H   0  0  0  0  0  0
   -0.3345   52.5067   19.8332 H   0  0  0  0  0  0
    0.9564   52.8307   20.9803 H   0  0  0  0  0  0
    1.2798   51.9411   18.0868 H   0  0  0  0  0  0
    1.7052   53.4850   18.7320 H   0  0  0  0  0  0
    3.7248   52.0796   18.4434 H   0  0  0  0  0  0
    2.5658   49.9181   18.5965 H   0  0  0  0  0  0
    3.9043   49.9586   19.6871 H   0  0  0  0  0  0
    2.5040   50.3386   21.6146 H   0  0  0  0  0  0
    1.8906   48.9427   20.7458 H   0  0  0  0  0  0
    3.3529   52.2035   21.3731 H   0  0  0  0  0  0
    6.6198   55.2210   20.9207 H   0  0  0  0  0  0
    7.5878   55.9202   23.0544 H   0  0  0  0  0  0
    4.5178   53.7601   25.1462 H   0  0  0  0  0  0
    3.5234   53.1028   23.0466 H   0  0  0  0  0  0
    6.9056   55.2665   27.4749 H   0  0  0  0  0  0
    5.2591   55.2389   26.8516 H   0  0  0  0  0  0
    6.2823   53.7845   26.7598 H   0  0  0  0  0  0
  1  2  1  0  0  0
  1 39  1  0  0  0
  1 40  1  0  0  0
  1 41  1  0  0  0
  2  3  1  0  0  0
  2  4  1  0  0  0
  2  5  1  0  0  0
  3 42  1  0  0  0
  3 43  1  0  0  0
  3 44  1  0  0  0
  4 45  1  0  0  0
  4 46  1  0  0  0
  4 47  1  0  0  0
  5 10  2  0  0  0
  5  6  1  0  0  0
  6  7  2  0  0  0
  6 48  1  0  0  0
  7  8  1  0  0  0
  7 49  1  0  0  0
  8  9  2  0  0  0
  8 11  1  0  0  0
  9 10  1  0  0  0
  9 50  1  0  0  0
 10 51  1  0  0  0
 11 12  2  0  0  0
 11 13  1  0  0  0
 13 17  1  0  0  0
 13 14  1  0  0  0
 14 15  1  0  0  0
 14 52  1  0  0  0
 14 53  1  0  0  0
 15 16  1  0  0  0
 15 54  1  0  0  0
 15 55  1  0  0  0
 16 17  1  0  0  0
 16 56  1  0  0  0
 16 57  1  0  0  0
 17 18  1  0  0  0
 17 19  1  0  0  0
 19 20  2  0  0  0
 19 21  1  0  0  0
 21 22  1  0  0  0
 21 58  1  0  0  0
 22 27  1  0  0  0
 22 23  1  0  0  0
 22 59  1  0  0  0
 23 24  1  0  0  0
 23 60  1  0  0  0
 23 61  1  0  0  0
 24 25  1  0  0  0
 24 62  1  0  0  0
 24 63  1  0  0  0
 25 26  1  0  0  0
 25 28  1  0  0  0
 25 64  1  0  0  0
 26 27  1  0  0  0
 26 65  1  0  0  0
 26 66  1  0  0  0
 27 67  1  0  0  0
 27 68  1  0  0  0
 28 29  1  0  0  0
 28 69  1  0  0  0
 29 30  2  0  0  0
 29 31  1  0  0  0
 31 36  2  0  0  0
 31 32  1  0  0  0
 32 33  2  0  0  0
 32 70  1  0  0  0
 33 34  1  0  0  0
 33 71  1  0  0  0
 34 35  2  0  0  0
 34 37  1  0  0  0
 35 36  1  0  0  0
 35 72  1  0  0  0
 36 73  1  0  0  0
 37 38  1  0  0  0
 38 74  1  0  0  0
 38 75  1  0  0  0
 38 76  1  0  0  0
M  END
> <i_i_glide_confnum>
234

> <i_i_glide_lignum>
3983

> <i_i_glide_posenum>
174

> <i_i_glide_rotatable_bonds>
10

> <i_m_Source_File_Index>
928

> <b_m_subgroup_collapsed>
0

> <r_i_docking_score>
-5.48904

> <r_i_glide_ecoul>
-5.39103

> <r_i_glide_eff_state_penalty>
0

> <r_i_glide_einternal>
5.43522

> <r_i_glide_emodel>
-66.5888

> <r_i_glide_energy>
-51.3203

> <r_i_glide_erotb>
0.64001

> <r_i_glide_esite>
-0.0145192

> <r_i_glide_evdw>
-45.9293

> <r_i_glide_gscore>
-5.48904

> <r_i_glide_hbond>
-0.306704

> <r_i_glide_ligand_efficiency>
-0.148353

> <r_i_glide_ligand_efficiency_ln>
-1.19045

> <r_i_glide_ligand_efficiency_sa>
-0.494344

> <r_i_glide_lipo>
-2.63558

> <r_i_glide_metal>
0

> <r_i_glide_rewards>
-0.0671305

> <s_i_glide_gridfile>
wee1_glide-grid

> <s_m_Source_File>
wee1_decoys_glide_SP.sdf

> <s_m_Source_Path>
/Users/zhangxujun/Desktop

> <s_m_entry_id>
1203

> <s_m_entry_name>
wee1_decoys_glide_SP.928

> <s_m_subgroup_title>
wee1_decoys_glide_SP

> <s_m_subgroupid>
wee1_decoys_glide_SP


$$$$
