@<TRIPOS>MOLECULE
ZINC64558185_1011
51   54    1
SMALL
USER_CHARGES


@<TRIPOS>ATOM
      1 C1         -1.6827   46.9344   21.2751 C.3       1 UNK         0.0000 
      2 C2         -1.9929   48.2454   21.9663 C.ar      1 UNK         0.0000 
      3 C3         -2.6068   48.2384   23.2212 C.ar      1 UNK         0.0000 
      4 C4         -2.8631   49.4379   23.8768 C.ar      1 UNK         0.0000 
      5 C5         -2.5005   50.6473   23.2780 C.ar      1 UNK         0.0000 
      6 C6         -1.8962   50.6577   22.0193 C.ar      1 UNK         0.0000 
      7 C7         -1.6395   49.4553   21.3648 C.ar      1 UNK         0.0000 
      8 S8         -2.7795   52.1760   24.1686 S.o2      1 UNK         0.0000 
      9 O9         -4.1155   52.0791   24.7647 O.2       1 UNK         0.0000 
     10 O10        -2.4531   53.2960   23.2809 O.2       1 UNK         0.0000 
     11 C11        -1.5335   52.1376   25.4565 C.2       1 UNK         0.0000 
     12 C12        -1.6851   51.8602   26.7448 C.2       1 UNK         0.0000 
     13 C13        -0.4535   52.0933   27.4850 C.2       1 UNK         0.0000 
     14 O14        -0.2983   51.9917   28.7079 O.2       1 UNK         0.0000 
     15 N15         0.4864   52.4965   26.5648 N.am      1 UNK         0.0000 
     16 C16        -0.1314   52.5881   25.2206 C.3       1 UNK         0.0000 
     17 H17        -0.1491   53.6251   24.8819 H         1 UNK         0.0000 
     18 C18         0.6033   51.8528   24.0961 C.ar      1 UNK         0.0000 
     19 C19         0.8012   50.4701   24.1364 C.ar      1 UNK         0.0000 
     20 C20         1.3912   49.8214   23.0557 C.ar      1 UNK         0.0000 
     21 C21         1.8120   50.5513   21.9325 C.ar      1 UNK         0.0000 
     22 C22         1.6531   51.9347   21.9182 C.ar      1 UNK         0.0000 
     23 C23         1.0428   52.5819   22.9864 C.ar      1 UNK         0.0000 
     24 O24         2.3684   49.9924   20.8018 O.3       1 UNK         0.0000 
     25 C25         2.2901   48.5847   20.6256 C.3       1 UNK         0.0000 
     26 C26         1.8267   52.8967   26.8703 C.ar      1 UNK         0.0000 
     27 C27         2.4861   52.5124   28.0542 C.ar      1 UNK         0.0000 
     28 C28         3.7965   52.9113   28.3086 C.ar      1 UNK         0.0000 
     29 C29         4.4779   53.6882   27.3761 C.ar      1 UNK         0.0000 
     30 C30         3.8450   54.0905   26.2043 C.ar      1 UNK         0.0000 
     31 C31         2.5315   53.6967   25.9556 C.ar      1 UNK         0.0000 
     32 Br32        6.3033   54.1360   27.6801 Br        1 UNK         0.0000 
     33 O33        -2.7491   51.5080   27.3763 O.co2     1 UNK         0.0000 
     34 H34        -1.3412   46.1883   21.9964 H         1 UNK         0.0000 
     35 H35        -2.5701   46.5432   20.7748 H         1 UNK         0.0000 
     36 H36        -0.8820   47.0454   20.5402 H         1 UNK         0.0000 
     37 H37        -2.8775   47.3072   23.6946 H         1 UNK         0.0000 
     38 H38        -3.3237   49.4327   24.8572 H         1 UNK         0.0000 
     39 H39        -1.5995   51.5886   21.5615 H         1 UNK         0.0000 
     40 H40        -1.1520   49.4675   20.3993 H         1 UNK         0.0000 
     41 H41         0.4711   49.8970   24.9904 H         1 UNK         0.0000 
     42 H42         1.5032   48.7508   23.1061 H         1 UNK         0.0000 
     43 H43         1.9751   52.5061   21.0599 H         1 UNK         0.0000 
     44 H44         0.8989   53.6513   22.9356 H         1 UNK         0.0000 
     45 H45         2.7351   48.3046   19.6720 H         1 UNK         0.0000 
     46 H46         1.2518   48.2513   20.6128 H         1 UNK         0.0000 
     47 H47         2.8160   48.0565   21.4186 H         1 UNK         0.0000 
     48 H48         2.0199   51.8697   28.7837 H         1 UNK         0.0000 
     49 H49         4.2994   52.5848   29.2046 H         1 UNK         0.0000 
     50 H50         4.3752   54.6929   25.4830 H         1 UNK         0.0000 
     51 H51         2.0713   54.0375   25.0429 H         1 UNK         0.0000 
@<TRIPOS>BOND
     1    1    2 1    
     2    1   34 1    
     3    1   35 1    
     4    1   36 1    
     5    2    7 ar   
     6    2    3 ar   
     7    3    4 ar   
     8    3   37 1    
     9    4    5 ar   
    10    4   38 1    
    11    5    6 ar   
    12    5    8 1    
    13    6    7 ar   
    14    6   39 1    
    15    7   40 1    
    16    8    9 2    
    17    8   10 2    
    18    8   11 1    
    19   11   16 1    
    20   11   12 2    
    21   12   13 1    
    22   12   33 1    
    23   13   14 2    
    24   13   15 am   BACKBONE|DICT|INTERRES
    25   15   16 1    
    26   15   26 1    
    27   16   17 1    
    28   16   18 1    
    29   18   23 ar   
    30   18   19 ar   
    31   19   20 ar   
    32   19   41 1    
    33   20   21 ar   
    34   20   42 1    
    35   21   22 ar   
    36   21   24 1    
    37   22   23 ar   
    38   22   43 1    
    39   23   44 1    
    40   24   25 1    
    41   25   45 1    
    42   25   46 1    
    43   25   47 1    
    44   26   31 ar   
    45   26   27 ar   
    46   27   28 ar   
    47   27   48 1    
    48   28   29 ar   
    49   28   49 1    
    50   29   30 ar   
    51   29   32 1    
    52   30   31 ar   
    53   30   50 1    
    54   31   51 1    
@<TRIPOS>SUBSTRUCTURE
     1 UNK         1 GROUP             0       ****    0 ROOT    
