@<TRIPOS>MOLECULE
ZINC39836483_1047
70   73    1
SMALL
USER_CHARGES


@<TRIPOS>ATOM
      1 C1          6.6110   57.7414   16.5893 C.3       1 UNK         0.0000 
      2 C2          7.2864   56.3496   16.7136 C.3       1 UNK         0.0000 
      3 C3          7.0422   55.5746   15.3953 C.3       1 UNK         0.0000 
      4 C4          8.8169   56.5693   16.8349 C.3       1 UNK         0.0000 
      5 C5          6.7410   55.5217   17.9426 C.3       1 UNK         0.0000 
      6 H6          7.1384   54.5101   17.8192 H         1 UNK         0.0000 
      7 C7          5.1931   55.4157   17.9816 C.3       1 UNK         0.0000 
      8 C8          4.7089   54.3341   18.9680 C.3       1 UNK         0.0000 
      9 C9          5.4012   54.5069   20.3297 C.2       1 UNK         0.0000 
     10 C10         6.5487   55.3097   20.4489 C.2       1 UNK         0.0000 
     11 S11         7.1024   55.4338   22.0755 S.3       1 UNK         0.0000 
     12 C12         5.7536   54.4958   22.6486 C.2       1 UNK         0.0000 
     13 C13         4.9635   53.9937   21.5880 C.2       1 UNK         0.0000 
     14 C14         3.7900   53.1495   21.8011 C.2       1 UNK         0.0000 
     15 O15         3.1973   53.1392   22.8826 O.2       1 UNK         0.0000 
     16 N16         3.4367   52.3617   20.7698 N.am      1 UNK         0.0000 
     17 C17         2.3496   51.3815   20.7519 C.3       1 UNK         0.0000 
     18 H18         2.5735   50.5211   21.3883 H         1 UNK         0.0000 
     19 C19         2.1823   50.8586   19.3031 C.3       1 UNK         0.0000 
     20 C20         0.8698   50.0616   19.1888 C.3       1 UNK         0.0000 
     21 S21        -0.3291   50.9508   20.3191 S.o2      1 UNK         0.0000 
     22 O22        -0.8813   49.9810   21.2688 O.2       1 UNK         0.0000 
     23 O23        -1.2139   51.8389   19.5584 O.2       1 UNK         0.0000 
     24 C24         0.9840   51.9801   21.1540 C.3       1 UNK         0.0000 
     25 N25         5.5296   54.2539   24.0051 N.am      1 UNK         0.0000 
     26 C26         6.1506   54.7610   25.0942 C.2       1 UNK         0.0000 
     27 O27         7.1033   55.5383   25.0839 O.2       1 UNK         0.0000 
     28 C28         5.6127   54.2876   26.3451 C.2       1 UNK         0.0000 
     29 C29         4.2900   54.1368   26.5945 C.2       1 UNK         0.0000 
     30 C30         3.7069   53.6217   27.8517 C.ar      1 UNK         0.0000 
     31 C31         4.4809   52.8966   28.7627 C.ar      1 UNK         0.0000 
     32 C32         3.9088   52.3950   29.9255 C.ar      1 UNK         0.0000 
     33 C33         2.5713   52.6245   30.2154 C.ar      1 UNK         0.0000 
     34 C34         1.7891   53.3600   29.3136 C.ar      1 UNK         0.0000 
     35 C35         2.3559   53.8507   28.1357 C.ar      1 UNK         0.0000 
     36 O36         2.1282   52.0976   31.4071 O.3       1 UNK         0.0000 
     37 C37         0.8165   52.4007   31.8664 C.3       1 UNK         0.0000 
     38 C38         7.2226   56.0722   19.3163 C.3       1 UNK         0.0000 
     39 H39         6.7186   58.3378   17.4937 H         1 UNK         0.0000 
     40 H40         7.0444   58.3229   15.7728 H         1 UNK         0.0000 
     41 H41         5.5436   57.6591   16.3799 H         1 UNK         0.0000 
     42 H42         7.4637   54.5690   15.4334 H         1 UNK         0.0000 
     43 H43         5.9835   55.4733   15.1596 H         1 UNK         0.0000 
     44 H44         7.4991   56.0778   14.5427 H         1 UNK         0.0000 
     45 H45         9.3445   55.6300   17.0120 H         1 UNK         0.0000 
     46 H46         9.2369   57.0076   15.9288 H         1 UNK         0.0000 
     47 H47         9.0723   57.2468   17.6492 H         1 UNK         0.0000 
     48 H48         4.7375   56.3896   18.1750 H         1 UNK         0.0000 
     49 H49         4.8133   55.1335   17.0016 H         1 UNK         0.0000 
     50 H50         4.9202   53.3431   18.5642 H         1 UNK         0.0000 
     51 H51         3.6231   54.4033   19.0560 H         1 UNK         0.0000 
     52 H52         4.0223   52.3746   19.9449 H         1 UNK         0.0000 
     53 H53         3.0456   50.2605   18.9976 H         1 UNK         0.0000 
     54 H54         2.1677   51.6951   18.6016 H         1 UNK         0.0000 
     55 H55         1.0387   49.0740   19.6190 H         1 UNK         0.0000 
     56 H56         0.4443   49.9250   18.1960 H         1 UNK         0.0000 
     57 H57         0.9136   52.9243   20.6131 H         1 UNK         0.0000 
     58 H58         0.7757   52.2097   22.1967 H         1 UNK         0.0000 
     59 H59         4.7406   53.6474   24.1798 H         1 UNK         0.0000 
     60 H60         6.3626   54.0755   27.0929 H         1 UNK         0.0000 
     61 H61         3.5722   54.3842   25.8224 H         1 UNK         0.0000 
     62 H62         5.5242   52.6927   28.5727 H         1 UNK         0.0000 
     63 H63         4.5191   51.8287   30.6146 H         1 UNK         0.0000 
     64 H64         0.7429   53.5468   29.5034 H         1 UNK         0.0000 
     65 H65         1.7389   54.4052   27.4453 H         1 UNK         0.0000 
     66 H66         0.7039   51.9461   32.8496 H         1 UNK         0.0000 
     67 H67         0.6646   53.4745   31.9803 H         1 UNK         0.0000 
     68 H68         0.0461   51.9920   31.2122 H         1 UNK         0.0000 
     69 H69         6.9717   57.1282   19.4047 H         1 UNK         0.0000 
     70 H70         8.3052   55.9828   19.4155 H         1 UNK         0.0000 
@<TRIPOS>BOND
     1    1    2 1    
     2    1   39 1    
     3    1   40 1    
     4    1   41 1    
     5    2    3 1    
     6    2    4 1    
     7    2    5 1    
     8    3   42 1    
     9    3   43 1    
    10    3   44 1    
    11    4   45 1    
    12    4   46 1    
    13    4   47 1    
    14    5    6 1    
    15    5   38 1    
    16    5    7 1    
    17    7    8 1    
    18    7   48 1    
    19    7   49 1    
    20    8    9 1    
    21    8   50 1    
    22    8   51 1    
    23    9   13 1    
    24    9   10 2    
    25   10   11 1    
    26   10   38 1    
    27   11   12 1    
    28   12   13 2    
    29   12   25 am   BACKBONE|DICT|INTERRES
    30   13   14 1    
    31   14   15 2    
    32   14   16 am   BACKBONE|DICT|INTERRES
    33   16   17 1    
    34   16   52 1    
    35   17   18 1    
    36   17   24 1    
    37   17   19 1    
    38   19   20 1    
    39   19   53 1    
    40   19   54 1    
    41   20   21 1    
    42   20   55 1    
    43   20   56 1    
    44   21   22 2    
    45   21   23 2    
    46   21   24 1    
    47   24   57 1    
    48   24   58 1    
    49   25   26 am   BACKBONE|DICT|INTERRES
    50   25   59 1    
    51   26   27 2    
    52   26   28 1    
    53   28   29 2    
    54   28   60 1    
    55   29   30 1    
    56   29   61 1    
    57   30   35 ar   
    58   30   31 ar   
    59   31   32 ar   
    60   31   62 1    
    61   32   33 ar   
    62   32   63 1    
    63   33   34 ar   
    64   33   36 1    
    65   34   35 ar   
    66   34   64 1    
    67   35   65 1    
    68   36   37 1    
    69   37   66 1    
    70   37   67 1    
    71   37   68 1    
    72   38   69 1    
    73   38   70 1    
@<TRIPOS>SUBSTRUCTURE
     1 UNK         1 GROUP             0       ****    0 ROOT    
