ZINC50252566_1647
                    3D
 Schrodinger Suite 2024-2.
 31 32  0  0  1  0            999 V2000
   -0.7953   51.0600   27.6183 C   0  0  0  0  0  0
    0.2128   51.7734   28.3849 N   0  0  0  0  0  0
    1.5067   52.0319   28.0198 C   0  0  0  0  0  0
    2.0438   52.7948   29.0406 C   0  0  0  0  0  0
    0.9970   52.9135   29.9662 C   0  0  0  0  0  0
   -0.1058   52.3180   29.5675 N   0  0  0  0  0  0
    3.6985   53.5173   29.1374 S   0  0  0  0  0  0
    4.5995   52.3934   28.8815 O   0  0  0  0  0  0
    3.7330   54.0947   30.4809 O   0  0  0  0  0  0
    3.6832   54.6040   28.0200 N   0  5  0  0  0  0
    4.1321   54.3318   26.7508 C   0  0  0  0  0  0
    3.1722   54.1378   25.7517 C   0  0  0  0  0  0
    3.5240   54.0373   24.4081 C   0  0  0  0  0  0
    4.8654   54.0978   24.0246 C   0  0  0  0  0  0
    5.8459   54.2307   25.0141 C   0  0  0  0  0  0
    5.4944   54.3510   26.3616 C   0  0  0  0  0  0
    6.5364   54.5171   27.2819 N   0  0  0  0  0  0
    5.2537   54.0390   22.5478 C   0  0  0  0  0  0
    4.2750   54.4966   21.7669 F   0  0  0  0  0  0
    5.5037   52.7756   22.2102 F   0  0  0  0  0  0
    6.3434   54.7690   22.3101 F   0  0  0  0  0  0
   -1.0704   51.6555   26.7495 H   0  0  0  0  0  0
   -0.3986   50.0963   27.2883 H   0  0  0  0  0  0
   -1.6857   50.8875   28.2267 H   0  0  0  0  0  0
    1.9066   51.6912   27.0778 H   0  0  0  0  0  0
    1.0413   53.4478   30.9038 H   0  0  0  0  0  0
    2.1251   54.1138   26.0159 H   0  0  0  0  0  0
    2.7455   53.9252   23.6669 H   0  0  0  0  0  0
    6.8876   54.2658   24.7279 H   0  0  0  0  0  0
    6.2544   54.5634   28.2533 H   0  0  0  0  0  0
    7.4324   54.1197   27.0460 H   0  0  0  0  0  0
  1  2  1  0  0  0
  1 22  1  0  0  0
  1 23  1  0  0  0
  1 24  1  0  0  0
  2  6  1  0  0  0
  2  3  1  0  0  0
  3  4  2  0  0  0
  3 25  1  0  0  0
  4  5  1  0  0  0
  4  7  1  0  0  0
  5  6  2  0  0  0
  5 26  1  0  0  0
  7  8  2  0  0  0
  7  9  2  0  0  0
  7 10  1  0  0  0
 10 11  1  0  0  0
 11 16  2  0  0  0
 11 12  1  0  0  0
 12 13  2  0  0  0
 12 27  1  0  0  0
 13 14  1  0  0  0
 13 28  1  0  0  0
 14 15  2  0  0  0
 14 18  1  0  0  0
 15 16  1  0  0  0
 15 29  1  0  0  0
 16 17  1  0  0  0
 17 30  1  0  0  0
 17 31  1  0  0  0
 18 19  1  0  0  0
 18 20  1  0  0  0
 18 21  1  0  0  0
M  CHG  1  10  -1
M  END
> <i_i_glide_confnum>
8

> <i_i_glide_lignum>
1648

> <i_i_glide_posenum>
132

> <i_i_glide_rotatable_bonds>
4

> <i_m_Source_File_Index>
555

> <b_m_subgroup_collapsed>
0

> <r_i_docking_score>
-6.34245

> <r_i_glide_ecoul>
-8.62255

> <r_i_glide_eff_state_penalty>
0

> <r_i_glide_einternal>
9.49669

> <r_i_glide_emodel>
-48.2745

> <r_i_glide_energy>
-38.0181

> <r_i_glide_erotb>
0.549038

> <r_i_glide_esite>
-0.0333499

> <r_i_glide_evdw>
-29.3956

> <r_i_glide_gscore>
-6.34245

> <r_i_glide_hbond>
0

> <r_i_glide_ligand_efficiency>
-0.302022

> <r_i_glide_ligand_efficiency_ln>
-1.56816

> <r_i_glide_ligand_efficiency_sa>
-0.833255

> <r_i_glide_lipo>
-2.26241

> <r_i_glide_metal>
0

> <r_i_glide_rewards>
-1.83256

> <s_i_glide_gridfile>
wee1_glide-grid

> <s_m_Source_File>
wee1_decoys_glide_SP.sdf

> <s_m_Source_Path>
/Users/zhangxujun/Desktop

> <s_m_entry_id>
830

> <s_m_entry_name>
wee1_decoys_glide_SP.555

> <s_m_subgroup_title>
wee1_decoys_glide_SP

> <s_m_subgroupid>
wee1_decoys_glide_SP


$$$$
