@<TRIPOS>MOLECULE
ZINC09670244_2490
51   54    1
SMALL
USER_CHARGES


@<TRIPOS>ATOM
      1 C1         -1.4493   49.6674   25.9112 C.3       1 UNK         0.0000 
      2 C2         -0.6440   50.7517   26.6156 C.ar      1 UNK         0.0000 
      3 C3          0.7040   50.5225   26.8813 C.ar      1 UNK         0.0000 
      4 C4          1.4732   51.4792   27.5486 C.ar      1 UNK         0.0000 
      5 C5          0.9199   52.7021   27.9241 C.ar      1 UNK         0.0000 
      6 C6         -0.4530   52.8957   27.7432 C.ar      1 UNK         0.0000 
      7 C7         -1.2307   51.9415   27.0709 C.ar      1 UNK         0.0000 
      8 N8         -2.5898   52.2008   26.8745 N.am      1 UNK         0.0000 
      9 C9         -3.1285   52.6070   25.7069 C.2       1 UNK         0.0000 
     10 O10        -2.5055   52.7442   24.6511 O.2       1 UNK         0.0000 
     11 C11        -4.5244   52.9452   25.7910 C.2       1 UNK         0.0000 
     12 C12        -5.3382   53.6480   24.9102 C.2       1 UNK         0.0000 
     13 C13        -6.6156   53.6827   25.4707 C.2       1 UNK         0.0000 
     14 C14        -6.5311   52.9954   26.6698 C.2       1 UNK         0.0000 
     15 O15        -5.2645   52.5451   26.8637 O.3       1 UNK         0.0000 
     16 C16         1.7940   53.7939   28.4936 C.2       1 UNK         0.0000 
     17 O17         1.5303   54.2601   29.5999 O.2       1 UNK         0.0000 
     18 N18         2.9027   54.2177   27.8341 N.am      1 UNK         0.0000 
     19 C19         3.3135   54.0280   26.5052 C.2       1 UNK         0.0000 
     20 C20         4.6186   54.2201   25.9772 C.2       1 UNK         0.0000 
     21 C21         4.6315   54.0986   24.5532 C.2       1 UNK         0.0000 
     22 C22         3.3745   53.7598   24.0294 C.2       1 UNK         0.0000 
     23 S23         2.1596   53.6789   25.2402 S.3       1 UNK         0.0000 
     24 C24         3.0511   53.5539   22.5582 C.3       1 UNK         0.0000 
     25 C25         4.3553   53.2551   21.8015 C.3       1 UNK         0.0000 
     26 C26         5.4295   54.2996   22.1317 C.3       1 UNK         0.0000 
     27 C27         5.8459   54.2839   23.6231 C.3       1 UNK         0.0000 
     28 C28         5.7977   54.5989   26.7538 C.2       1 UNK         0.0000 
     29 O29         6.7037   55.2932   26.2987 O.2       1 UNK         0.0000 
     30 N30         5.8400   54.1785   28.0195 N.am      1 UNK         0.0000 
     31 H31        -0.9359   48.7045   25.9357 H         1 UNK         0.0000 
     32 H32        -2.4036   49.5146   26.4176 H         1 UNK         0.0000 
     33 H33        -1.6526   49.9459   24.8762 H         1 UNK         0.0000 
     34 H34         1.1405   49.5818   26.5801 H         1 UNK         0.0000 
     35 H35         2.5221   51.2944   27.7195 H         1 UNK         0.0000 
     36 H36        -0.8953   53.8247   28.0726 H         1 UNK         0.0000 
     37 H37        -3.1907   52.1334   27.6815 H         1 UNK         0.0000 
     38 H38        -5.0340   54.0862   23.9711 H         1 UNK         0.0000 
     39 H39        -7.4956   54.1440   25.0466 H         1 UNK         0.0000 
     40 H40        -7.2471   52.7502   27.4407 H         1 UNK         0.0000 
     41 H41         3.5419   54.7583   28.3977 H         1 UNK         0.0000 
     42 H42         2.5902   54.4538   22.1486 H         1 UNK         0.0000 
     43 H43         2.3357   52.7436   22.4132 H         1 UNK         0.0000 
     44 H44         4.1608   53.2418   20.7283 H         1 UNK         0.0000 
     45 H45         4.7204   52.2590   22.0580 H         1 UNK         0.0000 
     46 H46         5.0633   55.2897   21.8541 H         1 UNK         0.0000 
     47 H47         6.3032   54.1311   21.5061 H         1 UNK         0.0000 
     48 H48         6.5595   53.4772   23.7918 H         1 UNK         0.0000 
     49 H49         6.3784   55.2117   23.8318 H         1 UNK         0.0000 
     50 H50         5.2104   53.4615   28.3438 H         1 UNK         0.0000 
     51 H51         6.5891   54.5109   28.6128 H         1 UNK         0.0000 
@<TRIPOS>BOND
     1    1    2 1    
     2    1   31 1    
     3    1   32 1    
     4    1   33 1    
     5    2    7 ar   
     6    2    3 ar   
     7    3    4 ar   
     8    3   34 1    
     9    4    5 ar   
    10    4   35 1    
    11    5    6 ar   
    12    5   16 1    
    13    6    7 ar   
    14    6   36 1    
    15    7    8 1    
    16    8    9 am   BACKBONE|DICT|INTERRES
    17    8   37 1    
    18    9   10 2    
    19    9   11 1    
    20   11   15 1    
    21   11   12 2    
    22   12   13 1    
    23   12   38 1    
    24   13   14 2    
    25   13   39 1    
    26   14   15 1    
    27   14   40 1    
    28   16   17 2    
    29   16   18 am   BACKBONE|DICT|INTERRES
    30   18   19 am   BACKBONE|DICT|INTERRES
    31   18   41 1    
    32   19   23 1    
    33   19   20 2    
    34   20   21 1    
    35   20   28 1    
    36   21   27 1    
    37   21   22 2    
    38   22   23 1    
    39   22   24 1    
    40   24   25 1    
    41   24   42 1    
    42   24   43 1    
    43   25   26 1    
    44   25   44 1    
    45   25   45 1    
    46   26   27 1    
    47   26   46 1    
    48   26   47 1    
    49   27   48 1    
    50   27   49 1    
    51   28   29 2    
    52   28   30 am   BACKBONE|DICT|INTERRES
    53   30   50 1    
    54   30   51 1    
@<TRIPOS>SUBSTRUCTURE
     1 UNK         1 GROUP             0       ****    0 ROOT    
