@<TRIPOS>MOLECULE
ZINC03027411_3238
36   37    1
SMALL
USER_CHARGES


@<TRIPOS>ATOM
      1 C1          1.0992   55.4866   30.0813 C.ar      1 UNK         0.0000 
      2 C2          2.3026   56.0455   29.6817 C.ar      1 UNK         0.0000 
      3 C3          3.2455   55.2546   29.0365 C.ar      1 UNK         0.0000 
      4 C4          2.9943   53.9117   28.7387 C.ar      1 UNK         0.0000 
      5 C5          1.7450   53.3690   29.0931 C.ar      1 UNK         0.0000 
      6 C6          0.8101   54.1602   29.7741 C.ar      1 UNK         0.0000 
      7 N7          1.4106   51.9685   28.7884 N.pl3     1 UNK         0.0000 
      8 O8          0.2525   51.7036   28.4819 O.co2     1 UNK         0.0000 
      9 O9          2.3030   51.1368   28.8816 O.co2     1 UNK         0.0000 
     10 O10         3.9231   53.1118   28.0925 O.3       1 UNK         0.0000 
     11 C11         5.3169   53.4602   28.1076 C.3       1 UNK         0.0000 
     12 C12         5.7391   54.2354   26.8485 C.2       1 UNK         0.0000 
     13 O13         6.7801   54.8969   26.8819 O.2       1 UNK         0.0000 
     14 N14         4.9716   54.0964   25.7497 N.am      1 UNK         0.0000 
     15 N15         5.4004   54.4824   24.5321 N.2       1 UNK         0.0000 
     16 C16         4.6775   54.0639   23.5729 C.2       1 UNK         0.0000 
     17 C17         5.0053   54.2420   22.1413 C.ar      1 UNK         0.0000 
     18 C18         4.1078   53.7019   21.2070 C.ar      1 UNK         0.0000 
     19 C19         4.3373   53.8057   19.8369 C.ar      1 UNK         0.0000 
     20 C20         5.4671   54.4657   19.3681 C.ar      1 UNK         0.0000 
     21 C21         6.3756   55.0147   20.2685 C.ar      1 UNK         0.0000 
     22 C22         6.1606   54.8979   21.6476 C.ar      1 UNK         0.0000 
     23 O23         7.1042   55.4481   22.4816 O.3       1 UNK         0.0000 
     24 Br24        7.9262   55.8980   19.5915 Br        1 UNK         0.0000 
     25 Br25        3.1048   53.0430   18.6041 Br        1 UNK         0.0000 
     26 H26         0.3770   56.0894   30.6107 H         1 UNK         0.0000 
     27 H27         2.5103   57.0824   29.8984 H         1 UNK         0.0000 
     28 H28         4.1830   55.6961   28.7600 H         1 UNK         0.0000 
     29 H29        -0.1411   53.7427   30.0745 H         1 UNK         0.0000 
     30 H30         5.6085   53.9973   29.0113 H         1 UNK         0.0000 
     31 H31         5.8839   52.5291   28.1264 H         1 UNK         0.0000 
     32 H32         4.1345   53.5320   25.7703 H         1 UNK         0.0000 
     33 H33         3.7524   53.5158   23.7506 H         1 UNK         0.0000 
     34 H34         3.2114   53.1884   21.5271 H         1 UNK         0.0000 
     35 H35         5.6406   54.5447   18.3045 H         1 UNK         0.0000 
     36 H36         7.9506   55.6065   22.0550 H         1 UNK         0.0000 
@<TRIPOS>BOND
     1    1    6 ar   
     2    1    2 ar   
     3    1   26 1    
     4    2    3 ar   
     5    2   27 1    
     6    3    4 ar   
     7    3   28 1    
     8    4    5 ar   
     9    4   10 1    
    10    5    6 ar   
    11    5    7 1    
    12    6   29 1    
    13    7    8 2    
    14    7    9 1    
    15   10   11 1    
    16   11   12 1    
    17   11   30 1    
    18   11   31 1    
    19   12   13 2    
    20   12   14 am   BACKBONE|DICT|INTERRES
    21   14   15 1    
    22   14   32 1    
    23   15   16 2    
    24   16   17 1    
    25   16   33 1    
    26   17   22 ar   
    27   17   18 ar   
    28   18   19 ar   
    29   18   34 1    
    30   19   20 ar   
    31   19   25 1    
    32   20   21 ar   
    33   20   35 1    
    34   21   22 ar   
    35   21   24 1    
    36   22   23 1    
    37   23   36 1    
@<TRIPOS>SUBSTRUCTURE
     1 UNK         1 GROUP             0       ****    0 ROOT    
