@<TRIPOS>MOLECULE
ZINC39669128_386
74   79    1
SMALL
USER_CHARGES


@<TRIPOS>ATOM
      1 C1          6.2176   54.2916   26.5431 C.ar      1 UNK         0.0000 
      2 C2          6.7044   54.4952   25.2525 C.ar      1 UNK         0.0000 
      3 C3          5.8298   54.4994   24.1729 C.ar      1 UNK         0.0000 
      4 C4          4.4663   54.3016   24.3871 C.ar      1 UNK         0.0000 
      5 C5          3.9767   54.1067   25.6803 C.ar      1 UNK         0.0000 
      6 C6          4.8551   54.0960   26.7617 C.ar      1 UNK         0.0000 
      7 O7          3.5840   54.3852   23.3404 O.3       1 UNK         0.0000 
      8 C8          3.4172   53.2991   22.5108 C.ar      1 UNK         0.0000 
      9 C9          2.2136   52.5676   22.4958 C.ar      1 UNK         0.0000 
     10 C10         2.0817   51.5694   21.5152 C.ar      1 UNK         0.0000 
     11 C11         3.1360   51.2994   20.6424 C.ar      1 UNK         0.0000 
     12 C12         4.3034   52.0489   20.7546 C.ar      1 UNK         0.0000 
     13 N13         4.4548   53.0397   21.6677 N.ar      1 UNK         0.0000 
     14 C14         1.0940   52.9093   23.4587 C.2       1 UNK         0.0000 
     15 O15         0.8526   54.0961   23.6792 O.2       1 UNK         0.0000 
     16 N16         0.3971   51.9282   24.0909 N.am      1 UNK         0.0000 
     17 C17         0.5887   50.4806   23.9673 C.3       1 UNK         0.0000 
     18 C18        -0.3015   49.8982   25.0915 C.3       1 UNK         0.0000 
     19 H19         0.3078   49.7870   25.9904 H         1 UNK         0.0000 
     20 C20        -1.4324   50.9504   25.2858 C.3       1 UNK         0.0000 
     21 C21        -0.6356   52.2552   25.0776 C.3       1 UNK         0.0000 
     22 C22        -2.1201   50.8332   26.6692 C.3       1 UNK         0.0000 
     23 C23        -3.0917   52.0012   26.9194 C.3       1 UNK         0.0000 
     24 N24        -4.1788   51.9762   25.8210 N.4       1 UNK         0.0000 
     25 C25        -3.6279   51.9811   24.3767 C.3       1 UNK         0.0000 
     26 C26        -2.5971   50.8385   24.2447 C.3       1 UNK         0.0000 
     27 C27        -0.8081   48.4947   24.6822 C.2       1 UNK         0.0000 
     28 O28        -0.7924   48.1069   23.5121 O.2       1 UNK         0.0000 
     29 N29        -1.2978   47.7464   25.6806 N.am      1 UNK         0.0000 
     30 C30        -1.9355   46.4399   25.5167 C.3       1 UNK         0.0000 
     31 C31        -3.4407   46.5175   25.1311 C.3       1 UNK         0.0000 
     32 H32        -3.6533   47.5352   24.7971 H         1 UNK         0.0000 
     33 C33        -4.4183   46.2579   26.2906 C.ar      1 UNK         0.0000 
     34 C34        -4.2012   46.7869   27.5702 C.ar      1 UNK         0.0000 
     35 C35        -5.1424   46.6423   28.5860 C.ar      1 UNK         0.0000 
     36 C36        -6.3254   45.9548   28.3369 C.ar      1 UNK         0.0000 
     37 C37        -6.5444   45.3926   27.0821 C.ar      1 UNK         0.0000 
     38 C38        -5.6018   45.5269   26.0556 C.ar      1 UNK         0.0000 
     39 C39        -5.8352   44.8777   24.6986 C.3       1 UNK         0.0000 
     40 C40        -5.0583   45.6068   23.5945 C.3       1 UNK         0.0000 
     41 O41        -3.6918   45.6970   23.9852 O.3       1 UNK         0.0000 
     42 H42         6.8979   54.2866   27.3831 H         1 UNK         0.0000 
     43 H43         7.7563   54.6487   25.0742 H         1 UNK         0.0000 
     44 H44         6.2022   54.6699   23.1732 H         1 UNK         0.0000 
     45 H45         2.9174   53.9720   25.8393 H         1 UNK         0.0000 
     46 H46         4.4816   53.9431   27.7630 H         1 UNK         0.0000 
     47 H47         1.1661   51.0153   21.3881 H         1 UNK         0.0000 
     48 H48         3.0484   50.5407   19.8774 H         1 UNK         0.0000 
     49 H49         5.1303   51.8736   20.0789 H         1 UNK         0.0000 
     50 H50         1.6282   50.1651   24.0789 H         1 UNK         0.0000 
     51 H51         0.1747   50.2118   22.9950 H         1 UNK         0.0000 
     52 H52        -1.2462   53.1280   24.8518 H         1 UNK         0.0000 
     53 H53        -0.1119   52.4875   26.0067 H         1 UNK         0.0000 
     54 H54        -2.6122   49.8682   26.8031 H         1 UNK         0.0000 
     55 H55        -1.3601   50.8676   27.4515 H         1 UNK         0.0000 
     56 H56        -3.6147   51.8956   27.8712 H         1 UNK         0.0000 
     57 H57        -2.6121   52.9801   26.8782 H         1 UNK         0.0000 
     58 H58        -4.7278   51.1363   25.9473 H         1 UNK         0.0000 
     59 H59        -4.4880   51.8301   23.7230 H         1 UNK         0.0000 
     60 H60        -3.2233   52.9744   24.1861 H         1 UNK         0.0000 
     61 H61        -2.1876   50.8752   23.2343 H         1 UNK         0.0000 
     62 H62        -3.1043   49.8749   24.3079 H         1 UNK         0.0000 
     63 H63        -1.2513   48.0936   26.6404 H         1 UNK         0.0000 
     64 H64        -1.7960   45.8664   26.4339 H         1 UNK         0.0000 
     65 H65        -1.3874   45.8788   24.7572 H         1 UNK         0.0000 
     66 H66        -3.2973   47.3357   27.7783 H         1 UNK         0.0000 
     67 H67        -4.9555   47.0768   29.5579 H         1 UNK         0.0000 
     68 H68        -7.0700   45.8512   29.1125 H         1 UNK         0.0000 
     69 H69        -7.4576   44.8427   26.9045 H         1 UNK         0.0000 
     70 H70        -5.4956   43.8446   24.7490 H         1 UNK         0.0000 
     71 H71        -6.8986   44.8434   24.4569 H         1 UNK         0.0000 
     72 H72        -5.1374   45.0780   22.6426 H         1 UNK         0.0000 
     73 H73        -5.4744   46.6037   23.4339 H         1 UNK         0.0000 
     74 H74        -4.8154   52.7514   25.9480 H         1 UNK         0.0000 
@<TRIPOS>BOND
     1    1    6 ar   
     2    1    2 ar   
     3    1   42 1    
     4    2    3 ar   
     5    2   43 1    
     6    3    4 ar   
     7    3   44 1    
     8    4    5 ar   
     9    4    7 1    
    10    5    6 ar   
    11    5   45 1    
    12    6   46 1    
    13    7    8 1    
    14    8   13 ar   
    15    8    9 ar   
    16    9   10 ar   
    17    9   14 1    
    18   10   11 ar   
    19   10   47 1    
    20   11   12 ar   
    21   11   48 1    
    22   12   13 ar   
    23   12   49 1    
    24   14   15 2    
    25   14   16 am   BACKBONE|DICT|INTERRES
    26   16   21 1    
    27   16   17 1    
    28   17   18 1    
    29   17   50 1    
    30   17   51 1    
    31   18   19 1    
    32   18   20 1    
    33   18   27 1    
    34   20   26 1    
    35   20   21 1    
    36   20   22 1    
    37   21   52 1    
    38   21   53 1    
    39   22   23 1    
    40   22   54 1    
    41   22   55 1    
    42   23   24 1    
    43   23   56 1    
    44   23   57 1    
    45   24   25 1    
    46   24   58 1    
    47   24   74 1    
    48   25   26 1    
    49   25   59 1    
    50   25   60 1    
    51   26   61 1    
    52   26   62 1    
    53   27   28 2    
    54   27   29 am   BACKBONE|DICT|INTERRES
    55   29   30 1    
    56   29   63 1    
    57   30   31 1    
    58   30   64 1    
    59   30   65 1    
    60   31   32 1    
    61   31   41 1    
    62   31   33 1    
    63   33   38 ar   
    64   33   34 ar   
    65   34   35 ar   
    66   34   66 1    
    67   35   36 ar   
    68   35   67 1    
    69   36   37 ar   
    70   36   68 1    
    71   37   38 ar   
    72   37   69 1    
    73   38   39 1    
    74   39   40 1    
    75   39   70 1    
    76   39   71 1    
    77   40   41 1    
    78   40   72 1    
    79   40   73 1    
@<TRIPOS>SUBSTRUCTURE
     1 UNK         1 GROUP             0       ****    0 ROOT    
