@<TRIPOS>MOLECULE
ZINC35651037_1624
32   32    1
SMALL
USER_CHARGES


@<TRIPOS>ATOM
      1 C1          3.2525   54.3255   24.0191 C.3       1 UNK         0.0000 
      2 C2          3.2347   53.9847   25.5037 C.ar      1 UNK         0.0000 
      3 C3          4.3147   54.3950   26.2999 C.ar      1 UNK         0.0000 
      4 C4          4.3725   54.0551   27.6498 C.ar      1 UNK         0.0000 
      5 C5          3.3663   53.2782   28.2329 C.ar      1 UNK         0.0000 
      6 C6          2.2756   52.8913   27.4448 C.ar      1 UNK         0.0000 
      7 C7          2.1858   53.2447   26.0903 C.ar      1 UNK         0.0000 
      8 S8          0.7044   52.7061   25.1922 S.o2      1 UNK         0.0000 
      9 O9          0.4607   53.6325   24.0817 O.2       1 UNK         0.0000 
     10 O10        -0.3369   52.4967   26.2037 O.2       1 UNK         0.0000 
     11 N11         1.1044   51.1433   24.4782 N.pl3     1 UNK         0.0000 
     12 C12         0.0786   50.0688   24.3893 C.3       1 UNK         0.0000 
     13 H13         0.5411   49.2737   23.8019 H         1 UNK         0.0000 
     14 C14        -1.1697   50.5569   23.6269 C.3       1 UNK         0.0000 
     15 C15        -0.2155   49.4448   25.7746 C.3       1 UNK         0.0000 
     16 O16        -1.0883   48.3380   25.6817 O.3       1 UNK         0.0000 
     17 C17         3.4623   52.8593   29.6644 C.2       1 UNK         0.0000 
     18 O18         3.1044   51.6967   29.9617 O.co2     1 UNK         0.0000 
     19 O19         3.9044   53.6967   30.4817 O.co2     1 UNK         0.0000 
     20 F20         5.3254   55.1236   25.7687 F         1 UNK         0.0000 
     21 H21         4.2444   54.6129   23.6697 H         1 UNK         0.0000 
     22 H22         2.9629   53.4599   23.4235 H         1 UNK         0.0000 
     23 H23         2.5575   55.1365   23.8058 H         1 UNK         0.0000 
     24 H24         5.2217   54.3783   28.2365 H         1 UNK         0.0000 
     25 H25         1.4900   52.2974   27.8935 H         1 UNK         0.0000 
     26 H26         1.5433   51.2746   23.5641 H         1 UNK         0.0000 
     27 H27        -1.8676   49.7372   23.4554 H         1 UNK         0.0000 
     28 H28        -1.7063   51.3286   24.1794 H         1 UNK         0.0000 
     29 H29        -0.9043   50.9666   22.6519 H         1 UNK         0.0000 
     30 H30        -0.6848   50.1472   26.4597 H         1 UNK         0.0000 
     31 H31         0.7072   49.1014   26.2454 H         1 UNK         0.0000 
     32 H32        -1.2956   48.0967   26.6047 H         1 UNK         0.0000 
@<TRIPOS>BOND
     1    1    2 1    
     2    1   21 1    
     3    1   22 1    
     4    1   23 1    
     5    2    7 ar   
     6    2    3 ar   
     7    3    4 ar   
     8    3   20 1    
     9    4    5 ar   
    10    4   24 1    
    11    5    6 ar   
    12    5   17 1    
    13    6    7 ar   
    14    6   25 1    
    15    7    8 1    
    16    8    9 2    
    17    8   10 2    
    18    8   11 1    
    19   11   12 1    
    20   11   26 1    
    21   12   13 1    
    22   12   14 1    
    23   12   15 1    
    24   14   27 1    
    25   14   28 1    
    26   14   29 1    
    27   15   16 1    
    28   15   30 1    
    29   15   31 1    
    30   16   32 1    
    31   17   18 2    
    32   17   19 1    
@<TRIPOS>SUBSTRUCTURE
     1 UNK         1 GROUP             0       ****    0 ROOT    
