ZINC65074634_202
                    3D
 Schrodinger Suite 2024-2.
 64 67  0  0  1  0            999 V2000
    6.4561   53.5108   27.5851 C   0  0  0  0  0  0
    5.8061   54.8934   27.4212 C   0  0  0  0  0  0
    4.9677   55.0487   26.1302 C   0  0  0  0  0  0
    3.6745   54.2355   26.0145 C   0  0  0  0  0  0
    3.0891   54.0971   24.7520 C   0  0  0  0  0  0
    1.9297   53.3434   24.5914 C   0  0  0  0  0  0
    1.3554   52.7062   25.6909 C   0  0  0  0  0  0
    1.8972   52.8938   26.9640 C   0  0  0  0  0  0
    3.0526   53.6546   27.1263 C   0  0  0  0  0  0
   -0.0707   51.6297   25.4947 S   0  0  0  0  0  0
    0.1115   50.5604   26.4819 O   0  0  0  0  0  0
   -1.2507   52.4966   25.5199 O   0  0  0  0  0  0
    0.0580   50.9107   23.8757 N   0  0  0  0  0  0
   -0.7142   51.4260   22.7170 C   0  0  0  0  0  0
    0.2058   51.7428   21.5110 C   0  0  0  0  0  0
    1.2405   50.6177   21.1760 C   0  0  0  0  0  0
    1.9732   50.1959   22.4898 C   0  0  0  0  0  0
    1.0029   49.8062   23.6207 C   0  0  0  0  0  0
    2.2816   51.0619   20.1246 C   0  0  0  0  0  0
    2.7044   50.2642   19.1316 N   0  3  0  0  0  0
    2.1637   48.9512   18.8179 C   0  0  0  0  0  0
    1.3552   48.4588   20.0163 C   0  0  0  0  0  0
    0.4980   49.5204   20.5316 N   0  0  0  0  0  0
    2.7957   52.2900   20.2770 N   0  0  0  0  0  0
    3.9053   52.9003   19.5331 C   0  0  0  0  0  0
    4.8190   53.7599   20.4002 C   0  0  0  0  0  0
    5.1045   53.4033   21.7249 C   0  0  0  0  0  0
    5.9993   54.1614   22.4816 C   0  0  0  0  0  0
    6.6026   55.2934   21.9291 C   0  0  0  0  0  0
    6.3052   55.6675   20.6189 C   0  0  0  0  0  0
    5.4262   54.8972   19.8544 C   0  0  0  0  0  0
    6.8781   56.7700   20.0868 F   0  0  0  0  0  0
    7.0679   53.4752   28.4865 H   0  0  0  0  0  0
    7.1049   53.2811   26.7387 H   0  0  0  0  0  0
    5.7117   52.7173   27.6586 H   0  0  0  0  0  0
    5.2111   55.1380   28.3013 H   0  0  0  0  0  0
    6.6039   55.6380   27.4035 H   0  0  0  0  0  0
    4.7043   56.0940   25.9829 H   0  0  0  0  0  0
    5.6129   54.8000   25.2922 H   0  0  0  0  0  0
    3.5332   54.5757   23.8919 H   0  0  0  0  0  0
    1.4989   53.2415   23.6131 H   0  0  0  0  0  0
    1.4401   52.4259   27.8256 H   0  0  0  0  0  0
    3.4615   53.7638   28.1178 H   0  0  0  0  0  0
   -1.4625   50.6769   22.4573 H   0  0  0  0  0  0
   -1.2692   52.3141   23.0239 H   0  0  0  0  0  0
   -0.4073   51.9611   20.6347 H   0  0  0  0  0  0
    0.7142   52.6818   21.7152 H   0  0  0  0  0  0
    2.5945   51.0238   22.8317 H   0  0  0  0  0  0
    2.6792   49.3833   22.3137 H   0  0  0  0  0  0
    1.5427   49.5866   24.5407 H   0  0  0  0  0  0
    0.4313   48.9068   23.3867 H   0  0  0  0  0  0
    1.5411   49.0660   17.9314 H   0  0  0  0  0  0
    2.9887   48.2812   18.5707 H   0  0  0  0  0  0
    0.7389   47.6062   19.7306 H   0  0  0  0  0  0
    2.0157   48.0823   20.7950 H   0  0  0  0  0  0
   -0.1580   49.1516   21.2043 H   0  0  0  0  0  0
    2.4144   52.8519   21.0238 H   0  0  0  0  0  0
    4.5040   52.1001   19.0996 H   0  0  0  0  0  0
    3.4558   53.4757   18.7206 H   0  0  0  0  0  0
    4.6741   52.5154   22.1632 H   0  0  0  0  0  0
    6.2499   53.8441   23.4808 H   0  0  0  0  0  0
    7.3063   55.8696   22.5125 H   0  0  0  0  0  0
    5.2248   55.1875   18.8323 H   0  0  0  0  0  0
    3.4283   50.6191   18.5123 H   0  0  0  0  0  0
  1  2  1  0  0  0
  1 33  1  0  0  0
  1 34  1  0  0  0
  1 35  1  0  0  0
  2  3  1  0  0  0
  2 36  1  0  0  0
  2 37  1  0  0  0
  3  4  1  0  0  0
  3 38  1  0  0  0
  3 39  1  0  0  0
  4  9  2  0  0  0
  4  5  1  0  0  0
  5  6  2  0  0  0
  5 40  1  0  0  0
  6  7  1  0  0  0
  6 41  1  0  0  0
  7  8  2  0  0  0
  7 10  1  0  0  0
  8  9  1  0  0  0
  8 42  1  0  0  0
  9 43  1  0  0  0
 10 11  2  0  0  0
 10 12  2  0  0  0
 10 13  1  0  0  0
 13 18  1  0  0  0
 13 14  1  0  0  0
 14 15  1  0  0  0
 14 44  1  0  0  0
 14 45  1  0  0  0
 15 16  1  0  0  0
 15 46  1  0  0  0
 15 47  1  0  0  0
 16 23  1  0  0  0
 16 17  1  0  0  0
 16 19  1  0  0  0
 17 18  1  0  0  0
 17 48  1  0  0  0
 17 49  1  0  0  0
 18 50  1  0  0  0
 18 51  1  0  0  0
 19 20  2  0  0  0
 19 24  1  0  0  0
 20 21  1  0  0  0
 20 64  1  0  0  0
 21 22  1  0  0  0
 21 52  1  0  0  0
 21 53  1  0  0  0
 22 23  1  0  0  0
 22 54  1  0  0  0
 22 55  1  0  0  0
 23 56  1  0  0  0
 24 25  1  0  0  0
 24 57  1  0  0  0
 25 26  1  0  0  0
 25 58  1  0  0  0
 25 59  1  0  0  0
 26 31  2  0  0  0
 26 27  1  0  0  0
 27 28  2  0  0  0
 27 60  1  0  0  0
 28 29  1  0  0  0
 28 61  1  0  0  0
 29 30  2  0  0  0
 29 62  1  0  0  0
 30 31  1  0  0  0
 30 32  1  0  0  0
 31 63  1  0  0  0
M  CHG  1  20   1
M  END
> <i_i_glide_confnum>
217

> <i_i_glide_lignum>
203

> <i_i_glide_posenum>
204

> <i_i_glide_rotatable_bonds>
7

> <i_m_Source_File_Index>
1153

> <b_m_subgroup_collapsed>
0

> <r_i_docking_score>
-5.11676

> <r_i_glide_ecoul>
-2.14525

> <r_i_glide_eff_state_penalty>
0

> <r_i_glide_einternal>
3.88739

> <r_i_glide_emodel>
-53.0256

> <r_i_glide_energy>
-40.8193

> <r_i_glide_erotb>
0.571555

> <r_i_glide_esite>
-0.257033

> <r_i_glide_evdw>
-38.6741

> <r_i_glide_gscore>
-5.11676

> <r_i_glide_hbond>
-0.15566

> <r_i_glide_ligand_efficiency>
-0.159899

> <r_i_glide_ligand_efficiency_ln>
-1.14578

> <r_i_glide_ligand_efficiency_sa>
-0.507647

> <r_i_glide_lipo>
-3.11322

> <r_i_glide_metal>
0

> <r_i_glide_rewards>
0.0930899

> <s_i_glide_gridfile>
wee1_glide-grid

> <s_m_Source_File>
wee1_decoys_glide_SP.sdf

> <s_m_Source_Path>
/Users/zhangxujun/Desktop

> <s_m_entry_id>
1428

> <s_m_entry_name>
wee1_decoys_glide_SP.1153

> <s_m_subgroup_title>
wee1_decoys_glide_SP

> <s_m_subgroupid>
wee1_decoys_glide_SP


$$$$
