ZINC11730794_4371
                    3D
 Schrodinger Suite 2024-2.
 46 49  0  0  1  0            999 V2000
    4.5116   57.8079   17.0372 C   0  0  0  0  0  0
    5.7230   58.4964   16.9688 C   0  0  0  0  0  0
    6.8836   57.9523   17.5337 C   0  0  0  0  0  0
    6.8115   56.7001   18.1580 C   0  0  0  0  0  0
    5.5962   56.0130   18.2362 C   0  0  0  0  0  0
    4.4434   56.5717   17.6789 C   0  0  0  0  0  0
    5.5440   54.3921   18.9950 S   0  0  0  0  0  0
    6.7026   53.6553   18.4796 O   0  0  0  0  0  0
    4.1792   53.8740   18.8546 O   0  0  0  0  0  0
    5.8667   54.6523   20.7665 C   0  0  0  0  0  0
    5.1490   54.2041   21.8860 C   0  0  0  0  0  0
    5.9038   54.6542   22.9749 N   0  0  0  0  0  0
    6.9875   55.2989   22.5016 N   0  0  0  0  0  0
    6.9491   55.2983   21.1316 N   0  0  0  0  0  0
    5.7153   54.5832   24.4021 C   0  0  0  0  0  0
    6.6051   55.2484   25.2668 C   0  0  0  0  0  0
    6.4347   55.1900   26.6473 C   0  0  0  0  0  0
    5.3706   54.4947   27.1965 C   0  0  0  0  0  0
    4.4745   53.8363   26.3693 C   0  0  0  0  0  0
    4.6541   53.8772   24.9892 C   0  0  0  0  0  0
    5.2146   54.4581   28.5790 N   0  0  0  0  0  0
    3.8929   53.4016   21.9097 C   0  0  0  0  0  0
    2.7176   53.9055   22.4745 C   0  0  0  0  0  0
    1.5696   53.1192   22.5020 C   0  0  0  0  0  0
    1.5839   51.8505   21.9262 C   0  0  0  0  0  0
    2.7414   51.3574   21.3273 C   0  0  0  0  0  0
    3.8969   52.1333   21.3198 C   0  0  0  0  0  0
    0.1527   50.8867   21.9483 Cl  0  0  0  0  0  0
    8.2105   58.7080   17.4535 C   0  0  0  0  0  0
    9.2494   57.8728   17.5084 F   0  0  0  0  0  0
    8.3039   59.4030   16.3190 F   0  0  0  0  0  0
    8.3042   59.5538   18.4799 F   0  0  0  0  0  0
    3.6231   58.2459   16.6047 H   0  0  0  0  0  0
    5.7514   59.4642   16.4838 H   0  0  0  0  0  0
    7.7018   56.2515   18.5772 H   0  0  0  0  0  0
    3.4996   56.0467   17.7271 H   0  0  0  0  0  0
    7.4391   55.8168   24.8804 H   0  0  0  0  0  0
    7.1088   55.6965   27.3105 H   0  0  0  0  0  0
    3.6525   53.2731   26.7858 H   0  0  0  0  0  0
    3.9634   53.2933   24.4204 H   0  0  0  0  0  0
    5.9808   54.8239   29.1312 H   0  0  0  0  0  0
    4.6328   53.7290   28.9628 H   0  0  0  0  0  0
    2.7021   54.8946   22.9077 H   0  0  0  0  0  0
    0.6706   53.4981   22.9616 H   0  0  0  0  0  0
    2.7456   50.3803   20.8659 H   0  0  0  0  0  0
    4.7896   51.7523   20.8434 H   0  0  0  0  0  0
  1  6  2  0  0  0
  1  2  1  0  0  0
  1 33  1  0  0  0
  2  3  2  0  0  0
  2 34  1  0  0  0
  3  4  1  0  0  0
  3 29  1  0  0  0
  4  5  2  0  0  0
  4 35  1  0  0  0
  5  6  1  0  0  0
  5  7  1  0  0  0
  6 36  1  0  0  0
  7  8  2  0  0  0
  7  9  2  0  0  0
  7 10  1  0  0  0
 10 14  1  0  0  0
 10 11  2  0  0  0
 11 12  1  0  0  0
 11 22  1  0  0  0
 12 13  1  0  0  0
 12 15  1  0  0  0
 13 14  2  0  0  0
 15 20  2  0  0  0
 15 16  1  0  0  0
 16 17  2  0  0  0
 16 37  1  0  0  0
 17 18  1  0  0  0
 17 38  1  0  0  0
 18 19  2  0  0  0
 18 21  1  0  0  0
 19 20  1  0  0  0
 19 39  1  0  0  0
 20 40  1  0  0  0
 21 41  1  0  0  0
 21 42  1  0  0  0
 22 27  2  0  0  0
 22 23  1  0  0  0
 23 24  2  0  0  0
 23 43  1  0  0  0
 24 25  1  0  0  0
 24 44  1  0  0  0
 25 26  2  0  0  0
 25 28  1  0  0  0
 26 27  1  0  0  0
 26 45  1  0  0  0
 27 46  1  0  0  0
 29 30  1  0  0  0
 29 31  1  0  0  0
 29 32  1  0  0  0
M  END
> <i_i_glide_confnum>
60

> <i_i_glide_lignum>
4372

> <i_i_glide_posenum>
51

> <i_i_glide_rotatable_bonds>
5

> <i_m_Source_File_Index>
2624

> <b_m_subgroup_collapsed>
0

> <r_i_docking_score>
-4.87142

> <r_i_glide_ecoul>
0.14386

> <r_i_glide_eff_state_penalty>
0

> <r_i_glide_einternal>
5.73679

> <r_i_glide_emodel>
-49.2825

> <r_i_glide_energy>
-40.3989

> <r_i_glide_erotb>
0.353524

> <r_i_glide_esite>
-0.167092

> <r_i_glide_evdw>
-40.5428

> <r_i_glide_gscore>
-4.87142

> <r_i_glide_hbond>
-0.0878082

> <r_i_glide_ligand_efficiency>
-0.152232

> <r_i_glide_ligand_efficiency_ln>
-1.09084

> <r_i_glide_ligand_efficiency_sa>
-0.483306

> <r_i_glide_lipo>
-2.53607

> <r_i_glide_metal>
0

> <r_i_glide_rewards>
-0.428419

> <s_i_glide_gridfile>
wee1_glide-grid

> <s_m_Source_File>
wee1_decoys_glide_SP.sdf

> <s_m_Source_Path>
/Users/zhangxujun/Desktop

> <s_m_entry_id>
2899

> <s_m_entry_name>
wee1_decoys_glide_SP.2624

> <s_m_subgroup_title>
wee1_decoys_glide_SP

> <s_m_subgroupid>
wee1_decoys_glide_SP


$$$$
