@<TRIPOS>MOLECULE
ZINC43827430_1747
23   25    1
SMALL
USER_CHARGES


@<TRIPOS>ATOM
      1 C1          3.5560   54.0980   25.4161 C.ar      1 UNK         0.0000 
      2 C2          4.9333   54.3070   25.5945 C.ar      1 UNK         0.0000 
      3 C3          5.8503   54.5583   26.6624 C.ar      1 UNK         0.0000 
      4 N4          7.0727   54.7021   26.2186 N.2       1 UNK         0.0000 
      5 N5          7.0347   54.5390   24.8797 N.pl3     1 UNK         0.0000 
      6 H6          7.8740   54.6127   24.3165 H         1 UNK         0.0000 
      7 C7          5.7545   54.2807   24.4453 C.ar      1 UNK         0.0000 
      8 N8          5.3544   54.0454   23.1954 N.ar      1 UNK         0.0000 
      9 C9          4.0182   53.8176   23.0567 C.ar      1 UNK         0.0000 
     10 C10         3.0956   53.8680   24.1164 C.ar      1 UNK         0.0000 
     11 Br11        1.2264   53.6244   23.8305 Br        1 UNK         0.0000 
     12 C12         3.5873   53.4709   21.6421 C.3       1 UNK         0.0000 
     13 C13         4.3770   52.5223   20.7606 C.3       1 UNK         0.0000 
     14 C14         3.0166   52.1175   21.2781 C.3       1 UNK         0.0000 
     15 N15         5.5264   54.6599   27.9831 N.pl3     1 UNK         0.0000 
     16 H16         2.8747   54.1106   26.2535 H         1 UNK         0.0000 
     17 H17         3.1354   54.3216   21.1301 H         1 UNK         0.0000 
     18 H18         5.2585   52.0251   21.1689 H         1 UNK         0.0000 
     19 H19         4.4975   52.7671   19.7042 H         1 UNK         0.0000 
     20 H20         2.1678   52.0900   20.5933 H         1 UNK         0.0000 
     21 H21         2.9510   51.3485   22.0502 H         1 UNK         0.0000 
     22 H22         4.5711   54.6211   28.3050 H         1 UNK         0.0000 
     23 H23         6.2293   54.9169   28.6667 H         1 UNK         0.0000 
@<TRIPOS>BOND
     1    1   10 ar   
     2    1    2 ar   
     3    1   16 1    
     4    2    7 ar   
     5    2    3 ar   
     6    3    4 ar   
     7    3   15 1    
     8    4    5 ar   
     9    5    6 1    
    10    5    7 ar   
    11    7    8 ar   
    12    8    9 ar   
    13    9   10 ar   
    14    9   12 1    
    15   10   11 1    
    16   12   14 1    
    17   12   13 1    
    18   12   17 1    
    19   13   14 1    
    20   13   18 1    
    21   13   19 1    
    22   14   20 1    
    23   14   21 1    
    24   15   22 1    
    25   15   23 1    
@<TRIPOS>SUBSTRUCTURE
     1 UNK         1 GROUP             0       ****    0 ROOT    
