@<TRIPOS>MOLECULE
ZINC02853175_4567
51   52    1
SMALL
USER_CHARGES


@<TRIPOS>ATOM
      1 C1          1.5741   54.0034   27.5253 C.3       1 UNK         0.0000 
      2 C2          2.9346   54.0706   26.8461 C.ar      1 UNK         0.0000 
      3 C3          2.9835   54.0950   25.4487 C.ar      1 UNK         0.0000 
      4 C4          4.1962   54.1031   24.7640 C.ar      1 UNK         0.0000 
      5 C5          5.3844   54.0966   25.5082 C.ar      1 UNK         0.0000 
      6 C6          5.3609   54.0587   26.9037 C.ar      1 UNK         0.0000 
      7 C7          4.1305   54.0635   27.5809 C.ar      1 UNK         0.0000 
      8 Cl8         4.0827   54.0597   29.3156 Cl        1 UNK         0.0000 
      9 C9          6.6811   53.9830   27.6544 C.3       1 UNK         0.0000 
     10 O10         4.1303   54.0950   23.3819 O.3       1 UNK         0.0000 
     11 C11         5.2793   53.7037   22.6238 C.3       1 UNK         0.0000 
     12 H12         5.8434   52.9426   23.1655 H         1 UNK         0.0000 
     13 C13         6.1983   54.9061   22.3223 C.3       1 UNK         0.0000 
     14 C14         4.8172   53.0182   21.3258 C.2       1 UNK         0.0000 
     15 O15         5.4994   52.0964   20.8820 O.2       1 UNK         0.0000 
     16 N16         3.7094   53.4845   20.7118 N.am      1 UNK         0.0000 
     17 N17         3.2927   52.8821   19.5212 N.am      1 UNK         0.0000 
     18 C18         3.5758   53.4814   18.3465 C.2       1 UNK         0.0000 
     19 O19         4.2077   54.5351   18.2239 O.2       1 UNK         0.0000 
     20 N20         3.0831   52.7800   17.3099 N.am      1 UNK         0.0000 
     21 C21         3.2961   53.0926   15.8949 C.3       1 UNK         0.0000 
     22 C22         4.5399   52.3821   15.3026 C.3       1 UNK         0.0000 
     23 C23         4.7480   52.6511   13.7995 C.3       1 UNK         0.0000 
     24 C24         3.4841   52.3377   12.9810 C.3       1 UNK         0.0000 
     25 C25         2.2614   53.0938   13.5285 C.3       1 UNK         0.0000 
     26 C26         2.0394   52.8270   15.0313 C.3       1 UNK         0.0000 
     27 H27         0.8590   53.4655   26.9007 H         1 UNK         0.0000 
     28 H28         1.1902   55.0048   27.7204 H         1 UNK         0.0000 
     29 H29         1.6116   53.4487   28.4617 H         1 UNK         0.0000 
     30 H30         2.0666   54.0896   24.8798 H         1 UNK         0.0000 
     31 H31         6.3429   54.0870   25.0123 H         1 UNK         0.0000 
     32 H32         7.5298   54.2224   27.0153 H         1 UNK         0.0000 
     33 H33         6.6955   54.6877   28.4817 H         1 UNK         0.0000 
     34 H34         6.8202   52.9846   28.0670 H         1 UNK         0.0000 
     35 H35         7.1139   54.5890   21.8228 H         1 UNK         0.0000 
     36 H36         5.7066   55.6359   21.6748 H         1 UNK         0.0000 
     37 H37         6.4975   55.4288   23.2302 H         1 UNK         0.0000 
     38 H38         3.0512   54.1555   21.0847 H         1 UNK         0.0000 
     39 H39         2.6193   52.1402   19.6494 H         1 UNK         0.0000 
     40 H40         2.7561   51.8415   17.4939 H         1 UNK         0.0000 
     41 H41         3.4938   54.1648   15.8061 H         1 UNK         0.0000 
     42 H42         5.4363   52.6720   15.8544 H         1 UNK         0.0000 
     43 H43         4.4277   51.3033   15.4365 H         1 UNK         0.0000 
     44 H44         5.0255   53.6970   13.6556 H         1 UNK         0.0000 
     45 H45         5.5897   52.0600   13.4300 H         1 UNK         0.0000 
     46 H46         3.6443   52.5951   11.9333 H         1 UNK         0.0000 
     47 H47         3.2916   51.2632   13.0058 H         1 UNK         0.0000 
     48 H48         2.3958   54.1653   13.3680 H         1 UNK         0.0000 
     49 H49         1.3700   52.8140   12.9653 H         1 UNK         0.0000 
     50 H50         1.7328   51.7851   15.1500 H         1 UNK         0.0000 
     51 H51         1.2083   53.4398   15.3875 H         1 UNK         0.0000 
@<TRIPOS>BOND
     1    1    2 1    
     2    1   27 1    
     3    1   28 1    
     4    1   29 1    
     5    2    7 ar   
     6    2    3 ar   
     7    3    4 ar   
     8    3   30 1    
     9    4    5 ar   
    10    4   10 1    
    11    5    6 ar   
    12    5   31 1    
    13    6    7 ar   
    14    6    9 1    
    15    7    8 1    
    16    9   32 1    
    17    9   33 1    
    18    9   34 1    
    19   10   11 1    
    20   11   12 1    
    21   11   13 1    
    22   11   14 1    
    23   13   35 1    
    24   13   36 1    
    25   13   37 1    
    26   14   15 2    
    27   14   16 am   BACKBONE|DICT|INTERRES
    28   16   17 1    
    29   16   38 1    
    30   17   18 am   BACKBONE|DICT|INTERRES
    31   17   39 1    
    32   18   19 2    
    33   18   20 am   BACKBONE|DICT|INTERRES
    34   20   21 1    
    35   20   40 1    
    36   21   26 1    
    37   21   22 1    
    38   21   41 1    
    39   22   23 1    
    40   22   42 1    
    41   22   43 1    
    42   23   24 1    
    43   23   44 1    
    44   23   45 1    
    45   24   25 1    
    46   24   46 1    
    47   24   47 1    
    48   25   26 1    
    49   25   48 1    
    50   25   49 1    
    51   26   50 1    
    52   26   51 1    
@<TRIPOS>SUBSTRUCTURE
     1 UNK         1 GROUP             0       ****    0 ROOT    
