@<TRIPOS>MOLECULE
ZINC39656886_893
67   70    1
SMALL
USER_CHARGES


@<TRIPOS>ATOM
      1 C1          2.0000   54.4971   23.5989 C.3       1 UNK         0.0000 
      2 C2          2.1613   53.1478   24.3143 C.3       1 UNK         0.0000 
      3 H3          3.0808   52.7221   23.9125 H         1 UNK         0.0000 
      4 C4          2.4206   53.2990   25.8257 C.ar      1 UNK         0.0000 
      5 C5          3.6955   53.6972   26.2518 C.ar      1 UNK         0.0000 
      6 C6          4.0176   53.7181   27.6074 C.ar      1 UNK         0.0000 
      7 C7          3.0597   53.3512   28.5495 C.ar      1 UNK         0.0000 
      8 C8          1.7738   53.0053   28.1475 C.ar      1 UNK         0.0000 
      9 C9          1.4561   52.9827   26.7922 C.ar      1 UNK         0.0000 
     10 Br10        3.5141   53.2967   30.3979 Br        1 UNK         0.0000 
     11 N11         1.1508   52.1542   23.9250 N.am      1 UNK         0.0000 
     12 C12        -0.1922   52.2625   23.8951 C.2       1 UNK         0.0000 
     13 O13        -0.7948   53.2965   24.1609 O.2       1 UNK         0.0000 
     14 C14        -1.0132   51.0027   23.5229 C.3       1 UNK         0.0000 
     15 H15        -2.0608   51.2912   23.5894 H         1 UNK         0.0000 
     16 C16        -0.7210   50.5592   22.0844 C.3       1 UNK         0.0000 
     17 N17         0.4009   49.6328   22.2688 N.am      1 UNK         0.0000 
     18 C18         0.4803   49.1147   23.6442 C.3       1 UNK         0.0000 
     19 C19        -0.7115   49.7434   24.3958 C.3       1 UNK         0.0000 
     20 C20        -1.8767   48.7071   24.3684 C.3       1 UNK         0.0000 
     21 C21        -3.1637   49.2402   25.0419 C.3       1 UNK         0.0000 
     22 N22        -2.8278   49.6964   26.4817 N.4       1 UNK         0.0000 
     23 C23        -1.5968   50.6193   26.6041 C.3       1 UNK         0.0000 
     24 C24        -0.4171   49.9128   25.9088 C.3       1 UNK         0.0000 
     25 C25         1.4002   49.4002   21.3835 C.2       1 UNK         0.0000 
     26 O26         2.3144   48.6206   21.6294 O.2       1 UNK         0.0000 
     27 C27         1.4104   50.1328   20.0677 C.ar      1 UNK         0.0000 
     28 C28         1.5157   51.5300   20.0538 C.ar      1 UNK         0.0000 
     29 C29         1.5979   52.2199   18.8492 C.ar      1 UNK         0.0000 
     30 C30         1.6058   51.5368   17.6374 C.ar      1 UNK         0.0000 
     31 C31         1.5044   50.1387   17.6498 C.ar      1 UNK         0.0000 
     32 C32         1.4194   49.4208   18.8553 C.ar      1 UNK         0.0000 
     33 O33         1.3401   48.0358   18.9044 O.3       1 UNK         0.0000 
     34 C34         1.6193   47.2768   17.7333 C.3       1 UNK         0.0000 
     35 O35         1.7274   52.3048   16.4959 O.3       1 UNK         0.0000 
     36 C36         1.9472   51.6540   15.2503 C.3       1 UNK         0.0000 
     37 H37         2.8506   55.1544   23.7830 H         1 UNK         0.0000 
     38 H38         1.9091   54.3707   22.5189 H         1 UNK         0.0000 
     39 H39         1.1046   55.0011   23.9440 H         1 UNK         0.0000 
     40 H40         4.4596   53.9412   25.5285 H         1 UNK         0.0000 
     41 H41         5.0148   53.9874   27.9238 H         1 UNK         0.0000 
     42 H42         1.0294   52.7356   28.8834 H         1 UNK         0.0000 
     43 H43         0.4531   52.7108   26.5101 H         1 UNK         0.0000 
     44 H44         1.5212   51.2398   23.7108 H         1 UNK         0.0000 
     45 H45        -1.5967   50.0175   21.7223 H         1 UNK         0.0000 
     46 H46        -0.5535   51.4231   21.4434 H         1 UNK         0.0000 
     47 H47         1.3957   49.5121   24.0860 H         1 UNK         0.0000 
     48 H48         0.5425   48.0403   23.7621 H         1 UNK         0.0000 
     49 H49        -2.1189   48.4357   23.3405 H         1 UNK         0.0000 
     50 H50        -1.5745   47.7655   24.8339 H         1 UNK         0.0000 
     51 H51        -3.6079   50.0985   24.5384 H         1 UNK         0.0000 
     52 H52        -3.9275   48.4677   25.1399 H         1 UNK         0.0000 
     53 H53        -3.6312   50.1254   26.9201 H         1 UNK         0.0000 
     54 H54        -1.8658   51.5804   26.1648 H         1 UNK         0.0000 
     55 H55        -1.4270   50.7413   27.6768 H         1 UNK         0.0000 
     56 H56        -0.1876   48.9591   26.3914 H         1 UNK         0.0000 
     57 H57         0.4831   50.5055   26.0552 H         1 UNK         0.0000 
     58 H58         1.5568   52.0963   20.9744 H         1 UNK         0.0000 
     59 H59         1.6890   53.2957   18.8553 H         1 UNK         0.0000 
     60 H60         1.5386   49.6049   16.7171 H         1 UNK         0.0000 
     61 H61         1.5669   46.2167   17.9763 H         1 UNK         0.0000 
     62 H62         0.8872   47.4627   16.9468 H         1 UNK         0.0000 
     63 H63         2.6216   47.4789   17.3527 H         1 UNK         0.0000 
     64 H64         2.0993   52.4045   14.4730 H         1 UNK         0.0000 
     65 H65         2.8390   51.0246   15.2794 H         1 UNK         0.0000 
     66 H66         1.0899   51.0482   14.9562 H         1 UNK         0.0000 
     67 H67        -2.5901   48.8938   27.0667 H         1 UNK         0.0000 
@<TRIPOS>BOND
     1    1    2 1    
     2    1   37 1    
     3    1   38 1    
     4    1   39 1    
     5    2    3 1    
     6    2    4 1    
     7    2   11 1    
     8    4    9 ar   
     9    4    5 ar   
    10    5    6 ar   
    11    5   40 1    
    12    6    7 ar   
    13    6   41 1    
    14    7    8 ar   
    15    7   10 1    
    16    8    9 ar   
    17    8   42 1    
    18    9   43 1    
    19   11   12 am   BACKBONE|DICT|INTERRES
    20   11   44 1    
    21   12   13 2    
    22   12   14 1    
    23   14   15 1    
    24   14   19 1    
    25   14   16 1    
    26   16   17 1    
    27   16   45 1    
    28   16   46 1    
    29   17   18 1    
    30   17   25 am   BACKBONE|DICT|INTERRES
    31   18   19 1    
    32   18   47 1    
    33   18   48 1    
    34   19   24 1    
    35   19   20 1    
    36   20   21 1    
    37   20   49 1    
    38   20   50 1    
    39   21   22 1    
    40   21   51 1    
    41   21   52 1    
    42   22   23 1    
    43   22   53 1    
    44   22   67 1    
    45   23   24 1    
    46   23   54 1    
    47   23   55 1    
    48   24   56 1    
    49   24   57 1    
    50   25   26 2    
    51   25   27 1    
    52   27   32 ar   
    53   27   28 ar   
    54   28   29 ar   
    55   28   58 1    
    56   29   30 ar   
    57   29   59 1    
    58   30   31 ar   
    59   30   35 1    
    60   31   32 ar   
    61   31   60 1    
    62   32   33 1    
    63   33   34 1    
    64   34   61 1    
    65   34   62 1    
    66   34   63 1    
    67   35   36 1    
    68   36   64 1    
    69   36   65 1    
    70   36   66 1    
@<TRIPOS>SUBSTRUCTURE
     1 UNK         1 GROUP             0       ****    0 ROOT    
