@<TRIPOS>MOLECULE
ZINC30943590_1534
46   48    1
SMALL
USER_CHARGES


@<TRIPOS>ATOM
      1 C1         -3.2790   46.0023   26.8815 C.3       1 UNK         0.0000 
      2 C2         -2.7726   46.5913   25.5725 C.2       1 UNK         0.0000 
      3 O3         -3.1693   46.0967   24.5180 O.2       1 UNK         0.0000 
      4 N4         -1.9166   47.6258   25.6817 N.am      1 UNK         0.0000 
      5 C5         -1.3090   48.3939   24.6706 C.ar      1 UNK         0.0000 
      6 C6         -1.3548   48.1018   23.2971 C.ar      1 UNK         0.0000 
      7 C7         -0.7319   48.9447   22.3773 C.ar      1 UNK         0.0000 
      8 C8         -0.0599   50.0857   22.8116 C.ar      1 UNK         0.0000 
      9 C9         -0.0059   50.3885   24.1797 C.ar      1 UNK         0.0000 
     10 C10        -0.6182   49.5302   25.0982 C.ar      1 UNK         0.0000 
     11 N11         0.6696   51.4912   24.7202 N.am      1 UNK         0.0000 
     12 C12         1.1508   52.6065   24.1281 C.2       1 UNK         0.0000 
     13 O13         0.9728   52.8969   22.9448 O.2       1 UNK         0.0000 
     14 C14         1.9659   53.5668   25.0331 C.3       1 UNK         0.0000 
     15 H15         1.3941   54.4924   25.0886 H         1 UNK         0.0000 
     16 C16         3.3507   53.8347   24.3855 C.3       1 UNK         0.0000 
     17 N17         4.3280   54.4416   25.3053 N.pl3     1 UNK         0.0000 
     18 C18         4.1103   54.2330   26.6923 C.ar      1 UNK         0.0000 
     19 C19         5.0118   54.7247   27.6477 C.ar      1 UNK         0.0000 
     20 C20         4.8141   54.4965   29.0064 C.ar      1 UNK         0.0000 
     21 C21         3.7235   53.7447   29.4362 C.ar      1 UNK         0.0000 
     22 C22         2.8116   53.2502   28.5077 C.ar      1 UNK         0.0000 
     23 C23         2.9998   53.5030   27.1498 C.ar      1 UNK         0.0000 
     24 O24         2.0760   52.9368   26.3126 O.3       1 UNK         0.0000 
     25 S25         6.0067   54.6805   24.7193 S.o2      1 UNK         0.0000 
     26 O26         6.3044   56.0980   24.8817 O.2       1 UNK         0.0000 
     27 O27         6.8501   53.6967   25.3922 O.2       1 UNK         0.0000 
     28 C28         5.9761   54.2708   22.8816 C.3       1 UNK         0.0000 
     29 H29        -4.3436   46.2040   26.9953 H         1 UNK         0.0000 
     30 H30        -2.7594   46.4176   27.7455 H         1 UNK         0.0000 
     31 H31        -3.1325   44.9223   26.8837 H         1 UNK         0.0000 
     32 H32        -1.6956   47.9142   26.6373 H         1 UNK         0.0000 
     33 H33        -1.8590   47.2296   22.9147 H         1 UNK         0.0000 
     34 H34        -0.7667   48.7111   21.3235 H         1 UNK         0.0000 
     35 H35         0.4243   50.7078   22.0748 H         1 UNK         0.0000 
     36 H36        -0.5710   49.7503   26.1572 H         1 UNK         0.0000 
     37 H37         0.8297   51.4500   25.7167 H         1 UNK         0.0000 
     38 H38         3.7730   52.8967   24.0432 H         1 UNK         0.0000 
     39 H39         3.2351   54.4667   23.5038 H         1 UNK         0.0000 
     40 H40         5.8800   55.2974   27.3586 H         1 UNK         0.0000 
     41 H41         5.5237   54.8960   29.7167 H         1 UNK         0.0000 
     42 H42         3.5900   53.5343   30.4842 H         1 UNK         0.0000 
     43 H43         1.9663   52.6634   28.8363 H         1 UNK         0.0000 
     44 H44         6.9677   54.4756   22.4802 H         1 UNK         0.0000 
     45 H45         5.7364   53.2164   22.7554 H         1 UNK         0.0000 
     46 H46         5.2401   54.8967   22.3811 H         1 UNK         0.0000 
@<TRIPOS>BOND
     1    1    2 1    
     2    1   29 1    
     3    1   30 1    
     4    1   31 1    
     5    2    3 2    
     6    2    4 am   BACKBONE|DICT|INTERRES
     7    4    5 1    
     8    4   32 1    
     9    5   10 ar   
    10    5    6 ar   
    11    6    7 ar   
    12    6   33 1    
    13    7    8 ar   
    14    7   34 1    
    15    8    9 ar   
    16    8   35 1    
    17    9   10 ar   
    18    9   11 1    
    19   10   36 1    
    20   11   12 am   BACKBONE|DICT|INTERRES
    21   11   37 1    
    22   12   13 2    
    23   12   14 1    
    24   14   15 1    
    25   14   24 1    
    26   14   16 1    
    27   16   17 1    
    28   16   38 1    
    29   16   39 1    
    30   17   18 1    
    31   17   25 1    
    32   18   23 ar   
    33   18   19 ar   
    34   19   20 ar   
    35   19   40 1    
    36   20   21 ar   
    37   20   41 1    
    38   21   22 ar   
    39   21   42 1    
    40   22   23 ar   
    41   22   43 1    
    42   23   24 1    
    43   25   26 2    
    44   25   27 2    
    45   25   28 1    
    46   28   44 1    
    47   28   45 1    
    48   28   46 1    
@<TRIPOS>SUBSTRUCTURE
     1 UNK         1 GROUP             0       ****    0 ROOT    
