@<TRIPOS>MOLECULE
ZINC49475875_1697
30   32    1
SMALL
USER_CHARGES


@<TRIPOS>ATOM
      1 C1          1.2904   56.1894   30.2255 C.3       1 UNK         0.0000 
      2 C2          1.0884   54.6930   30.3419 C.ar      1 UNK         0.0000 
      3 C3          1.6396   53.6562   29.5647 C.ar      1 UNK         0.0000 
      4 C4          1.0280   52.4973   30.0059 C.ar      1 UNK         0.0000 
      5 N5          0.2624   52.8898   31.0706 N.pl3     1 UNK         0.0000 
      6 H6         -0.3078   52.2762   31.6506 H         1 UNK         0.0000 
      7 N7          0.3040   54.2091   31.2798 N.2       1 UNK         0.0000 
      8 N8          2.5472   53.7633   28.5370 N.am      1 UNK         0.0000 
      9 C9          3.8077   54.2020   28.7208 C.2       1 UNK         0.0000 
     10 O10         4.2949   54.4965   29.8136 O.2       1 UNK         0.0000 
     11 C11         4.5825   54.3255   27.5162 C.ar      1 UNK         0.0000 
     12 C12         4.2531   54.1869   26.1658 C.ar      1 UNK         0.0000 
     13 C13         5.4255   54.4992   25.4599 C.ar      1 UNK         0.0000 
     14 N14         6.4146   54.8104   26.2737 N.2       1 UNK         0.0000 
     15 N15         5.9010   54.7026   27.4999 N.pl3     1 UNK         0.0000 
     16 H16         6.4369   54.9254   28.3308 H         1 UNK         0.0000 
     17 C17         5.6039   54.4981   23.9558 C.3       1 UNK         0.0000 
     18 C18         6.7043   55.2618   23.2533 C.3       1 UNK         0.0000 
     19 C19         6.7428   53.7468   23.3350 C.3       1 UNK         0.0000 
     20 Br20        2.5825   53.6960   25.3813 Br        1 UNK         0.0000 
     21 H21         1.1131   56.5347   29.2065 H         1 UNK         0.0000 
     22 H22         0.6332   56.7625   30.8786 H         1 UNK         0.0000 
     23 H23         2.3042   56.4803   30.4815 H         1 UNK         0.0000 
     24 H24         1.0859   51.4689   29.6820 H         1 UNK         0.0000 
     25 H25         2.2773   53.4360   27.6202 H         1 UNK         0.0000 
     26 H26         4.6593   54.4618   23.4122 H         1 UNK         0.0000 
     27 H27         6.4857   55.7287   22.2926 H         1 UNK         0.0000 
     28 H28         7.4123   55.8435   23.8447 H         1 UNK         0.0000 
     29 H29         7.5039   53.2963   23.9733 H         1 UNK         0.0000 
     30 H30         6.4790   53.1281   22.4820 H         1 UNK         0.0000 
@<TRIPOS>BOND
     1    1    2 1    
     2    1   21 1    
     3    1   22 1    
     4    1   23 1    
     5    2    7 ar   
     6    2    3 ar   
     7    3    4 ar   
     8    3    8 1    
     9    4    5 ar   
    10    4   24 1    
    11    5    6 1    
    12    5    7 ar   
    13    8    9 am   BACKBONE|DICT|INTERRES
    14    8   25 1    
    15    9   10 2    
    16    9   11 1    
    17   11   15 ar   
    18   11   12 ar   
    19   12   13 ar   
    20   12   20 1    
    21   13   14 ar   
    22   13   17 1    
    23   14   15 ar   
    24   15   16 1    
    25   17   19 1    
    26   17   18 1    
    27   17   26 1    
    28   18   19 1    
    29   18   27 1    
    30   18   28 1    
    31   19   29 1    
    32   19   30 1    
@<TRIPOS>SUBSTRUCTURE
     1 UNK         1 GROUP             0       ****    0 ROOT    
