ZINC63315907_907
                    3D
 Schrodinger Suite 2024-2.
 62 65  0  0  1  0            999 V2000
    2.6737   54.6604   29.0344 C   0  0  0  0  0  0
    3.9403   54.6841   28.3834 O   0  0  0  0  0  0
    4.0063   54.4516   27.0206 C   0  0  0  0  0  0
    2.8959   54.0943   26.2397 C   0  0  0  0  0  0
    3.0218   53.8959   24.8618 C   0  0  0  0  0  0
    4.2558   54.0962   24.2533 C   0  0  0  0  0  0
    5.3947   54.3987   25.0145 C   0  0  0  0  0  0
    5.2609   54.5724   26.3984 C   0  0  0  0  0  0
    6.3736   54.8796   27.1491 O   0  0  0  0  0  0
    6.9436   53.7631   27.8192 C   0  0  0  0  0  0
    6.6625   54.5014   24.4697 O   0  0  0  0  0  0
    6.8466   54.1442   23.1037 C   0  0  0  0  0  0
    1.9747   53.4693   24.0302 N   0  0  0  0  0  0
    1.0098   52.5795   24.3378 C   0  0  0  0  0  0
    0.8546   52.0838   25.4585 O   0  0  0  0  0  0
    0.1147   52.1492   23.1608 C   0  0  0  0  0  0
   -0.8666   50.9682   23.3742 C   0  0  0  0  0  0
   -1.7433   51.0325   24.5393 N   0  0  0  0  0  0
   -2.7793   51.8843   24.6566 C   0  0  0  0  0  0
   -3.2046   52.5204   23.6865 O   0  0  0  0  0  0
   -3.3204   51.9901   25.9025 N   0  0  0  0  0  0
   -4.4791   52.8856   26.1279 C   0  0  0  0  0  0
   -5.6547   52.0409   26.6798 C   0  0  0  0  0  0
   -5.1792   51.2964   27.9121 C   0  0  0  0  0  0
   -5.5960   51.2410   29.1864 C   0  0  0  0  0  0
   -6.7506   51.8348   29.8738 C   0  0  0  0  0  0
   -6.9487   51.6356   31.1945 C   0  0  0  0  0  0
   -5.9671   50.8219   31.9036 C   0  0  0  0  0  0
   -4.8882   50.2767   31.2838 C   0  0  0  0  0  0
   -4.6800   50.4825   29.9187 C   0  0  0  0  0  0
   -3.6956   50.0696   29.1519 N   0  3  0  0  0  0
   -3.9101   50.4839   27.7536 C   0  0  2  0  0  0
   -4.0782   49.5724   27.1746 H   0  0  0  0  0  0
   -2.7785   51.3327   27.1237 C   0  0  0  0  0  0
   -8.3320   52.3410   32.0368 Cl  0  0  0  0  0  0
    1.9844   55.3863   28.5999 H   0  0  0  0  0  0
    2.2231   53.6675   28.9977 H   0  0  0  0  0  0
    2.8071   54.9251   30.0815 H   0  0  0  0  0  0
    1.9242   53.9702   26.6929 H   0  0  0  0  0  0
    4.3265   53.9513   23.1856 H   0  0  0  0  0  0
    6.2212   53.2499   28.4546 H   0  0  0  0  0  0
    7.3515   53.0447   27.1077 H   0  0  0  0  0  0
    7.7593   54.0970   28.4623 H   0  0  0  0  0  0
    6.4477   53.1521   22.8829 H   0  0  0  0  0  0
    6.3853   54.8732   22.4357 H   0  0  0  0  0  0
    7.9045   54.1050   22.8683 H   0  0  0  0  0  0
    2.0517   53.7501   23.0630 H   0  0  0  0  0  0
   -0.5255   53.0017   22.9401 H   0  0  0  0  0  0
    0.6168   52.0769   22.1939 H   0  0  0  0  0  0
   -1.2141   50.4655   22.4718 H   0  0  0  0  0  0
   -0.2018   50.1724   23.7167 H   0  0  0  0  0  0
   -1.4584   50.4940   25.3444 H   0  0  0  0  0  0
   -4.1823   53.6428   26.8560 H   0  0  0  0  0  0
   -4.7713   53.4383   25.2335 H   0  0  0  0  0  0
   -6.5015   52.6868   26.9018 H   0  0  0  0  0  0
   -5.9985   51.3428   25.9147 H   0  0  0  0  0  0
   -7.4738   52.4342   29.3348 H   0  0  0  0  0  0
   -6.0808   50.6706   32.9686 H   0  0  0  0  0  0
   -4.1800   49.7009   31.8677 H   0  0  0  0  0  0
   -1.9085   50.6991   26.9466 H   0  0  0  0  0  0
   -2.4565   52.0967   27.8304 H   0  0  0  0  0  0
   -2.9078   49.4851   29.4559 H   0  0  0  0  0  0
  1  2  1  0  0  0
  1 36  1  0  0  0
  1 37  1  0  0  0
  1 38  1  0  0  0
  2  3  1  0  0  0
  3  8  2  0  0  0
  3  4  1  0  0  0
  4  5  2  0  0  0
  4 39  1  0  0  0
  5  6  1  0  0  0
  5 13  1  0  0  0
  6  7  2  0  0  0
  6 40  1  0  0  0
  7  8  1  0  0  0
  7 11  1  0  0  0
  8  9  1  0  0  0
  9 10  1  0  0  0
 10 41  1  0  0  0
 10 42  1  0  0  0
 10 43  1  0  0  0
 11 12  1  0  0  0
 12 44  1  0  0  0
 12 45  1  0  0  0
 12 46  1  0  0  0
 13 14  1  0  0  0
 13 47  1  0  0  0
 14 15  2  0  0  0
 14 16  1  0  0  0
 16 17  1  0  0  0
 16 48  1  0  0  0
 16 49  1  0  0  0
 17 18  1  0  0  0
 17 50  1  0  0  0
 17 51  1  0  0  0
 18 19  1  0  0  0
 18 52  1  0  0  0
 19 20  2  0  0  0
 19 21  1  0  0  0
 21 34  1  0  0  0
 21 22  1  0  0  0
 22 23  1  0  0  0
 22 53  1  0  0  0
 22 54  1  0  0  0
 23 24  1  0  0  0
 23 55  1  0  0  0
 23 56  1  0  0  0
 24 32  1  0  0  0
 24 25  2  0  0  0
 25 30  1  0  0  0
 25 26  1  0  0  0
 26 27  2  0  0  0
 26 57  1  0  0  0
 27 28  1  0  0  0
 27 35  1  0  0  0
 28 29  2  0  0  0
 28 58  1  0  0  0
 29 30  1  0  0  0
 29 59  1  0  0  0
 30 31  2  0  0  0
 31 32  1  0  0  0
 31 62  1  0  0  0
 32 33  1  0  0  0
 32 34  1  0  0  0
 34 60  1  0  0  0
 34 61  1  0  0  0
M  CHG  1  31   1
M  END
> <i_i_glide_confnum>
64

> <i_i_glide_lignum>
908

> <i_i_glide_posenum>
269

> <i_i_glide_rotatable_bonds>
10

> <i_m_Source_File_Index>
2618

> <b_m_subgroup_collapsed>
0

> <r_i_docking_score>
-5.29189

> <r_i_glide_ecoul>
-4.10356

> <r_i_glide_eff_state_penalty>
0

> <r_i_glide_einternal>
1.61618

> <r_i_glide_emodel>
-67.3544

> <r_i_glide_energy>
-48.058

> <r_i_glide_erotb>
0.51238

> <r_i_glide_esite>
-0.115624

> <r_i_glide_evdw>
-43.9544

> <r_i_glide_gscore>
-5.29189

> <r_i_glide_hbond>
-0.329488

> <r_i_glide_ligand_efficiency>
-0.155644

> <r_i_glide_ligand_efficiency_ln>
-1.16913

> <r_i_glide_ligand_efficiency_sa>
-0.504226

> <r_i_glide_lipo>
-2.37073

> <r_i_glide_metal>
0

> <r_i_glide_rewards>
-0.175177

> <s_i_glide_gridfile>
wee1_glide-grid

> <s_m_Source_File>
wee1_decoys_glide_SP.sdf

> <s_m_Source_Path>
/Users/zhangxujun/Desktop

> <s_m_entry_id>
2893

> <s_m_entry_name>
wee1_decoys_glide_SP.2618

> <s_m_subgroup_title>
wee1_decoys_glide_SP

> <s_m_subgroupid>
wee1_decoys_glide_SP


$$$$
