ZINC15675839_5009
                    3D
 Schrodinger Suite 2024-2.
 56 60  0  0  1  0            999 V2000
    6.1826   54.6851   27.4575 C   0  0  0  0  0  0
    5.1112   54.4025   26.5608 O   0  0  0  0  0  0
    5.3414   54.4380   25.1987 C   0  0  0  0  0  0
    4.2699   54.0965   24.3704 C   0  0  0  0  0  0
    4.4103   54.0967   22.9829 C   0  0  0  0  0  0
    5.6206   54.4967   22.4148 C   0  0  0  0  0  0
    6.7044   54.8193   23.2349 C   0  0  0  0  0  0
    6.5690   54.7858   24.6180 C   0  0  0  0  0  0
    5.7146   54.5879   21.0176 N   0  0  0  0  0  0
    6.2375   55.6282   20.3191 C   0  0  0  0  0  0
    6.6744   56.6399   20.8815 O   0  0  0  0  0  0
    6.3504   55.4387   18.9685 N   0  0  0  0  0  0
    6.8244   56.5815   18.1309 C   0  0  0  0  0  0
    5.5872   57.1981   17.4945 C   0  0  0  0  0  0
    4.3861   56.5187   17.3433 C   0  0  0  0  0  0
    3.5047   57.3617   16.6901 N   0  0  0  0  0  0
    2.5488   57.1408   16.4482 H   0  0  0  0  0  0
    4.1302   58.5722   16.4813 C   0  0  0  0  0  0
    5.4112   58.4781   16.9846 N   0  3  0  0  0  0
    4.1590   55.0867   17.7954 C   0  0  0  0  0  0
    5.5258   54.4321   18.2173 C   0  0  1  0  0  0
    5.2528   53.5933   18.8573 H   0  0  0  0  0  0
    6.3023   53.7674   17.0848 C   0  0  0  0  0  0
    7.3911   53.0587   17.2017 N   0  0  0  0  0  0
    7.5937   52.6291   15.9672 C   0  0  0  0  0  0
    6.7377   53.0752   15.0676 N   0  0  0  0  0  0
    5.8459   53.8475   15.8111 O   0  0  0  0  0  0
    8.7044   51.6681   15.6251 C   0  0  0  0  0  0
    9.4619   51.0851   16.6503 C   0  0  0  0  0  0
   10.4589   50.1599   16.3643 C   0  0  0  0  0  0
   10.7291   49.8194   15.0410 C   0  0  0  0  0  0
    9.9875   50.3872   14.0066 C   0  0  0  0  0  0
    8.9813   51.3086   14.2971 C   0  0  0  0  0  0
   11.6992   48.8922   14.7598 O   0  0  0  0  0  0
   13.0311   49.3938   14.6894 C   0  0  0  0  0  0
   13.1805   50.2554   13.6834 F   0  0  0  0  0  0
   13.4036   49.9637   15.8369 F   0  0  0  0  0  0
   13.8425   48.3597   14.4811 F   0  0  0  0  0  0
    6.9993   53.9693   27.3447 H   0  0  0  0  0  0
    6.5708   55.6947   27.3156 H   0  0  0  0  0  0
    5.8238   54.6151   28.4843 H   0  0  0  0  0  0
    3.3248   53.8175   24.8126 H   0  0  0  0  0  0
    3.5665   53.8385   22.3591 H   0  0  0  0  0  0
    7.6444   55.1166   22.7972 H   0  0  0  0  0  0
    7.4258   55.0431   25.2167 H   0  0  0  0  0  0
    5.2969   53.8309   20.4996 H   0  0  0  0  0  0
    7.3100   57.3413   18.7452 H   0  0  0  0  0  0
    7.5401   56.2515   17.3763 H   0  0  0  0  0  0
    3.6899   59.4637   16.0478 H   0  0  0  0  0  0
    3.5039   55.0989   18.6672 H   0  0  0  0  0  0
    3.6487   54.4872   17.0397 H   0  0  0  0  0  0
    9.2685   51.3310   17.6819 H   0  0  0  0  0  0
   11.0208   49.7091   17.1693 H   0  0  0  0  0  0
   10.1998   50.1081   12.9830 H   0  0  0  0  0  0
    8.4135   51.7342   13.4825 H   0  0  0  0  0  0
    6.0838   59.2374   17.0096 H   0  0  0  0  0  0
  1  2  1  0  0  0
  1 39  1  0  0  0
  1 40  1  0  0  0
  1 41  1  0  0  0
  2  3  1  0  0  0
  3  8  2  0  0  0
  3  4  1  0  0  0
  4  5  2  0  0  0
  4 42  1  0  0  0
  5  6  1  0  0  0
  5 43  1  0  0  0
  6  7  2  0  0  0
  6  9  1  0  0  0
  7  8  1  0  0  0
  7 44  1  0  0  0
  8 45  1  0  0  0
  9 10  1  0  0  0
  9 46  1  0  0  0
 10 11  2  0  0  0
 10 12  1  0  0  0
 12 21  1  0  0  0
 12 13  1  0  0  0
 13 14  1  0  0  0
 13 47  1  0  0  0
 13 48  1  0  0  0
 14 19  1  0  0  0
 14 15  2  0  0  0
 15 16  1  0  0  0
 15 20  1  0  0  0
 16 17  1  0  0  0
 16 18  1  0  0  0
 18 19  2  0  0  0
 18 49  1  0  0  0
 19 56  1  0  0  0
 20 21  1  0  0  0
 20 50  1  0  0  0
 20 51  1  0  0  0
 21 22  1  0  0  0
 21 23  1  0  0  0
 23 27  1  0  0  0
 23 24  2  0  0  0
 24 25  1  0  0  0
 25 26  2  0  0  0
 25 28  1  0  0  0
 26 27  1  0  0  0
 28 33  2  0  0  0
 28 29  1  0  0  0
 29 30  2  0  0  0
 29 52  1  0  0  0
 30 31  1  0  0  0
 30 53  1  0  0  0
 31 32  2  0  0  0
 31 34  1  0  0  0
 32 33  1  0  0  0
 32 54  1  0  0  0
 33 55  1  0  0  0
 34 35  1  0  0  0
 35 36  1  0  0  0
 35 37  1  0  0  0
 35 38  1  0  0  0
M  CHG  1  19   1
M  END
> <i_i_glide_confnum>
48

> <i_i_glide_lignum>
5010

> <i_i_glide_posenum>
352

> <i_i_glide_rotatable_bonds>
8

> <i_m_Source_File_Index>
1600

> <b_m_subgroup_collapsed>
0

> <r_i_docking_score>
-3.6746

> <r_i_glide_ecoul>
-9.50392

> <r_i_glide_eff_state_penalty>
0

> <r_i_glide_einternal>
4.55109

> <r_i_glide_emodel>
-53.7332

> <r_i_glide_energy>
-49.7811

> <r_i_glide_erotb>
0.487427

> <r_i_glide_esite>
-0.345385

> <r_i_glide_evdw>
-40.2772

> <r_i_glide_gscore>
-3.6746

> <r_i_glide_hbond>
-0.322299

> <r_i_glide_ligand_efficiency>
-0.102072

> <r_i_glide_ligand_efficiency_ln>
-0.801699

> <r_i_glide_ligand_efficiency_sa>
-0.337035

> <r_i_glide_lipo>
-2.18719

> <r_i_glide_metal>
0

> <r_i_glide_rewards>
2.13229

> <s_i_glide_gridfile>
wee1_glide-grid

> <s_m_Source_File>
wee1_decoys_glide_SP.sdf

> <s_m_Source_Path>
/Users/zhangxujun/Desktop

> <s_m_entry_id>
1875

> <s_m_entry_name>
wee1_decoys_glide_SP.1600

> <s_m_subgroup_title>
wee1_decoys_glide_SP

> <s_m_subgroupid>
wee1_decoys_glide_SP


$$$$
