@<TRIPOS>MOLECULE
ZINC09033668_5428
83   89    1
SMALL
USER_CHARGES


@<TRIPOS>ATOM
      1 C1          1.8554   54.7591   27.9382 C.3       1 UNK         0.0000 
      2 C2          2.3925   53.4092   27.3884 C.3       1 UNK         0.0000 
      3 C3          3.1993   52.7191   28.5377 C.3       1 UNK         0.0000 
      4 C4          4.5339   53.3932   28.9111 C.3       1 UNK         0.0000 
      5 C5          5.4227   53.5439   27.6687 C.3       1 UNK         0.0000 
      6 H6          5.6151   52.5507   27.2592 H         1 UNK         0.0000 
      7 C7          4.7013   54.3601   26.5792 C.3       1 UNK         0.0000 
      8 C8          3.3660   53.6968   26.2114 C.2       1 UNK         0.0000 
      9 C9          3.1107   53.3412   24.9349 C.2       1 UNK         0.0000 
     10 C10         1.9108   52.5771   24.4238 C.3       1 UNK         0.0000 
     11 C11         0.7548   52.5765   25.4409 C.3       1 UNK         0.0000 
     12 H12         0.3043   53.5508   25.2849 H         1 UNK         0.0000 
     13 C13         1.2280   52.4325   26.9255 C.3       1 UNK         0.0000 
     14 H14         1.6020   51.4133   27.0074 H         1 UNK         0.0000 
     15 C15        -0.0179   52.5167   27.8413 C.3       1 UNK         0.0000 
     16 C16        -1.0229   51.4046   27.5381 C.3       1 UNK         0.0000 
     17 C17        -1.5253   51.3881   26.0624 C.3       1 UNK         0.0000 
     18 C18        -0.3378   51.5142   25.0608 C.3       1 UNK         0.0000 
     19 H19        -0.7424   51.8481   24.1009 H         1 UNK         0.0000 
     20 C20         0.1295   50.0731   24.8176 C.3       1 UNK         0.0000 
     21 C21        -1.1381   49.2787   25.0261 C.2       1 UNK         0.0000 
     22 C22        -2.0702   49.9999   25.6816 C.2       1 UNK         0.0000 
     23 C23        -3.3888   49.4934   26.0869 C.2       1 UNK         0.0000 
     24 O24        -4.0256   48.7163   25.3739 O.2       1 UNK         0.0000 
     25 C25        -3.9501   49.9073   27.4626 C.3       1 UNK         0.0000 
     26 C26        -5.4298   49.5508   27.7651 C.3       1 UNK         0.0000 
     27 H27        -5.8760   48.8463   27.0576 H         1 UNK         0.0000 
     28 C28        -6.3325   50.8131   27.8298 C.ar      1 UNK         0.0000 
     29 C29        -7.0899   51.1323   28.9957 C.ar      1 UNK         0.0000 
     30 C30        -7.9182   52.2665   29.0093 C.ar      1 UNK         0.0000 
     31 C31        -7.9732   53.0720   27.8848 C.ar      1 UNK         0.0000 
     32 C32        -7.2637   52.7817   26.7605 C.ar      1 UNK         0.0000 
     33 C33        -6.4496   51.6439   26.6857 C.ar      1 UNK         0.0000 
     34 O34        -5.7589   51.2785   25.5444 O.3       1 UNK         0.0000 
     35 C35        -5.8183   52.0682   24.3626 C.3       1 UNK         0.0000 
     36 O36        -7.5455   53.7287   25.8195 O.3       1 UNK         0.0000 
     37 C37        -8.2727   54.7292   26.4725 C.3       1 UNK         0.0000 
     38 O38        -8.7212   54.1892   27.6834 O.3       1 UNK         0.0000 
     39 C39        -7.0190   50.2538   30.2387 C.3       1 UNK         0.0000 
     40 C40        -6.7252   48.7949   29.8805 C.3       1 UNK         0.0000 
     41 C41        -4.8915   47.3361   28.9312 C.3       1 UNK         0.0000 
     42 C42        -2.5439   52.5278   25.7875 C.3       1 UNK         0.0000 
     43 O43         6.6886   54.0968   27.9762 O.3       1 UNK         0.0000 
     44 H44         1.3707   54.6378   28.9093 H         1 UNK         0.0000 
     45 H45         2.6272   55.5145   28.0757 H         1 UNK         0.0000 
     46 H46         1.1045   55.1777   27.2826 H         1 UNK         0.0000 
     47 H47         2.5821   52.6319   29.4331 H         1 UNK         0.0000 
     48 H48         3.4269   51.6970   28.2564 H         1 UNK         0.0000 
     49 H49         5.0383   52.8046   29.6793 H         1 UNK         0.0000 
     50 H50         4.3336   54.3718   29.3487 H         1 UNK         0.0000 
     51 H51         5.3484   54.4416   25.7044 H         1 UNK         0.0000 
     52 H52         4.5340   55.3754   26.9203 H         1 UNK         0.0000 
     53 H53         3.8721   53.5691   24.2038 H         1 UNK         0.0000 
     54 H54         2.2338   51.5716   24.1570 H         1 UNK         0.0000 
     55 H55         1.5731   53.0342   23.4923 H         1 UNK         0.0000 
     56 H56         0.2926   52.4038   28.8802 H         1 UNK         0.0000 
     57 H57        -0.4893   53.4993   27.7996 H         1 UNK         0.0000 
     58 H58        -1.8483   51.4726   28.2447 H         1 UNK         0.0000 
     59 H59        -0.5291   50.4590   27.7626 H         1 UNK         0.0000 
     60 H60         0.9177   49.7538   25.4992 H         1 UNK         0.0000 
     61 H61         0.5136   49.9509   23.8038 H         1 UNK         0.0000 
     62 H62        -1.2335   48.2550   24.6923 H         1 UNK         0.0000 
     63 H63        -3.8207   50.9689   27.6237 H         1 UNK         0.0000 
     64 H64        -3.2955   49.4456   28.1963 H         1 UNK         0.0000 
     65 H65        -8.5038   52.5093   29.8837 H         1 UNK         0.0000 
     66 H66        -5.1804   51.6131   23.6065 H         1 UNK         0.0000 
     67 H67        -6.8312   52.1128   23.9581 H         1 UNK         0.0000 
     68 H68        -5.4466   53.0790   24.5336 H         1 UNK         0.0000 
     69 H69        -7.6236   55.5828   26.6756 H         1 UNK         0.0000 
     70 H70        -9.1129   55.0519   25.8579 H         1 UNK         0.0000 
     71 H71        -6.2433   50.6319   30.9065 H         1 UNK         0.0000 
     72 H72        -7.9528   50.3062   30.8011 H         1 UNK         0.0000 
     73 H73        -7.4887   48.3308   29.2504 H         1 UNK         0.0000 
     74 H74        -6.5839   48.2061   30.7903 H         1 UNK         0.0000 
     75 H75        -5.6302   46.7961   28.3368 H         1 UNK         0.0000 
     76 H76        -3.9213   47.3573   28.4302 H         1 UNK         0.0000 
     77 H77        -4.7760   46.9015   29.9242 H         1 UNK         0.0000 
     78 H78        -2.0966   53.4861   26.0210 H         1 UNK         0.0000 
     79 H79        -2.8653   52.5530   24.7452 H         1 UNK         0.0000 
     80 H80        -3.4438   52.4799   26.3930 H         1 UNK         0.0000 
     81 H81         6.5939   54.8038   28.6235 H         1 UNK         0.0000 
     82 N82        -5.3863   48.7925   29.1221 N.4       1 UNK         0.0000 
     83 H83        -4.6992   49.2551   29.7053 H         1 UNK         0.0000 
@<TRIPOS>BOND
     1    1    2 1    
     2    1   44 1    
     3    1   45 1    
     4    1   46 1    
     5    2    8 1    
     6    2   13 1    
     7    2    3 1    
     8    3    4 1    
     9    3   47 1    
    10    3   48 1    
    11    4    5 1    
    12    4   49 1    
    13    4   50 1    
    14    5    6 1    
    15    5    7 1    
    16    5   43 1    
    17    7    8 1    
    18    7   51 1    
    19    7   52 1    
    20    8    9 2    
    21    9   10 1    
    22    9   53 1    
    23   10   11 1    
    24   10   54 1    
    25   10   55 1    
    26   11   12 1    
    27   11   18 1    
    28   11   13 1    
    29   13   14 1    
    30   13   15 1    
    31   15   16 1    
    32   15   56 1    
    33   15   57 1    
    34   16   17 1    
    35   16   58 1    
    36   16   59 1    
    37   17   22 1    
    38   17   18 1    
    39   17   42 1    
    40   18   19 1    
    41   18   20 1    
    42   20   21 1    
    43   20   60 1    
    44   20   61 1    
    45   21   22 2    
    46   21   62 1    
    47   22   23 1    
    48   23   24 2    
    49   23   25 1    
    50   25   26 1    
    51   25   63 1    
    52   25   64 1    
    53   26   27 1    
    54   26   28 1    
    55   26   82 1    
    56   28   33 ar   
    57   28   29 ar   
    58   29   30 ar   
    59   29   39 1    
    60   30   31 ar   
    61   30   65 1    
    62   31   38 1    
    63   31   32 ar   
    64   32   33 ar   
    65   32   36 1    
    66   33   34 1    
    67   34   35 1    
    68   35   66 1    
    69   35   67 1    
    70   35   68 1    
    71   36   37 1    
    72   37   38 1    
    73   37   69 1    
    74   37   70 1    
    75   39   40 1    
    76   39   71 1    
    77   39   72 1    
    78   40   73 1    
    79   40   74 1    
    80   40   82 1    
    81   41   75 1    
    82   41   76 1    
    83   41   77 1    
    84   41   82 1    
    85   42   78 1    
    86   42   79 1    
    87   42   80 1    
    88   43   81 1    
    89   82   83 1    
@<TRIPOS>SUBSTRUCTURE
     1 UNK         1 GROUP             0       ****    0 ROOT    
