@<TRIPOS>MOLECULE
ZINC25613576_3420
53   56    1
SMALL
USER_CHARGES


@<TRIPOS>ATOM
      1 C1          7.0510   55.5277   18.3580 C.ar      1 UNK         0.0000 
      2 C2          8.2066   55.8050   19.0848 C.ar      1 UNK         0.0000 
      3 C3          8.1912   55.6966   20.4710 C.ar      1 UNK         0.0000 
      4 C4          7.0253   55.2973   21.1297 C.ar      1 UNK         0.0000 
      5 C5          5.8620   55.0320   20.3931 C.ar      1 UNK         0.0000 
      6 C6          5.8796   55.1451   19.0060 C.ar      1 UNK         0.0000 
      7 N7          7.1044   55.2099   22.5275 N.am      1 UNK         0.0000 
      8 C8          6.3254   54.5112   23.3755 C.2       1 UNK         0.0000 
      9 O9          5.4501   53.7137   23.0346 O.2       1 UNK         0.0000 
     10 N10         6.6402   54.8270   24.6478 N.am      1 UNK         0.0000 
     11 C11         5.9699   54.4531   25.8272 C.ar      1 UNK         0.0000 
     12 C12         6.7042   54.4626   27.0134 C.ar      1 UNK         0.0000 
     13 C13         6.1147   54.0917   28.2167 C.ar      1 UNK         0.0000 
     14 C14         4.7789   53.7010   28.2492 C.ar      1 UNK         0.0000 
     15 C15         4.0165   53.6974   27.0787 C.ar      1 UNK         0.0000 
     16 C16         4.6147   54.0969   25.8703 C.ar      1 UNK         0.0000 
     17 N17         2.6976   53.2272   27.2070 N.am      1 UNK         0.0000 
     18 C18         1.6973   53.1849   26.2973 C.2       1 UNK         0.0000 
     19 O19         1.7851   53.6967   25.1841 O.2       1 UNK         0.0000 
     20 C20         0.4115   52.4968   26.7509 C.ar      1 UNK         0.0000 
     21 C21         0.1866   52.2868   28.1281 C.ar      1 UNK         0.0000 
     22 C22        -0.9818   51.6967   28.5958 C.ar      1 UNK         0.0000 
     23 C23        -1.9645   51.2967   27.6997 C.ar      1 UNK         0.0000 
     24 C24        -1.7767   51.4898   26.3372 C.ar      1 UNK         0.0000 
     25 C25        -0.6117   52.0875   25.8507 C.ar      1 UNK         0.0000 
     26 S26        -0.4953   52.2054   24.0801 S.3       1 UNK         0.0000 
     27 C27         0.5414   50.7940   23.6054 C.3       1 UNK         0.0000 
     28 C28        -0.1997   49.4849   23.7356 C.2       1 UNK         0.0000 
     29 C29        -0.0967   48.5078   24.7246 C.2       1 UNK         0.0000 
     30 C30        -0.9835   47.4400   24.5695 C.2       1 UNK         0.0000 
     31 C31        -1.7721   47.5648   23.4409 C.2       1 UNK         0.0000 
     32 S32        -1.4214   49.0227   22.5791 S.3       1 UNK         0.0000 
     33 H33         7.0629   55.6089   17.2811 H         1 UNK         0.0000 
     34 H34         9.1128   56.0996   18.5752 H         1 UNK         0.0000 
     35 H35         9.0965   55.9069   21.0240 H         1 UNK         0.0000 
     36 H36         4.9386   54.7451   20.8771 H         1 UNK         0.0000 
     37 H37         4.9861   54.9348   18.4358 H         1 UNK         0.0000 
     38 H38         7.9401   55.6219   22.9231 H         1 UNK         0.0000 
     39 H39         7.4861   55.3582   24.7740 H         1 UNK         0.0000 
     40 H40         7.7458   54.7318   27.0261 H         1 UNK         0.0000 
     41 H41         6.7008   54.0966   29.1226 H         1 UNK         0.0000 
     42 H42         4.3469   53.3961   29.1919 H         1 UNK         0.0000 
     43 H43         4.0506   54.1019   24.9555 H         1 UNK         0.0000 
     44 H44         2.4883   52.8092   28.0990 H         1 UNK         0.0000 
     45 H45         0.9037   52.5845   28.8767 H         1 UNK         0.0000 
     46 H46        -1.1247   51.5282   29.6543 H         1 UNK         0.0000 
     47 H47        -2.8575   50.8047   28.0617 H         1 UNK         0.0000 
     48 H48        -2.5375   51.1518   25.6473 H         1 UNK         0.0000 
     49 H49         1.4543   50.8048   24.2008 H         1 UNK         0.0000 
     50 H50         0.8474   50.9537   22.5703 H         1 UNK         0.0000 
     51 H51         0.5872   48.5775   25.5581 H         1 UNK         0.0000 
     52 H52        -1.0431   46.6184   25.2690 H         1 UNK         0.0000 
     53 H53        -2.5373   46.8931   23.0816 H         1 UNK         0.0000 
@<TRIPOS>BOND
     1    1    6 ar   
     2    1    2 ar   
     3    1   33 1    
     4    2    3 ar   
     5    2   34 1    
     6    3    4 ar   
     7    3   35 1    
     8    4    5 ar   
     9    4    7 1    
    10    5    6 ar   
    11    5   36 1    
    12    6   37 1    
    13    7    8 am   BACKBONE|DICT|INTERRES
    14    7   38 1    
    15    8    9 2    
    16    8   10 am   BACKBONE|DICT|INTERRES
    17   10   11 1    
    18   10   39 1    
    19   11   16 ar   
    20   11   12 ar   
    21   12   13 ar   
    22   12   40 1    
    23   13   14 ar   
    24   13   41 1    
    25   14   15 ar   
    26   14   42 1    
    27   15   16 ar   
    28   15   17 1    
    29   16   43 1    
    30   17   18 am   BACKBONE|DICT|INTERRES
    31   17   44 1    
    32   18   19 2    
    33   18   20 1    
    34   20   25 ar   
    35   20   21 ar   
    36   21   22 ar   
    37   21   45 1    
    38   22   23 ar   
    39   22   46 1    
    40   23   24 ar   
    41   23   47 1    
    42   24   25 ar   
    43   24   48 1    
    44   25   26 1    
    45   26   27 1    
    46   27   28 1    
    47   27   49 1    
    48   27   50 1    
    49   28   32 1    
    50   28   29 2    
    51   29   30 1    
    52   29   51 1    
    53   30   31 2    
    54   30   52 1    
    55   31   32 1    
    56   31   53 1    
@<TRIPOS>SUBSTRUCTURE
     1 UNK         1 GROUP             0       ****    0 ROOT    
