ZINC33960228_83
                    3D
 Schrodinger Suite 2024-2.
 58 61  0  0  1  0            999 V2000
   -2.3518   49.2262   22.3092 C   0  0  0  0  0  0
   -2.5919   50.7453   22.2157 C   0  0  1  0  0  0
   -3.4992   50.8955   21.6255 H   0  0  0  0  0  0
   -2.8376   51.4006   23.6028 C   0  0  0  0  0  0
   -1.5431   51.4797   24.4583 C   0  0  1  0  0  0
   -1.1541   50.4691   24.6044 H   0  0  0  0  0  0
   -0.4901   52.2851   23.6672 C   0  0  0  0  0  0
   -0.2508   51.6390   22.3526 N   0  0  0  0  0  0
   -1.4482   51.4937   21.4792 C   0  0  0  0  0  0
    1.1556   50.5834   22.1099 S   0  0  0  0  0  0
    0.7179   49.3669   21.4137 O   0  0  0  0  0  0
    1.9045   50.5190   23.3703 O   0  0  0  0  0  0
    2.1715   51.5007   20.9542 C   0  0  0  0  0  0
    1.9573   51.3804   19.5798 C   0  0  0  0  0  0
    2.7552   52.0949   18.6873 C   0  0  0  0  0  0
    3.7746   52.9187   19.1644 C   0  0  0  0  0  0
    4.0004   53.0598   20.5394 C   0  0  0  0  0  0
    3.1761   52.3474   21.4255 C   0  0  0  0  0  0
    5.1056   53.9348   21.0589 C   0  0  0  0  0  0
    5.8151   54.9186   20.3560 C   0  0  0  0  0  0
    6.9824   55.6946   21.3958 S   0  0  0  0  0  0
    6.4256   54.6632   22.6716 C   0  0  0  0  0  0
    5.5037   53.8031   22.3116 N   0  0  0  0  0  0
    6.9534   54.7975   23.9499 N   0  0  0  0  0  0
    6.2904   54.5861   25.2046 N   0  0  0  0  0  0
    5.0156   54.4874   25.2464 C   0  0  0  0  0  0
    4.2017   54.1515   26.4140 C   0  0  0  0  0  0
    2.8907   53.6975   26.2095 C   0  0  0  0  0  0
    2.0688   53.3752   27.2883 C   0  0  0  0  0  0
    2.5448   53.5099   28.5890 C   0  0  0  0  0  0
    3.8446   53.9559   28.8061 C   0  0  0  0  0  0
    4.6758   54.2656   27.7291 C   0  0  0  0  0  0
    4.3003   54.0988   30.0818 O   0  0  0  0  0  0
   -1.8077   52.0916   25.8427 C   0  0  0  0  0  0
   -1.4659   48.9791   22.8961 H   0  0  0  0  0  0
   -3.2025   48.7230   22.7761 H   0  0  0  0  0  0
   -2.2189   48.7894   21.3188 H   0  0  0  0  0  0
   -3.6028   50.8549   24.1546 H   0  0  0  0  0  0
   -3.2493   52.4047   23.4773 H   0  0  0  0  0  0
    0.4503   52.3691   24.2118 H   0  0  0  0  0  0
   -0.8511   53.2975   23.4769 H   0  0  0  0  0  0
   -1.7616   52.4971   21.1948 H   0  0  0  0  0  0
   -1.1553   50.9640   20.5713 H   0  0  0  0  0  0
    1.1858   50.7261   19.1967 H   0  0  0  0  0  0
    2.6112   51.9789   17.6235 H   0  0  0  0  0  0
    4.3999   53.4344   18.4516 H   0  0  0  0  0  0
    3.3241   52.4417   22.4914 H   0  0  0  0  0  0
    5.6981   55.2262   19.3295 H   0  0  0  0  0  0
    7.9678   54.8965   24.0486 H   0  0  0  0  0  0
    4.4098   54.6527   24.3607 H   0  0  0  0  0  0
    2.4972   53.5801   25.2094 H   0  0  0  0  0  0
    1.0645   53.0234   27.1154 H   0  0  0  0  0  0
    1.9035   53.2676   29.4248 H   0  0  0  0  0  0
    5.6849   54.6116   27.9133 H   0  0  0  0  0  0
    5.2025   54.4303   30.0995 H   0  0  0  0  0  0
   -2.1845   53.1131   25.7694 H   0  0  0  0  0  0
   -2.5398   51.5051   26.3984 H   0  0  0  0  0  0
   -0.8981   52.1124   26.4444 H   0  0  0  0  0  0
  1  2  1  0  0  0
  1 35  1  0  0  0
  1 36  1  0  0  0
  1 37  1  0  0  0
  2  3  1  0  0  0
  2  9  1  0  0  0
  2  4  1  0  0  0
  4  5  1  0  0  0
  4 38  1  0  0  0
  4 39  1  0  0  0
  5  6  1  0  0  0
  5  7  1  0  0  0
  5 34  1  0  0  0
  7  8  1  0  0  0
  7 40  1  0  0  0
  7 41  1  0  0  0
  8  9  1  0  0  0
  8 10  1  0  0  0
  9 42  1  0  0  0
  9 43  1  0  0  0
 10 11  2  0  0  0
 10 12  2  0  0  0
 10 13  1  0  0  0
 13 18  2  0  0  0
 13 14  1  0  0  0
 14 15  2  0  0  0
 14 44  1  0  0  0
 15 16  1  0  0  0
 15 45  1  0  0  0
 16 17  2  0  0  0
 16 46  1  0  0  0
 17 18  1  0  0  0
 17 19  1  0  0  0
 18 47  1  0  0  0
 19 23  1  0  0  0
 19 20  2  0  0  0
 20 21  1  0  0  0
 20 48  1  0  0  0
 21 22  1  0  0  0
 22 23  2  0  0  0
 22 24  1  0  0  0
 24 25  1  0  0  0
 24 49  1  0  0  0
 25 26  2  0  0  0
 26 27  1  0  0  0
 26 50  1  0  0  0
 27 32  2  0  0  0
 27 28  1  0  0  0
 28 29  2  0  0  0
 28 51  1  0  0  0
 29 30  1  0  0  0
 29 52  1  0  0  0
 30 31  2  0  0  0
 30 53  1  0  0  0
 31 32  1  0  0  0
 31 33  1  0  0  0
 32 54  1  0  0  0
 33 55  1  0  0  0
 34 56  1  0  0  0
 34 57  1  0  0  0
 34 58  1  0  0  0
M  END
> <i_i_glide_confnum>
94

> <i_i_glide_lignum>
84

> <i_i_glide_posenum>
39

> <i_i_glide_rotatable_bonds>
7

> <i_m_Source_File_Index>
3339

> <b_m_subgroup_collapsed>
0

> <r_i_docking_score>
-5.74731

> <r_i_glide_ecoul>
-4.92844

> <r_i_glide_eff_state_penalty>
0

> <r_i_glide_einternal>
7.28302

> <r_i_glide_emodel>
-63.7499

> <r_i_glide_energy>
-50.0001

> <r_i_glide_erotb>
0.547416

> <r_i_glide_esite>
0

> <r_i_glide_evdw>
-45.0717

> <r_i_glide_gscore>
-5.74731

> <r_i_glide_hbond>
-0.516038

> <r_i_glide_ligand_efficiency>
-0.179603

> <r_i_glide_ligand_efficiency_ln>
-1.28698

> <r_i_glide_ligand_efficiency_sa>
-0.570205

> <r_i_glide_lipo>
-2.10788

> <r_i_glide_metal>
0

> <r_i_glide_rewards>
-0.677957

> <s_i_glide_gridfile>
wee1_glide-grid

> <s_m_Source_File>
wee1_decoys_glide_SP.sdf

> <s_m_Source_Path>
/Users/zhangxujun/Desktop

> <s_m_entry_id>
3614

> <s_m_entry_name>
wee1_decoys_glide_SP.3339

> <s_m_subgroup_title>
wee1_decoys_glide_SP

> <s_m_subgroupid>
wee1_decoys_glide_SP


$$$$
