@<TRIPOS>MOLECULE
ZINC29851615_4841
55   57    1
SMALL
USER_CHARGES


@<TRIPOS>ATOM
      1 C1          7.1034   54.1349   24.7284 C.3       1 UNK         0.0000 
      2 C2          5.6769   54.5697   24.4065 C.3       1 UNK         0.0000 
      3 H3          5.7257   55.5717   23.9853 H         1 UNK         0.0000 
      4 C4          4.8951   54.6306   25.7521 C.2       1 UNK         0.0000 
      5 O5          5.3884   55.2927   26.6613 O.2       1 UNK         0.0000 
      6 N6          3.7229   53.9617   25.8581 N.am      1 UNK         0.0000 
      7 C7          2.8475   53.7894   26.9495 C.ar      1 UNK         0.0000 
      8 C8          3.2186   54.0674   28.2763 C.ar      1 UNK         0.0000 
      9 C9          2.3288   53.8343   29.3236 C.ar      1 UNK         0.0000 
     10 C10         1.0674   53.3085   29.0687 C.ar      1 UNK         0.0000 
     11 C11         0.6886   53.0256   27.7584 C.ar      1 UNK         0.0000 
     12 C12         1.5566   53.2751   26.6841 C.ar      1 UNK         0.0000 
     13 C13         1.0788   52.9718   25.2527 C.3       1 UNK         0.0000 
     14 F14         1.0943   54.0691   24.4969 F         1 UNK         0.0000 
     15 F15         1.8996   52.0970   24.6874 F         1 UNK         0.0000 
     16 F16        -0.1546   52.4660   25.2101 F         1 UNK         0.0000 
     17 N17         4.9133   53.7267   23.3378 N.4       1 UNK         0.0000 
     18 C18         3.7055   54.4667   22.7266 C.3       1 UNK         0.0000 
     19 C19         2.9104   53.4172   21.9405 C.3       1 UNK         0.0000 
     20 N20         3.6809   52.9703   20.7745 N.pl3     1 UNK         0.0000 
     21 C21         5.0028   52.4306   21.1431 C.3       1 UNK         0.0000 
     22 C22         5.8137   53.2660   22.1722 C.3       1 UNK         0.0000 
     23 C23         3.0852   52.5976   19.5743 C.ar      1 UNK         0.0000 
     24 C24         1.9175   51.8267   19.6148 C.ar      1 UNK         0.0000 
     25 C25         1.3272   51.3543   18.4477 C.ar      1 UNK         0.0000 
     26 C26         1.8909   51.6441   17.2048 C.ar      1 UNK         0.0000 
     27 C27         3.0509   52.4206   17.1530 C.ar      1 UNK         0.0000 
     28 C28         3.6658   52.9037   18.3189 C.ar      1 UNK         0.0000 
     29 N29         4.8427   53.8045   18.1739 N.pl3     1 UNK         0.0000 
     30 O30         5.0745   54.6502   19.0358 O.co2     1 UNK         0.0000 
     31 O31         5.5204   53.7126   17.1533 O.co2     1 UNK         0.0000 
     32 C32         1.2440   51.1095   15.9282 C.3       1 UNK         0.0000 
     33 F33         0.7942   49.8673   16.1099 F         1 UNK         0.0000 
     34 F34         0.2106   51.8911   15.6150 F         1 UNK         0.0000 
     35 F35         2.0905   51.1001   14.8957 F         1 UNK         0.0000 
     36 H36         7.6056   54.9026   25.3116 H         1 UNK         0.0000 
     37 H37         7.1084   53.2064   25.2971 H         1 UNK         0.0000 
     38 H38         7.6976   54.0121   23.8257 H         1 UNK         0.0000 
     39 H39         3.3747   53.5377   25.0149 H         1 UNK         0.0000 
     40 H40         4.1973   54.4461   28.5287 H         1 UNK         0.0000 
     41 H41         2.6216   54.0536   30.3377 H         1 UNK         0.0000 
     42 H42         0.3843   53.1154   29.8853 H         1 UNK         0.0000 
     43 H43        -0.2970   52.6148   27.5899 H         1 UNK         0.0000 
     44 H44         3.1009   54.8894   23.5233 H         1 UNK         0.0000 
     45 H45         4.0524   55.2857   22.0910 H         1 UNK         0.0000 
     46 H46         2.6972   52.5435   22.5541 H         1 UNK         0.0000 
     47 H47         1.9313   53.8126   21.6782 H         1 UNK         0.0000 
     48 H48         5.5982   52.1652   20.2670 H         1 UNK         0.0000 
     49 H49         4.7454   51.4904   21.6329 H         1 UNK         0.0000 
     50 H50         6.2852   54.1525   21.7400 H         1 UNK         0.0000 
     51 H51         6.5385   52.6096   22.6478 H         1 UNK         0.0000 
     52 H52         1.4740   51.5629   20.5638 H         1 UNK         0.0000 
     53 H53         0.4333   50.7500   18.5129 H         1 UNK         0.0000 
     54 H54         3.4847   52.6503   16.1897 H         1 UNK         0.0000 
     55 H55         4.5787   52.8971   23.8071 H         1 UNK         0.0000 
@<TRIPOS>BOND
     1    1    2 1    
     2    1   36 1    
     3    1   37 1    
     4    1   38 1    
     5    2    3 1    
     6    2    4 1    
     7    2   17 1    
     8    4    5 2    
     9    4    6 am   BACKBONE|DICT|INTERRES
    10    6    7 1    
    11    6   39 1    
    12    7   12 ar   
    13    7    8 ar   
    14    8    9 ar   
    15    8   40 1    
    16    9   10 ar   
    17    9   41 1    
    18   10   11 ar   
    19   10   42 1    
    20   11   12 ar   
    21   11   43 1    
    22   12   13 1    
    23   13   14 1    
    24   13   15 1    
    25   13   16 1    
    26   17   22 1    
    27   17   18 1    
    28   17   55 1    
    29   18   19 1    
    30   18   44 1    
    31   18   45 1    
    32   19   20 1    
    33   19   46 1    
    34   19   47 1    
    35   20   21 1    
    36   20   23 1    
    37   21   22 1    
    38   21   48 1    
    39   21   49 1    
    40   22   50 1    
    41   22   51 1    
    42   23   28 ar   
    43   23   24 ar   
    44   24   25 ar   
    45   24   52 1    
    46   25   26 ar   
    47   25   53 1    
    48   26   27 ar   
    49   26   32 1    
    50   27   28 ar   
    51   27   54 1    
    52   28   29 1    
    53   29   30 2    
    54   29   31 1    
    55   32   33 1    
    56   32   34 1    
    57   32   35 1    
@<TRIPOS>SUBSTRUCTURE
     1 UNK         1 GROUP             0       ****    0 ROOT    
