@<TRIPOS>MOLECULE
ZINC67061339_2583
44   45    1
SMALL
USER_CHARGES


@<TRIPOS>ATOM
      1 C1          2.5783   54.0966   25.0821 C.ar      1 UNK         0.0000 
      2 C2          3.6627   54.4726   25.8739 C.ar      1 UNK         0.0000 
      3 C3          4.9552   54.4611   25.3486 C.ar      1 UNK         0.0000 
      4 C4          5.1638   54.0765   24.0136 C.ar      1 UNK         0.0000 
      5 C5          4.0614   53.7105   23.2283 C.ar      1 UNK         0.0000 
      6 C6          2.7738   53.7303   23.7554 C.ar      1 UNK         0.0000 
      7 F7          1.7184   53.3749   22.9894 F         1 UNK         0.0000 
      8 C8          6.5679   53.8854   23.4450 C.3       1 UNK         0.0000 
      9 N9          7.1044   54.9903   22.6501 N.am      1 UNK         0.0000 
     10 C10         6.7046   55.2967   21.4068 C.2       1 UNK         0.0000 
     11 O11         5.5570   55.1207   20.9960 O.2       1 UNK         0.0000 
     12 N12         7.7383   55.6971   20.6365 N.am      1 UNK         0.0000 
     13 N13         7.5324   55.9648   19.2758 N.am      1 UNK         0.0000 
     14 C14         6.9745   57.1297   18.8817 C.2       1 UNK         0.0000 
     15 O15         6.7044   58.0522   19.6547 O.2       1 UNK         0.0000 
     16 C16         6.6538   57.2465   17.3834 C.3       1 UNK         0.0000 
     17 C17         6.6493   58.6957   16.8196 C.3       1 UNK         0.0000 
     18 C18         8.0327   59.3965   16.8393 C.3       1 UNK         0.0000 
     19 C19         9.0190   58.7560   15.8382 C.3       1 UNK         0.0000 
     20 C20         8.4386   58.7339   14.4067 C.3       1 UNK         0.0000 
     21 C21         7.0192   58.1268   14.3468 C.3       1 UNK         0.0000 
     22 C22         6.0782   58.7787   15.3839 C.3       1 UNK         0.0000 
     23 Br23        6.4023   54.8967   26.5108 Br        1 UNK         0.0000 
     24 H24         1.5808   54.0890   25.4929 H         1 UNK         0.0000 
     25 H25         3.5044   54.7512   26.9055 H         1 UNK         0.0000 
     26 H26         4.1974   53.3859   22.2073 H         1 UNK         0.0000 
     27 H27         6.5878   52.9581   22.8718 H         1 UNK         0.0000 
     28 H28         7.2736   53.6970   24.2529 H         1 UNK         0.0000 
     29 H29         7.9975   55.3489   22.9709 H         1 UNK         0.0000 
     30 H30         8.6656   55.9274   20.9630 H         1 UNK         0.0000 
     31 H31         7.7129   55.1740   18.6741 H         1 UNK         0.0000 
     32 H32         5.6621   56.8132   17.2483 H         1 UNK         0.0000 
     33 H33         7.3332   56.6145   16.8115 H         1 UNK         0.0000 
     34 H34         5.9743   59.2967   17.4326 H         1 UNK         0.0000 
     35 H35         8.4629   59.3632   17.8404 H         1 UNK         0.0000 
     36 H36         7.9082   60.4536   16.5972 H         1 UNK         0.0000 
     37 H37         9.2634   57.7408   16.1519 H         1 UNK         0.0000 
     38 H38         9.9611   59.3052   15.8454 H         1 UNK         0.0000 
     39 H39         9.1069   58.1855   13.7421 H         1 UNK         0.0000 
     40 H40         8.4030   59.7548   14.0230 H         1 UNK         0.0000 
     41 H41         7.0724   57.0508   14.5154 H         1 UNK         0.0000 
     42 H42         6.6063   58.2519   13.3449 H         1 UNK         0.0000 
     43 H43         5.9103   59.8247   15.1183 H         1 UNK         0.0000 
     44 H44         5.1011   58.2961   15.3403 H         1 UNK         0.0000 
@<TRIPOS>BOND
     1    1    6 ar   
     2    1    2 ar   
     3    1   24 1    
     4    2    3 ar   
     5    2   25 1    
     6    3    4 ar   
     7    3   23 1    
     8    4    5 ar   
     9    4    8 1    
    10    5    6 ar   
    11    5   26 1    
    12    6    7 1    
    13    8    9 1    
    14    8   27 1    
    15    8   28 1    
    16    9   10 am   BACKBONE|DICT|INTERRES
    17    9   29 1    
    18   10   11 2    
    19   10   12 am   BACKBONE|DICT|INTERRES
    20   12   13 1    
    21   12   30 1    
    22   13   14 am   BACKBONE|DICT|INTERRES
    23   13   31 1    
    24   14   15 2    
    25   14   16 1    
    26   16   17 1    
    27   16   32 1    
    28   16   33 1    
    29   17   22 1    
    30   17   18 1    
    31   17   34 1    
    32   18   19 1    
    33   18   35 1    
    34   18   36 1    
    35   19   20 1    
    36   19   37 1    
    37   19   38 1    
    38   20   21 1    
    39   20   39 1    
    40   20   40 1    
    41   21   22 1    
    42   21   41 1    
    43   21   42 1    
    44   22   43 1    
    45   22   44 1    
@<TRIPOS>SUBSTRUCTURE
     1 UNK         1 GROUP             0       ****    0 ROOT    
