ZINC09104733_4159
                    3D
 Schrodinger Suite 2024-2.
 53 57  0  0  1  0            999 V2000
    2.3077   49.5372   22.5116 C   0  0  0  0  0  0
    2.5637   50.5913   21.5901 O   0  0  0  0  0  0
    2.1617   50.4551   20.2729 C   0  0  0  0  0  0
    1.5026   49.3085   19.7877 C   0  0  0  0  0  0
    1.0558   49.2427   18.4710 C   0  0  0  0  0  0
    1.2477   50.3225   17.6132 C   0  0  0  0  0  0
    1.9100   51.4567   18.0684 C   0  0  0  0  0  0
    2.3872   51.5231   19.3809 C   0  0  0  0  0  0
    3.0479   52.7055   19.7512 N   0  0  0  0  0  0
    4.2928   52.7958   20.2631 C   0  0  0  0  0  0
    5.0161   51.8301   20.5054 O   0  0  0  0  0  0
    4.7977   54.2247   20.5828 C   0  0  2  0  0  0
    3.9845   54.8971   20.3165 H   0  0  0  0  0  0
    6.0691   54.5705   19.7438 C   0  0  0  0  0  0
    6.9387   55.6930   20.3563 C   0  0  0  0  0  0
    7.4687   55.3367   21.7650 C   0  0  0  0  0  0
    6.2934   54.8650   22.6021 C   0  0  0  0  0  0
    5.0867   54.3704   22.0799 C   0  0  0  0  0  0
    4.1693   54.0685   22.9782 N   0  0  0  0  0  0
    4.5785   54.2418   24.2036 C   0  0  0  0  0  0
    6.2223   54.8167   24.3497 S   0  0  0  0  0  0
    3.7059   53.9422   25.2339 N   0  0  0  0  0  0
    3.8851   54.0375   26.5642 C   0  0  0  0  0  0
    4.8976   54.4947   27.1003 O   0  0  0  0  0  0
    2.7139   53.5468   27.3977 C   0  0  0  0  0  0
    1.5909   52.8973   26.8134 C   0  0  0  0  0  0
    0.5215   52.4341   27.5902 C   0  0  0  0  0  0
    0.5924   52.6256   28.9610 C   0  0  0  0  0  0
    1.6626   53.2397   29.5415 C   0  0  0  0  0  0
    2.7401   53.7135   28.7976 C   0  0  0  0  0  0
    1.4703   53.2988   30.8820 O   0  0  0  0  0  0
    0.2608   52.6296   31.1437 C   0  0  0  0  0  0
   -0.3198   52.2947   29.9106 O   0  0  0  0  0  0
    0.6750   50.2463   15.9865 Cl  0  0  0  0  0  0
    2.7033   49.8059   23.4902 H   0  0  0  0  0  0
    1.2367   49.3644   22.6299 H   0  0  0  0  0  0
    2.7897   48.6086   22.2047 H   0  0  0  0  0  0
    1.3177   48.4563   20.4216 H   0  0  0  0  0  0
    0.5589   48.3543   18.1109 H   0  0  0  0  0  0
    2.0773   52.2793   17.3873 H   0  0  0  0  0  0
    2.5704   53.5669   19.5238 H   0  0  0  0  0  0
    5.7691   54.8428   18.7302 H   0  0  0  0  0  0
    6.7042   53.6969   19.6154 H   0  0  0  0  0  0
    6.3516   56.6110   20.4039 H   0  0  0  0  0  0
    7.7813   55.9073   19.6970 H   0  0  0  0  0  0
    7.9556   56.1984   22.2192 H   0  0  0  0  0  0
    8.2306   54.5607   21.7006 H   0  0  0  0  0  0
    2.8084   53.5963   24.9317 H   0  0  0  0  0  0
    1.5216   52.7270   25.7511 H   0  0  0  0  0  0
   -0.3251   51.9418   27.1331 H   0  0  0  0  0  0
    3.5738   54.1938   29.2886 H   0  0  0  0  0  0
    0.4520   51.7168   31.7102 H   0  0  0  0  0  0
   -0.4158   53.2784   31.7011 H   0  0  0  0  0  0
  1  2  1  0  0  0
  1 35  1  0  0  0
  1 36  1  0  0  0
  1 37  1  0  0  0
  2  3  1  0  0  0
  3  8  2  0  0  0
  3  4  1  0  0  0
  4  5  2  0  0  0
  4 38  1  0  0  0
  5  6  1  0  0  0
  5 39  1  0  0  0
  6  7  2  0  0  0
  6 34  1  0  0  0
  7  8  1  0  0  0
  7 40  1  0  0  0
  8  9  1  0  0  0
  9 10  1  0  0  0
  9 41  1  0  0  0
 10 11  2  0  0  0
 10 12  1  0  0  0
 12 13  1  0  0  0
 12 18  1  0  0  0
 12 14  1  0  0  0
 14 15  1  0  0  0
 14 42  1  0  0  0
 14 43  1  0  0  0
 15 16  1  0  0  0
 15 44  1  0  0  0
 15 45  1  0  0  0
 16 17  1  0  0  0
 16 46  1  0  0  0
 16 47  1  0  0  0
 17 21  1  0  0  0
 17 18  2  0  0  0
 18 19  1  0  0  0
 19 20  2  0  0  0
 20 21  1  0  0  0
 20 22  1  0  0  0
 22 23  1  0  0  0
 22 48  1  0  0  0
 23 24  2  0  0  0
 23 25  1  0  0  0
 25 30  2  0  0  0
 25 26  1  0  0  0
 26 27  2  0  0  0
 26 49  1  0  0  0
 27 28  1  0  0  0
 27 50  1  0  0  0
 28 33  1  0  0  0
 28 29  2  0  0  0
 29 30  1  0  0  0
 29 31  1  0  0  0
 30 51  1  0  0  0
 31 32  1  0  0  0
 32 33  1  0  0  0
 32 52  1  0  0  0
 32 53  1  0  0  0
M  END
> <i_i_glide_confnum>
19

> <i_i_glide_lignum>
4160

> <i_i_glide_posenum>
305

> <i_i_glide_rotatable_bonds>
7

> <i_m_Source_File_Index>
3322

> <b_m_subgroup_collapsed>
0

> <r_i_docking_score>
-5.96085

> <r_i_glide_ecoul>
-5.75682

> <r_i_glide_eff_state_penalty>
0

> <r_i_glide_einternal>
2.71282

> <r_i_glide_emodel>
-72.0651

> <r_i_glide_energy>
-53.7346

> <r_i_glide_erotb>
0.516274

> <r_i_glide_esite>
-0.134015

> <r_i_glide_evdw>
-47.9778

> <r_i_glide_gscore>
-5.96085

> <r_i_glide_hbond>
-0.370655

> <r_i_glide_ligand_efficiency>
-0.180632

> <r_i_glide_ligand_efficiency_ln>
-1.32566

> <r_i_glide_ligand_efficiency_sa>
-0.579383

> <r_i_glide_lipo>
-2.31188

> <r_i_glide_metal>
0

> <r_i_glide_rewards>
-0.398163

> <s_i_glide_gridfile>
wee1_glide-grid

> <s_m_Source_File>
wee1_decoys_glide_SP.sdf

> <s_m_Source_Path>
/Users/zhangxujun/Desktop

> <s_m_entry_id>
3597

> <s_m_entry_name>
wee1_decoys_glide_SP.3322

> <s_m_subgroup_title>
wee1_decoys_glide_SP

> <s_m_subgroupid>
wee1_decoys_glide_SP


$$$$
