@<TRIPOS>MOLECULE
ZINC14118978_68
61   65    1
SMALL
USER_CHARGES


@<TRIPOS>ATOM
      1 C1         -1.1948   51.6798   20.5628 C.3       1 UNK         0.0000 
      2 C2         -0.7367   51.9434   21.9759 C.2       1 UNK         0.0000 
      3 C3          0.4465   52.4967   22.4326 C.2       1 UNK         0.0000 
      4 C4          0.5952   52.6024   23.8325 C.2       1 UNK         0.0000 
      5 C5         -0.5452   52.0868   24.4876 C.2       1 UNK         0.0000 
      6 S6         -1.7293   51.5506   23.3305 S.3       1 UNK         0.0000 
      7 C7         -0.8649   51.9388   25.9617 C.3       1 UNK         0.0000 
      8 C8          1.8359   53.1786   24.4875 C.ar      1 UNK         0.0000 
      9 C9          2.9733   53.5360   23.7450 C.ar      1 UNK         0.0000 
     10 C10         4.1515   53.9983   24.3677 C.ar      1 UNK         0.0000 
     11 C11         4.0902   54.1016   25.7750 C.ar      1 UNK         0.0000 
     12 C12         4.9530   54.4963   26.8454 C.ar      1 UNK         0.0000 
     13 N13         4.3598   54.4071   28.0098 N.2       1 UNK         0.0000 
     14 N14         3.1063   53.9556   27.7850 N.pl3     1 UNK         0.0000 
     15 C15         2.8930   53.7425   26.4334 C.ar      1 UNK         0.0000 
     16 N16         1.7855   53.2963   25.8420 N.ar      1 UNK         0.0000 
     17 C17         2.1642   53.7717   28.9006 C.3       1 UNK         0.0000 
     18 C18         1.8338   55.1320   29.5490 C.3       1 UNK         0.0000 
     19 C19         2.7147   52.7453   29.9135 C.3       1 UNK         0.0000 
     20 C20         5.3928   54.3209   23.5601 C.2       1 UNK         0.0000 
     21 O21         6.4763   54.4331   24.1280 O.2       1 UNK         0.0000 
     22 N22         5.2004   54.4961   22.2321 N.am      1 UNK         0.0000 
     23 C23         6.0954   54.9003   21.2256 C.ar      1 UNK         0.0000 
     24 C24         7.4127   55.3231   21.4499 C.ar      1 UNK         0.0000 
     25 C25         8.2193   55.6967   20.3782 C.ar      1 UNK         0.0000 
     26 C26         7.7217   55.6743   19.0663 C.ar      1 UNK         0.0000 
     27 C27         6.3966   55.2745   18.8560 C.ar      1 UNK         0.0000 
     28 C28         5.5921   54.8924   19.9243 C.ar      1 UNK         0.0000 
     29 C29         8.5737   56.0894   17.8816 C.2       1 UNK         0.0000 
     30 O30         8.0578   56.3249   16.7897 O.2       1 UNK         0.0000 
     31 N31         9.9026   56.1552   18.0811 N.am      1 UNK         0.0000 
     32 C32        10.8676   56.5839   17.0754 C.3       1 UNK         0.0000 
     33 C33        12.1862   55.8531   16.9914 C.3       1 UNK         0.0000 
     34 C34        11.1557   55.6761   15.9004 C.3       1 UNK         0.0000 
     35 H35        -0.5114   52.1062   19.8235 H         1 UNK         0.0000 
     36 H36        -1.2538   50.6086   20.3561 H         1 UNK         0.0000 
     37 H37        -2.1826   52.0979   20.3669 H         1 UNK         0.0000 
     38 H38         1.1890   52.8240   21.7230 H         1 UNK         0.0000 
     39 H39        -0.0354   51.5046   26.5183 H         1 UNK         0.0000 
     40 H40        -1.1028   52.8948   26.4241 H         1 UNK         0.0000 
     41 H41        -1.7170   51.2831   26.1398 H         1 UNK         0.0000 
     42 H42         2.9549   53.4018   22.6776 H         1 UNK         0.0000 
     43 H43         5.9752   54.8372   26.7722 H         1 UNK         0.0000 
     44 H44         1.2416   53.3663   28.4813 H         1 UNK         0.0000 
     45 H45         1.0926   55.0192   30.3412 H         1 UNK         0.0000 
     46 H46         1.4302   55.8317   28.8138 H         1 UNK         0.0000 
     47 H47         2.7115   55.5977   29.9923 H         1 UNK         0.0000 
     48 H48         1.9894   52.5564   30.7050 H         1 UNK         0.0000 
     49 H49         2.9236   51.7915   29.4271 H         1 UNK         0.0000 
     50 H50         3.6367   53.0882   30.3814 H         1 UNK         0.0000 
     51 H51         4.2627   54.3391   21.9029 H         1 UNK         0.0000 
     52 H52         7.8390   55.3692   22.4377 H         1 UNK         0.0000 
     53 H53         9.2288   56.0123   20.5932 H         1 UNK         0.0000 
     54 H54         5.9772   55.2537   17.8590 H         1 UNK         0.0000 
     55 H55         4.5764   54.5809   19.7254 H         1 UNK         0.0000 
     56 H56        10.2614   56.0951   19.0248 H         1 UNK         0.0000 
     57 H57        10.8592   57.6601   16.8911 H         1 UNK         0.0000 
     58 H58        13.0856   56.4328   16.7897 H         1 UNK         0.0000 
     59 H59        12.3701   55.0345   17.6884 H         1 UNK         0.0000 
     60 H60        10.6120   54.7345   15.8239 H         1 UNK         0.0000 
     61 H61        11.3222   56.1353   14.9256 H         1 UNK         0.0000 
@<TRIPOS>BOND
     1    1    2 1    
     2    1   35 1    
     3    1   36 1    
     4    1   37 1    
     5    2    6 1    
     6    2    3 2    
     7    3    4 1    
     8    3   38 1    
     9    4    5 2    
    10    4    8 1    
    11    5    6 1    
    12    5    7 1    
    13    7   39 1    
    14    7   40 1    
    15    7   41 1    
    16    8   16 ar   
    17    8    9 ar   
    18    9   10 ar   
    19    9   42 1    
    20   10   11 ar   
    21   10   20 1    
    22   11   15 ar   
    23   11   12 ar   
    24   12   13 ar   
    25   12   43 1    
    26   13   14 ar   
    27   14   15 ar   
    28   14   17 1    
    29   15   16 ar   
    30   17   18 1    
    31   17   19 1    
    32   17   44 1    
    33   18   45 1    
    34   18   46 1    
    35   18   47 1    
    36   19   48 1    
    37   19   49 1    
    38   19   50 1    
    39   20   21 2    
    40   20   22 am   BACKBONE|DICT|INTERRES
    41   22   23 1    
    42   22   51 1    
    43   23   28 ar   
    44   23   24 ar   
    45   24   25 ar   
    46   24   52 1    
    47   25   26 ar   
    48   25   53 1    
    49   26   27 ar   
    50   26   29 1    
    51   27   28 ar   
    52   27   54 1    
    53   28   55 1    
    54   29   30 2    
    55   29   31 am   BACKBONE|DICT|INTERRES
    56   31   32 1    
    57   31   56 1    
    58   32   34 1    
    59   32   33 1    
    60   32   57 1    
    61   33   34 1    
    62   33   58 1    
    63   33   59 1    
    64   34   60 1    
    65   34   61 1    
@<TRIPOS>SUBSTRUCTURE
     1 UNK         1 GROUP             0       ****    0 ROOT    
