ZINC67133353_1510
                    3D
 Schrodinger Suite 2024-2.
 44 47  0  0  1  0            999 V2000
    2.7493   54.0722   23.6144 C   0  0  0  0  0  0
    4.2711   54.0986   23.6043 C   0  0  0  0  0  0
    5.2268   54.2866   24.6209 C   0  0  0  0  0  0
    6.4313   54.3649   24.0880 N   0  0  0  0  0  0
    6.3208   54.1616   22.7340 N   0  0  0  0  0  0
    5.0294   53.9776   22.4544 N   0  0  0  0  0  0
    4.6355   53.7453   21.1148 C   0  0  0  0  0  0
    5.1049   54.6154   20.1226 C   0  0  0  0  0  0
    4.7397   54.4558   18.7922 C   0  0  0  0  0  0
    3.9058   53.4128   18.4080 C   0  0  0  0  0  0
    3.4314   52.4914   19.3689 C   0  0  0  0  0  0
    3.8010   52.6413   20.7434 C   0  0  0  0  0  0
    3.3968   51.7298   21.6797 N   0  0  0  0  0  0
    2.6228   50.6869   21.2964 C   0  0  0  0  0  0
    2.2113   50.4826   19.9845 C   0  0  0  0  0  0
    2.6144   51.3895   19.0090 C   0  0  0  0  0  0
    4.9671   54.5181   26.0131 C   0  0  0  0  0  0
    5.6611   55.2953   26.6738 O   0  0  0  0  0  0
    3.9752   53.7523   26.4990 N   0  0  0  0  0  0
    3.3167   54.1537   27.6561 N   0  0  0  0  0  0
    3.4260   53.3570   28.7389 C   0  0  0  0  0  0
    4.3003   52.4969   28.8833 O   0  0  0  0  0  0
    2.3564   53.5337   29.7931 C   0  0  0  0  0  0
    1.5417   54.6769   29.8623 C   0  0  0  0  0  0
    0.5246   54.7497   30.8123 C   0  0  0  0  0  0
    0.3031   53.6834   31.6797 C   0  0  0  0  0  0
    1.1033   52.5486   31.6283 C   0  0  0  0  0  0
    2.1384   52.4929   30.7029 C   0  0  0  0  0  0
    2.3595   53.0707   23.7944 H   0  0  0  0  0  0
    2.3380   54.7177   24.3902 H   0  0  0  0  0  0
    2.3244   54.4239   22.6721 H   0  0  0  0  0  0
    5.7491   55.4431   20.3840 H   0  0  0  0  0  0
    5.1091   55.1475   18.0492 H   0  0  0  0  0  0
    3.6340   53.2831   17.3702 H   0  0  0  0  0  0
    2.3387   49.9923   22.0738 H   0  0  0  0  0  0
    1.6075   49.6271   19.7215 H   0  0  0  0  0  0
    2.3439   51.2387   17.9734 H   0  0  0  0  0  0
    3.3910   53.1879   25.8979 H   0  0  0  0  0  0
    2.4319   54.5765   27.4270 H   0  0  0  0  0  0
    1.6827   55.5150   29.1948 H   0  0  0  0  0  0
   -0.0954   55.6296   30.8815 H   0  0  0  0  0  0
   -0.4948   53.7295   32.4084 H   0  0  0  0  0  0
    0.9240   51.7277   32.3100 H   0  0  0  0  0  0
    2.7721   51.6245   30.6820 H   0  0  0  0  0  0
  1  2  1  0  0  0
  1 29  1  0  0  0
  1 30  1  0  0  0
  1 31  1  0  0  0
  2  6  1  0  0  0
  2  3  2  0  0  0
  3  4  1  0  0  0
  3 17  1  0  0  0
  4  5  2  0  0  0
  5  6  1  0  0  0
  6  7  1  0  0  0
  7 12  2  0  0  0
  7  8  1  0  0  0
  8  9  2  0  0  0
  8 32  1  0  0  0
  9 10  1  0  0  0
  9 33  1  0  0  0
 10 11  2  0  0  0
 10 34  1  0  0  0
 11 16  1  0  0  0
 11 12  1  0  0  0
 12 13  1  0  0  0
 13 14  2  0  0  0
 14 15  1  0  0  0
 14 35  1  0  0  0
 15 16  2  0  0  0
 15 36  1  0  0  0
 16 37  1  0  0  0
 17 18  2  0  0  0
 17 19  1  0  0  0
 19 20  1  0  0  0
 19 38  1  0  0  0
 20 21  1  0  0  0
 20 39  1  0  0  0
 21 22  2  0  0  0
 21 23  1  0  0  0
 23 28  2  0  0  0
 23 24  1  0  0  0
 24 25  2  0  0  0
 24 40  1  0  0  0
 25 26  1  0  0  0
 25 41  1  0  0  0
 26 27  2  0  0  0
 26 42  1  0  0  0
 27 28  1  0  0  0
 27 43  1  0  0  0
 28 44  1  0  0  0
M  END
> <i_i_glide_confnum>
72

> <i_i_glide_lignum>
1511

> <i_i_glide_posenum>
136

> <i_i_glide_rotatable_bonds>
6

> <i_m_Source_File_Index>
4502

> <b_m_subgroup_collapsed>
0

> <r_i_docking_score>
-5.21499

> <r_i_glide_ecoul>
-1.43963

> <r_i_glide_eff_state_penalty>
0

> <r_i_glide_einternal>
9.18134

> <r_i_glide_emodel>
-57.5702

> <r_i_glide_energy>
-46.7405

> <r_i_glide_erotb>
0.696399

> <r_i_glide_esite>
0

> <r_i_glide_evdw>
-45.3009

> <r_i_glide_gscore>
-5.21499

> <r_i_glide_hbond>
0

> <r_i_glide_ligand_efficiency>
-0.18625

> <r_i_glide_ligand_efficiency_ln>
-1.20377

> <r_i_glide_ligand_efficiency_sa>
-0.565564

> <r_i_glide_lipo>
-1.55108

> <r_i_glide_metal>
0

> <r_i_glide_rewards>
-1.87932

> <s_i_glide_gridfile>
wee1_glide-grid

> <s_m_Source_File>
wee1_decoys_glide_SP.sdf

> <s_m_Source_Path>
/Users/zhangxujun/Desktop

> <s_m_entry_id>
4777

> <s_m_entry_name>
wee1_decoys_glide_SP.4502

> <s_m_subgroup_title>
wee1_decoys_glide_SP

> <s_m_subgroupid>
wee1_decoys_glide_SP


$$$$
