@<TRIPOS>MOLECULE
ZINC39846398_3278
50   53    1
SMALL
USER_CHARGES


@<TRIPOS>ATOM
      1 C1          0.5303   51.2129   22.3861 C.3       1 UNK         0.0000 
      2 C2          0.0458   51.0776   23.8437 C.3       1 UNK         0.0000 
      3 C3          0.1717   49.6329   24.4214 C.3       1 UNK         0.0000 
      4 C4         -0.7395   49.6720   25.6814 C.3       1 UNK         0.0000 
      5 C5         -1.2725   51.1445   25.6683 C.3       1 UNK         0.0000 
      6 C6         -1.4481   51.4369   24.1334 C.3       1 UNK         0.0000 
      7 C7         -1.8211   52.8973   23.7291 C.3       1 UNK         0.0000 
      8 C8         -2.5004   50.5321   23.4171 C.3       1 UNK         0.0000 
      9 C9         -0.0498   51.9986   25.9977 C.ar      1 UNK         0.0000 
     10 C10         0.7427   51.9904   24.8599 C.ar      1 UNK         0.0000 
     11 N11         1.9059   52.6854   24.7839 N.ar      1 UNK         0.0000 
     12 C12         2.2863   53.3495   25.9157 C.ar      1 UNK         0.0000 
     13 C13         1.5053   53.3024   27.1002 C.ar      1 UNK         0.0000 
     14 N14         0.3237   52.6226   27.1455 N.ar      1 UNK         0.0000 
     15 C15         1.8547   53.9684   28.3541 C.1       1 UNK         0.0000 
     16 N16         2.1324   54.4960   29.3469 N.1       1 UNK         0.0000 
     17 C17         3.5363   54.0954   25.7826 C.1       1 UNK         0.0000 
     18 N18         4.5258   54.6871   25.6798 N.1       1 UNK         0.0000 
     19 C19        -2.5045   51.4521   26.5697 C.2       1 UNK         0.0000 
     20 O20        -3.0648   52.5482   26.4819 O.2       1 UNK         0.0000 
     21 N21        -2.8782   50.4967   27.4407 N.am      1 UNK         0.0000 
     22 N22        -3.7342   50.7947   28.4960 N.am      1 UNK         0.0000 
     23 C23        -4.9241   50.1553   28.5221 C.2       1 UNK         0.0000 
     24 O24        -5.3962   49.5187   27.5741 O.2       1 UNK         0.0000 
     25 C25        -5.7069   50.2849   29.8086 C.ar      1 UNK         0.0000 
     26 C26        -5.0569   50.3667   31.0512 C.ar      1 UNK         0.0000 
     27 C27        -5.7994   50.4353   32.2269 C.ar      1 UNK         0.0000 
     28 C28        -7.1892   50.4213   32.1758 C.ar      1 UNK         0.0000 
     29 C29        -7.8471   50.3405   30.9511 C.ar      1 UNK         0.0000 
     30 C30        -7.1085   50.2690   29.7723 C.ar      1 UNK         0.0000 
     31 Br31       -8.1931   50.5010   33.7921 Br        1 UNK         0.0000 
     32 H32        -0.0544   50.5868   21.7123 H         1 UNK         0.0000 
     33 H33         0.4579   52.2416   22.0319 H         1 UNK         0.0000 
     34 H34         1.5735   50.9096   22.2915 H         1 UNK         0.0000 
     35 H35        -0.1718   48.8793   23.7115 H         1 UNK         0.0000 
     36 H36         1.2035   49.3775   24.6713 H         1 UNK         0.0000 
     37 H37        -1.5371   48.9302   25.6134 H         1 UNK         0.0000 
     38 H38        -0.1758   49.4398   26.5879 H         1 UNK         0.0000 
     39 H39        -2.8397   53.1526   24.0204 H         1 UNK         0.0000 
     40 H40        -1.1658   53.6504   24.1627 H         1 UNK         0.0000 
     41 H41        -1.7726   53.0185   22.6478 H         1 UNK         0.0000 
     42 H42        -3.5097   50.7685   23.7565 H         1 UNK         0.0000 
     43 H43        -2.4816   50.6829   22.3372 H         1 UNK         0.0000 
     44 H44        -2.3654   49.4649   23.5801 H         1 UNK         0.0000 
     45 H45        -2.3143   49.6694   27.6307 H         1 UNK         0.0000 
     46 H46        -3.2118   50.9331   29.3482 H         1 UNK         0.0000 
     47 H47        -3.9770   50.3522   31.1291 H         1 UNK         0.0000 
     48 H48        -5.2956   50.4951   33.1822 H         1 UNK         0.0000 
     49 H49        -8.9263   50.3224   30.9150 H         1 UNK         0.0000 
     50 H50        -7.6335   50.1906   28.8296 H         1 UNK         0.0000 
@<TRIPOS>BOND
     1    1    2 1    
     2    1   32 1    
     3    1   33 1    
     4    1   34 1    
     5    2    6 1    
     6    2   10 1    
     7    2    3 1    
     8    3    4 1    
     9    3   35 1    
    10    3   36 1    
    11    4    5 1    
    12    4   37 1    
    13    4   38 1    
    14    5    6 1    
    15    5    9 1    
    16    5   19 1    
    17    6    7 1    
    18    6    8 1    
    19    7   39 1    
    20    7   40 1    
    21    7   41 1    
    22    8   42 1    
    23    8   43 1    
    24    8   44 1    
    25    9   14 ar   
    26    9   10 ar   
    27   10   11 ar   
    28   11   12 ar   
    29   12   13 ar   
    30   12   17 1    
    31   13   14 ar   
    32   13   15 1    
    33   15   16 3    
    34   17   18 3    
    35   19   20 2    
    36   19   21 am   BACKBONE|DICT|INTERRES
    37   21   22 1    
    38   21   45 1    
    39   22   23 am   BACKBONE|DICT|INTERRES
    40   22   46 1    
    41   23   24 2    
    42   23   25 1    
    43   25   30 ar   
    44   25   26 ar   
    45   26   27 ar   
    46   26   47 1    
    47   27   28 ar   
    48   27   48 1    
    49   28   29 ar   
    50   28   31 1    
    51   29   30 ar   
    52   29   49 1    
    53   30   50 1    
@<TRIPOS>SUBSTRUCTURE
     1 UNK         1 GROUP             0       ****    0 ROOT    
