@<TRIPOS>MOLECULE
ZINC12181439_155
66   70    1
SMALL
USER_CHARGES


@<TRIPOS>ATOM
      1 C1          5.3617   53.2518   28.4194 C.3       1 UNK         0.0000 
      2 C2          4.4813   54.3337   27.7696 C.3       1 UNK         0.0000 
      3 H3          4.8125   55.2959   28.1610 H         1 UNK         0.0000 
      4 C4          3.0295   54.1501   28.2088 C.ar      1 UNK         0.0000 
      5 C5          2.4987   54.9692   29.2117 C.ar      1 UNK         0.0000 
      6 C6          1.2075   54.7498   29.6821 C.ar      1 UNK         0.0000 
      7 C7          0.4456   53.7145   29.1469 C.ar      1 UNK         0.0000 
      8 C8          0.9517   52.9112   28.1280 C.ar      1 UNK         0.0000 
      9 C9          2.2433   53.1325   27.6568 C.ar      1 UNK         0.0000 
     10 N10         4.6252   54.3756   26.3104 N.am      1 UNK         0.0000 
     11 C11         5.7221   54.7853   25.6439 C.2       1 UNK         0.0000 
     12 O12         6.7139   55.2373   26.2200 O.2       1 UNK         0.0000 
     13 C13         5.6865   54.6950   24.1313 C.ar      1 UNK         0.0000 
     14 C14         6.7042   55.2968   23.3828 C.ar      1 UNK         0.0000 
     15 C15         6.6892   55.2644   21.9912 C.ar      1 UNK         0.0000 
     16 C16         5.6715   54.5881   21.3029 C.ar      1 UNK         0.0000 
     17 C17         4.6563   53.9782   22.0514 C.ar      1 UNK         0.0000 
     18 C18         4.6552   54.0378   23.4435 C.ar      1 UNK         0.0000 
     19 N19         5.6860   54.4634   19.9135 N.pl3     1 UNK         0.0000 
     20 C20         4.4753   54.6048   19.0815 C.3       1 UNK         0.0000 
     21 C21         4.4695   53.6144   17.8916 C.3       1 UNK         0.0000 
     22 C22         5.7284   53.7274   17.0070 C.3       1 UNK         0.0000 
     23 C23         6.9676   53.6807   17.9163 C.3       1 UNK         0.0000 
     24 C24         6.9000   54.6640   19.1013 C.3       1 UNK         0.0000 
     25 C25         4.9233   52.5045   14.8380 C.3       1 UNK         0.0000 
     26 C26         5.3840   51.4809   13.8125 C.ar      1 UNK         0.0000 
     27 C27         6.4942   51.7625   12.9897 C.ar      1 UNK         0.0000 
     28 C28         6.9596   50.8212   12.0604 C.ar      1 UNK         0.0000 
     29 C29         6.2858   49.6080   11.9804 C.ar      1 UNK         0.0000 
     30 C30         5.1942   49.3402   12.7591 C.ar      1 UNK         0.0000 
     31 C31         4.7060   50.2576   13.6818 C.ar      1 UNK         0.0000 
     32 O32         4.7162   48.1067   12.4511 O.3       1 UNK         0.0000 
     33 C33         5.7165   47.5191   11.6701 C.3       1 UNK         0.0000 
     34 O34         6.5276   48.5460   11.1648 O.3       1 UNK         0.0000 
     35 H35         5.1044   53.1297   29.4714 H         1 UNK         0.0000 
     36 H36         5.2082   52.2867   27.9439 H         1 UNK         0.0000 
     37 H37         6.4225   53.4921   28.3494 H         1 UNK         0.0000 
     38 H38         3.0912   55.7628   29.6419 H         1 UNK         0.0000 
     39 H39         0.8017   55.3723   30.4667 H         1 UNK         0.0000 
     40 H40        -0.5488   53.5318   29.5256 H         1 UNK         0.0000 
     41 H41         0.3515   52.1118   27.7173 H         1 UNK         0.0000 
     42 H42         2.6446   52.4949   26.8835 H         1 UNK         0.0000 
     43 H43         3.7903   54.1843   25.7813 H         1 UNK         0.0000 
     44 H44         7.5045   55.8261   23.8773 H         1 UNK         0.0000 
     45 H45         7.4910   55.7541   21.4600 H         1 UNK         0.0000 
     46 H46         3.8658   53.4311   21.5600 H         1 UNK         0.0000 
     47 H47         3.8509   53.5438   23.9703 H         1 UNK         0.0000 
     48 H48         3.5687   54.4477   19.6668 H         1 UNK         0.0000 
     49 H49         4.4265   55.6339   18.7212 H         1 UNK         0.0000 
     50 H50         4.3902   52.6072   18.3090 H         1 UNK         0.0000 
     51 H51         3.5653   53.7102   17.2883 H         1 UNK         0.0000 
     52 H52         5.7343   54.6712   16.4571 H         1 UNK         0.0000 
     53 H53         7.8759   53.8278   17.3295 H         1 UNK         0.0000 
     54 H54         7.0925   52.6792   18.3300 H         1 UNK         0.0000 
     55 H55         6.9331   55.6997   18.7579 H         1 UNK         0.0000 
     56 H56         7.7937   54.5020   19.7040 H         1 UNK         0.0000 
     57 H57         3.9093   52.3271   15.2036 H         1 UNK         0.0000 
     58 H58         4.9864   53.5167   14.4340 H         1 UNK         0.0000 
     59 H59         7.0079   52.7094   13.0762 H         1 UNK         0.0000 
     60 H60         7.8162   51.0359   11.4386 H         1 UNK         0.0000 
     61 H61         3.8531   50.0223   14.3036 H         1 UNK         0.0000 
     62 H62         5.2871   46.9018   10.8819 H         1 UNK         0.0000 
     63 H63         6.3078   46.8747   12.3198 H         1 UNK         0.0000 
     64 N64         5.8222   52.4971   16.0837 N.4       1 UNK         0.0000 
     65 H65         6.7827   52.4002   15.7889 H         1 UNK         0.0000 
     66 H66         5.6338   51.6724   16.6503 H         1 UNK         0.0000 
@<TRIPOS>BOND
     1    1    2 1    
     2    1   35 1    
     3    1   36 1    
     4    1   37 1    
     5    2    3 1    
     6    2    4 1    
     7    2   10 1    
     8    4    9 ar   
     9    4    5 ar   
    10    5    6 ar   
    11    5   38 1    
    12    6    7 ar   
    13    6   39 1    
    14    7    8 ar   
    15    7   40 1    
    16    8    9 ar   
    17    8   41 1    
    18    9   42 1    
    19   10   11 am   BACKBONE|DICT|INTERRES
    20   10   43 1    
    21   11   12 2    
    22   11   13 1    
    23   13   18 ar   
    24   13   14 ar   
    25   14   15 ar   
    26   14   44 1    
    27   15   16 ar   
    28   15   45 1    
    29   16   17 ar   
    30   16   19 1    
    31   17   18 ar   
    32   17   46 1    
    33   18   47 1    
    34   19   24 1    
    35   19   20 1    
    36   20   21 1    
    37   20   48 1    
    38   20   49 1    
    39   21   22 1    
    40   21   50 1    
    41   21   51 1    
    42   22   23 1    
    43   22   52 1    
    44   22   64 1    
    45   23   24 1    
    46   23   53 1    
    47   23   54 1    
    48   24   55 1    
    49   24   56 1    
    50   25   26 1    
    51   25   57 1    
    52   25   58 1    
    53   25   64 1    
    54   26   31 ar   
    55   26   27 ar   
    56   27   28 ar   
    57   27   59 1    
    58   28   29 ar   
    59   28   60 1    
    60   29   34 1    
    61   29   30 ar   
    62   30   31 ar   
    63   30   32 1    
    64   31   61 1    
    65   32   33 1    
    66   33   34 1    
    67   33   62 1    
    68   33   63 1    
    69   64   65 1    
    70   64   66 1    
@<TRIPOS>SUBSTRUCTURE
     1 UNK         1 GROUP             0       ****    0 ROOT    
