@<TRIPOS>MOLECULE
ZINC25468289_2259
60   62    1
SMALL
USER_CHARGES


@<TRIPOS>ATOM
      1 C1         -3.4440   50.5141   26.1435 C.3       1 UNK         0.0000 
      2 C2         -2.2176   50.9563   26.9179 C.ar      1 UNK         0.0000 
      3 C3         -0.9751   51.0156   26.2854 C.ar      1 UNK         0.0000 
      4 C4          0.1500   51.4086   27.0039 C.ar      1 UNK         0.0000 
      5 C5          0.0285   51.7492   28.3520 C.ar      1 UNK         0.0000 
      6 C6         -1.2105   51.6964   28.9864 C.ar      1 UNK         0.0000 
      7 C7         -2.3344   51.2963   28.2672 C.ar      1 UNK         0.0000 
      8 S8          1.4652   52.3406   29.2317 S.o2      1 UNK         0.0000 
      9 O9          2.5711   51.4575   28.8537 O.2       1 UNK         0.0000 
     10 O10         1.1069   52.5316   30.6417 O.2       1 UNK         0.0000 
     11 N11         1.7184   53.9479   28.5141 N.pl3     1 UNK         0.0000 
     12 C12         0.5949   54.8963   28.6422 C.3       1 UNK         0.0000 
     13 C13         1.1054   56.0215   29.5263 C.3       1 UNK         0.0000 
     14 C14         2.5726   55.7556   29.6954 C.3       1 UNK         0.0000 
     15 C15         2.9717   54.7594   28.5995 C.3       1 UNK         0.0000 
     16 H16         3.1373   55.2983   27.6688 H         1 UNK         0.0000 
     17 C17         4.2417   53.9661   28.9827 C.2       1 UNK         0.0000 
     18 O18         4.2905   53.4276   30.0819 O.2       1 UNK         0.0000 
     19 N19         5.3189   53.9040   28.1836 N.am      1 UNK         0.0000 
     20 C20         5.4256   54.2736   26.8433 C.ar      1 UNK         0.0000 
     21 C21         6.5745   54.9604   26.4616 C.ar      1 UNK         0.0000 
     22 C22         6.7720   55.2939   25.1237 C.ar      1 UNK         0.0000 
     23 C23         5.8548   54.8953   24.1578 C.ar      1 UNK         0.0000 
     24 C24         4.7076   54.1770   24.5261 C.ar      1 UNK         0.0000 
     25 C25         4.4828   53.8943   25.8777 C.ar      1 UNK         0.0000 
     26 N26         3.7652   53.6977   23.6005 N.am      1 UNK         0.0000 
     27 C27         3.9930   53.2919   22.3294 C.2       1 UNK         0.0000 
     28 O28         5.1037   53.3337   21.7974 O.2       1 UNK         0.0000 
     29 C29         2.8161   52.6060   21.5681 C.3       1 UNK         0.0000 
     30 C30         1.4333   53.0999   22.0724 C.3       1 UNK         0.0000 
     31 C31         2.8903   51.0716   21.7618 C.3       1 UNK         0.0000 
     32 C32         2.9490   52.8989   20.0466 C.3       1 UNK         0.0000 
     33 H33        -3.3223   50.6820   25.0730 H         1 UNK         0.0000 
     34 H34        -3.6371   49.4549   26.3193 H         1 UNK         0.0000 
     35 H35        -4.3218   51.0805   26.4559 H         1 UNK         0.0000 
     36 H36        -0.8764   50.7451   25.2450 H         1 UNK         0.0000 
     37 H37         1.1091   51.4563   26.5117 H         1 UNK         0.0000 
     38 H38        -1.2970   51.9388   30.0355 H         1 UNK         0.0000 
     39 H39        -3.2891   51.2277   28.7676 H         1 UNK         0.0000 
     40 H40        -0.3451   54.4258   28.9200 H         1 UNK         0.0000 
     41 H41         0.3874   55.3340   27.6819 H         1 UNK         0.0000 
     42 H42         0.5987   56.0348   30.4923 H         1 UNK         0.0000 
     43 H43         0.9420   56.9888   29.0558 H         1 UNK         0.0000 
     44 H44         2.7053   55.3211   30.6752 H         1 UNK         0.0000 
     45 H45         3.1209   56.6940   29.6725 H         1 UNK         0.0000 
     46 H46         6.1645   53.5694   28.6198 H         1 UNK         0.0000 
     47 H47         7.2986   55.2541   27.2099 H         1 UNK         0.0000 
     48 H48         7.6433   55.8518   24.8175 H         1 UNK         0.0000 
     49 H49         6.0458   55.1540   23.1263 H         1 UNK         0.0000 
     50 H50         3.6165   53.3176   26.1717 H         1 UNK         0.0000 
     51 H51         2.8485   53.5059   23.9714 H         1 UNK         0.0000 
     52 H52         0.6247   52.7410   21.4347 H         1 UNK         0.0000 
     53 H53         1.3771   54.1870   22.0822 H         1 UNK         0.0000 
     54 H54         1.2147   52.7550   23.0843 H         1 UNK         0.0000 
     55 H55         3.8687   50.6757   21.4851 H         1 UNK         0.0000 
     56 H56         2.6913   50.7765   22.7931 H         1 UNK         0.0000 
     57 H57         2.1574   50.5583   21.1391 H         1 UNK         0.0000 
     58 H58         3.7965   52.3700   19.6049 H         1 UNK         0.0000 
     59 H59         2.0624   52.5861   19.4939 H         1 UNK         0.0000 
     60 H60         3.1064   53.9574   19.8387 H         1 UNK         0.0000 
@<TRIPOS>BOND
     1    1    2 1    
     2    1   33 1    
     3    1   34 1    
     4    1   35 1    
     5    2    7 ar   
     6    2    3 ar   
     7    3    4 ar   
     8    3   36 1    
     9    4    5 ar   
    10    4   37 1    
    11    5    6 ar   
    12    5    8 1    
    13    6    7 ar   
    14    6   38 1    
    15    7   39 1    
    16    8    9 2    
    17    8   10 2    
    18    8   11 1    
    19   11   15 1    
    20   11   12 1    
    21   12   13 1    
    22   12   40 1    
    23   12   41 1    
    24   13   14 1    
    25   13   42 1    
    26   13   43 1    
    27   14   15 1    
    28   14   44 1    
    29   14   45 1    
    30   15   16 1    
    31   15   17 1    
    32   17   18 2    
    33   17   19 am   BACKBONE|DICT|INTERRES
    34   19   20 1    
    35   19   46 1    
    36   20   25 ar   
    37   20   21 ar   
    38   21   22 ar   
    39   21   47 1    
    40   22   23 ar   
    41   22   48 1    
    42   23   24 ar   
    43   23   49 1    
    44   24   25 ar   
    45   24   26 1    
    46   25   50 1    
    47   26   27 am   BACKBONE|DICT|INTERRES
    48   26   51 1    
    49   27   28 2    
    50   27   29 1    
    51   29   30 1    
    52   29   31 1    
    53   29   32 1    
    54   30   52 1    
    55   30   53 1    
    56   30   54 1    
    57   31   55 1    
    58   31   56 1    
    59   31   57 1    
    60   32   58 1    
    61   32   59 1    
    62   32   60 1    
@<TRIPOS>SUBSTRUCTURE
     1 UNK         1 GROUP             0       ****    0 ROOT    
