@<TRIPOS>MOLECULE
ZINC09310310_1956
37   39    1
SMALL
USER_CHARGES


@<TRIPOS>ATOM
      1 C1          0.9815   49.7610   23.4123 C.ar      1 UNK         0.0000 
      2 C2          0.0634   48.8727   23.9720 C.ar      1 UNK         0.0000 
      3 C3         -0.8954   48.2363   23.1674 C.ar      1 UNK         0.0000 
      4 C4         -0.9388   48.5433   21.8003 C.ar      1 UNK         0.0000 
      5 C5         -0.0212   49.4298   21.2424 C.ar      1 UNK         0.0000 
      6 C6          0.9497   50.0342   22.0417 C.ar      1 UNK         0.0000 
      7 C7          1.9899   50.9378   21.3842 C.3       1 UNK         0.0000 
      8 O8          2.4969   51.9094   22.2995 O.3       1 UNK         0.0000 
      9 C9          3.5263   52.7537   21.9036 C.ar      1 UNK         0.0000 
     10 C10         4.0786   52.7350   20.6090 C.ar      1 UNK         0.0000 
     11 C11         5.1040   53.6098   20.2580 C.ar      1 UNK         0.0000 
     12 C12         5.6104   54.4965   21.2029 C.ar      1 UNK         0.0000 
     13 C13         5.0961   54.4967   22.4937 C.ar      1 UNK         0.0000 
     14 C14         4.0369   53.6617   22.8554 C.ar      1 UNK         0.0000 
     15 C15         3.3991   53.7342   24.1970 C.2       1 UNK         0.0000 
     16 C16         3.8540   53.9314   25.4614 C.2       1 UNK         0.0000 
     17 C17         5.2544   54.0969   25.8357 C.2       1 UNK         0.0000 
     18 O18         6.2908   54.1216   25.1718 O.2       1 UNK         0.0000 
     19 N19         5.1924   54.2013   27.1637 N.am      1 UNK         0.0000 
     20 C20         3.9218   54.0876   27.5352 C.2       1 UNK         0.0000 
     21 S21         3.5504   54.0971   29.2816 S.3       1 UNK         0.0000 
     22 N22         3.1095   53.9656   26.5880 N.2       1 UNK         0.0000 
     23 Br23        7.0163   55.6969   20.7469 Br        1 UNK         0.0000 
     24 N24        -1.8117   47.2167   23.7359 N.pl3     1 UNK         0.0000 
     25 O25        -2.7031   46.7636   23.0213 O.co2     1 UNK         0.0000 
     26 O26        -1.6230   46.8232   24.8817 O.co2     1 UNK         0.0000 
     27 H27         1.7351   50.2107   24.0428 H         1 UNK         0.0000 
     28 H28         0.1266   48.6529   25.0299 H         1 UNK         0.0000 
     29 H29        -1.6647   48.0730   21.1533 H         1 UNK         0.0000 
     30 H30        -0.0561   49.6299   20.1812 H         1 UNK         0.0000 
     31 H31         1.5405   51.4486   20.5298 H         1 UNK         0.0000 
     32 H32         2.7949   50.2987   21.0150 H         1 UNK         0.0000 
     33 H33         3.7228   52.0548   19.8493 H         1 UNK         0.0000 
     34 H34         5.5092   53.5891   19.2563 H         1 UNK         0.0000 
     35 H35         5.5053   55.2057   23.1959 H         1 UNK         0.0000 
     36 H36         2.3247   53.6259   24.1437 H         1 UNK         0.0000 
     37 H37         5.9827   54.3126   27.7776 H         1 UNK         0.0000 
@<TRIPOS>BOND
     1    1    6 ar   
     2    1    2 ar   
     3    1   27 1    
     4    2    3 ar   
     5    2   28 1    
     6    3    4 ar   
     7    3   24 1    
     8    4    5 ar   
     9    4   29 1    
    10    5    6 ar   
    11    5   30 1    
    12    6    7 1    
    13    7    8 1    
    14    7   31 1    
    15    7   32 1    
    16    8    9 1    
    17    9   14 ar   
    18    9   10 ar   
    19   10   11 ar   
    20   10   33 1    
    21   11   12 ar   
    22   11   34 1    
    23   12   13 ar   
    24   12   23 1    
    25   13   14 ar   
    26   13   35 1    
    27   14   15 1    
    28   15   16 2    
    29   15   36 1    
    30   16   22 1    
    31   16   17 1    
    32   17   18 2    
    33   17   19 am   BACKBONE|DICT|INTERRES
    34   19   20 am   BACKBONE|DICT|INTERRES
    35   19   37 1    
    36   20   21 1    
    37   20   22 2    
    38   24   25 2    
    39   24   26 1    
@<TRIPOS>SUBSTRUCTURE
     1 UNK         1 GROUP             0       ****    0 ROOT    
