@<TRIPOS>MOLECULE
ZINC37359407_5096
66   71    1
SMALL
USER_CHARGES


@<TRIPOS>ATOM
      1 C1          5.3103   53.8643   28.2461 C.ar      1 UNK         0.0000 
      2 C2          4.7135   54.5768   29.2792 C.ar      1 UNK         0.0000 
      3 C3          3.3606   54.8972   29.2157 C.ar      1 UNK         0.0000 
      4 C4          2.6084   54.5386   28.1031 C.ar      1 UNK         0.0000 
      5 C5          3.1975   53.8381   27.0325 C.ar      1 UNK         0.0000 
      6 C6          4.5510   53.4870   27.1403 C.ar      1 UNK         0.0000 
      7 C7          2.4081   53.4302   25.8360 C.ar      1 UNK         0.0000 
      8 C8          2.8421   53.5248   24.4945 C.ar      1 UNK         0.0000 
      9 C9          3.9718   53.9680   23.7501 C.ar      1 UNK         0.0000 
     10 N10         3.7009   53.6917   22.4102 N.pl3     1 UNK         0.0000 
     11 N11         2.4870   53.1055   22.2393 N.2       1 UNK         0.0000 
     12 C12         1.9621   53.0102   23.4937 C.ar      1 UNK         0.0000 
     13 N13         0.7682   52.4687   23.7693 N.ar      1 UNK         0.0000 
     14 C14         0.4151   52.4578   25.0865 C.ar      1 UNK         0.0000 
     15 N15         1.1935   52.8943   26.1080 N.ar      1 UNK         0.0000 
     16 N16        -0.8013   51.8843   25.4617 N.pl3     1 UNK         0.0000 
     17 C17        -1.5476   52.3989   26.6266 C.3       1 UNK         0.0000 
     18 C18        -2.2925   51.2957   27.3811 C.3       1 UNK         0.0000 
     19 C19        -3.2610   50.4817   26.4965 C.3       1 UNK         0.0000 
     20 C20        -2.5473   50.1165   25.1670 C.3       1 UNK         0.0000 
     21 C21        -1.7547   51.2781   24.5171 C.3       1 UNK         0.0000 
     22 N22        -3.6957   49.2040   27.2818 N.4       1 UNK         0.0000 
     23 C23        -4.4240   48.1521   26.3983 C.3       1 UNK         0.0000 
     24 C24        -4.7806   46.9098   27.2351 C.3       1 UNK         0.0000 
     25 C25        -5.6210   47.2622   28.4685 C.3       1 UNK         0.0000 
     26 C26        -4.8945   48.2991   29.3322 C.3       1 UNK         0.0000 
     27 C27        -4.5422   49.5688   28.5371 C.3       1 UNK         0.0000 
     28 C28         4.5292   53.8863   21.2589 C.ar      1 UNK         0.0000 
     29 C29         4.3690   53.0815   20.1165 C.ar      1 UNK         0.0000 
     30 C30         5.1446   53.2965   18.9758 C.ar      1 UNK         0.0000 
     31 C31         6.0905   54.3183   18.9527 C.ar      1 UNK         0.0000 
     32 C32         6.2676   55.1198   20.0760 C.ar      1 UNK         0.0000 
     33 C33         5.5038   54.8957   21.2211 C.ar      1 UNK         0.0000 
     34 F34         7.1789   56.1179   20.0651 F         1 UNK         0.0000 
     35 N35         5.1327   54.4942   24.2543 N.pl3     1 UNK         0.0000 
     36 F36         1.3017   54.8963   28.0820 F         1 UNK         0.0000 
     37 H37         6.3581   53.6061   28.2984 H         1 UNK         0.0000 
     38 H38         5.3160   54.9098   30.1065 H         1 UNK         0.0000 
     39 H39         2.8943   55.4587   30.0102 H         1 UNK         0.0000 
     40 H40         5.0230   52.8968   26.3694 H         1 UNK         0.0000 
     41 H41        -0.8926   52.8896   27.3459 H         1 UNK         0.0000 
     42 H42        -2.2435   53.1681   26.2838 H         1 UNK         0.0000 
     43 H43        -1.5378   50.6312   27.8078 H         1 UNK         0.0000 
     44 H44        -2.7974   51.7069   28.2519 H         1 UNK         0.0000 
     45 H45        -4.1209   51.1122   26.2554 H         1 UNK         0.0000 
     46 H46        -3.2545   49.7004   24.4503 H         1 UNK         0.0000 
     47 H47        -1.8347   49.3081   25.3452 H         1 UNK         0.0000 
     48 H48        -2.4198   52.0496   24.1245 H         1 UNK         0.0000 
     49 H49        -1.2141   50.8618   23.6677 H         1 UNK         0.0000 
     50 H50        -5.2961   48.6415   25.9568 H         1 UNK         0.0000 
     51 H51        -3.7299   47.8340   25.6211 H         1 UNK         0.0000 
     52 H52        -5.3216   46.1950   26.6140 H         1 UNK         0.0000 
     53 H53        -3.8616   46.4063   27.5469 H         1 UNK         0.0000 
     54 H54        -5.8223   46.3673   29.0581 H         1 UNK         0.0000 
     55 H55        -6.5948   47.6487   28.1617 H         1 UNK         0.0000 
     56 H56        -3.9750   47.8685   29.7390 H         1 UNK         0.0000 
     57 H57        -5.5074   48.5659   30.1951 H         1 UNK         0.0000 
     58 H58        -3.9257   50.1863   29.1912 H         1 UNK         0.0000 
     59 H59        -5.4203   50.1272   28.2015 H         1 UNK         0.0000 
     60 H60         3.6452   52.2782   20.0934 H         1 UNK         0.0000 
     61 H61         5.0112   52.6576   18.1145 H         1 UNK         0.0000 
     62 H62         6.6896   54.4859   18.0685 H         1 UNK         0.0000 
     63 H63         5.6792   55.5611   22.0460 H         1 UNK         0.0000 
     64 H64         5.2232   54.6938   25.2400 H         1 UNK         0.0000 
     65 H65         5.9491   54.6573   23.6812 H         1 UNK         0.0000 
     66 H66        -2.8304   48.7776   27.6478 H         1 UNK         0.0000 
@<TRIPOS>BOND
     1    1    6 ar   
     2    1    2 ar   
     3    1   37 1    
     4    2    3 ar   
     5    2   38 1    
     6    3    4 ar   
     7    3   39 1    
     8    4    5 ar   
     9    4   36 1    
    10    5    6 ar   
    11    5    7 1    
    12    6   40 1    
    13    7   15 ar   
    14    7    8 ar   
    15    8   12 ar   
    16    8    9 ar   
    17    9   10 ar   
    18    9   35 1    
    19   10   11 ar   
    20   10   28 1    
    21   11   12 ar   
    22   12   13 ar   
    23   13   14 ar   
    24   14   15 ar   
    25   14   16 1    
    26   16   21 1    
    27   16   17 1    
    28   17   18 1    
    29   17   41 1    
    30   17   42 1    
    31   18   19 1    
    32   18   43 1    
    33   18   44 1    
    34   19   20 1    
    35   19   22 1    
    36   19   45 1    
    37   20   21 1    
    38   20   46 1    
    39   20   47 1    
    40   21   48 1    
    41   21   49 1    
    42   22   27 1    
    43   22   23 1    
    44   22   66 1    
    45   23   24 1    
    46   23   50 1    
    47   23   51 1    
    48   24   25 1    
    49   24   52 1    
    50   24   53 1    
    51   25   26 1    
    52   25   54 1    
    53   25   55 1    
    54   26   27 1    
    55   26   56 1    
    56   26   57 1    
    57   27   58 1    
    58   27   59 1    
    59   28   33 ar   
    60   28   29 ar   
    61   29   30 ar   
    62   29   60 1    
    63   30   31 ar   
    64   30   61 1    
    65   31   32 ar   
    66   31   62 1    
    67   32   33 ar   
    68   32   34 1    
    69   33   63 1    
    70   35   64 1    
    71   35   65 1    
@<TRIPOS>SUBSTRUCTURE
     1 UNK         1 GROUP             0       ****    0 ROOT    
