@<TRIPOS>MOLECULE
ZINC62824351_3852
38   40    1
SMALL
USER_CHARGES


@<TRIPOS>ATOM
      1 C1         -0.2767   51.9775   28.3132 C.3       1 UNK         0.0000 
      2 C2          0.8332   52.6761   29.1183 C.3       1 UNK         0.0000 
      3 C3          2.1693   51.9230   29.0014 C.3       1 UNK         0.0000 
      4 C4          3.2518   52.5598   29.8967 C.3       1 UNK         0.0000 
      5 C5          3.5087   54.0478   29.5363 C.3       1 UNK         0.0000 
      6 C6          2.1655   54.8430   29.4681 C.3       1 UNK         0.0000 
      7 C7          1.0516   54.1303   28.6579 C.3       1 UNK         0.0000 
      8 C8          4.3280   54.1473   28.2535 C.2       1 UNK         0.0000 
      9 N9          3.7814   54.1341   27.0546 N.2       1 UNK         0.0000 
     10 C10         4.8170   54.1791   26.2663 C.2       1 UNK         0.0000 
     11 O11         5.9930   54.2081   26.9458 O.3       1 UNK         0.0000 
     12 N12         5.6416   54.1929   28.2919 N.2       1 UNK         0.0000 
     13 C13         4.8171   54.1480   24.7653 C.ar      1 UNK         0.0000 
     14 C14         3.6468   53.7251   24.1190 C.ar      1 UNK         0.0000 
     15 C15         3.5934   53.6245   22.7313 C.ar      1 UNK         0.0000 
     16 C16         4.7045   53.9694   21.9637 C.ar      1 UNK         0.0000 
     17 C17         5.8725   54.4081   22.5891 C.ar      1 UNK         0.0000 
     18 C18         5.9319   54.4966   23.9812 C.ar      1 UNK         0.0000 
     19 N19         7.1044   54.9457   24.5820 N.pl3     1 UNK         0.0000 
     20 I20         1.8546   52.8962   21.8280 I         1 UNK         0.0000 
     21 H21        -0.0360   51.9338   27.2506 H         1 UNK         0.0000 
     22 H22        -1.2276   52.4963   28.4163 H         1 UNK         0.0000 
     23 H23        -0.4315   50.9533   28.6570 H         1 UNK         0.0000 
     24 H24         0.5424   52.6896   30.1710 H         1 UNK         0.0000 
     25 H25         2.0147   50.8873   29.2820 H         1 UNK         0.0000 
     26 H26         2.4935   51.8718   27.9610 H         1 UNK         0.0000 
     27 H27         2.8212   52.5279   30.8995 H         1 UNK         0.0000 
     28 H28         4.1768   51.9827   29.9481 H         1 UNK         0.0000 
     29 H29         4.0845   54.4741   30.3595 H         1 UNK         0.0000 
     30 H30         1.7518   54.8579   30.4772 H         1 UNK         0.0000 
     31 H31         2.3145   55.8878   29.1898 H         1 UNK         0.0000 
     32 H32         1.2803   54.1482   27.5931 H         1 UNK         0.0000 
     33 H33         0.1156   54.6758   28.7292 H         1 UNK         0.0000 
     34 H34         2.7769   53.4399   24.6941 H         1 UNK         0.0000 
     35 H35         4.6613   53.8905   20.8868 H         1 UNK         0.0000 
     36 H36         6.7289   54.6794   21.9897 H         1 UNK         0.0000 
     37 H37         7.1043   54.8489   25.5884 H         1 UNK         0.0000 
     38 H38         7.9964   54.9177   24.0812 H         1 UNK         0.0000 
@<TRIPOS>BOND
     1    1    2 1    
     2    1   21 1    
     3    1   22 1    
     4    1   23 1    
     5    2    7 1    
     6    2    3 1    
     7    2   24 1    
     8    3    4 1    
     9    3   25 1    
    10    3   26 1    
    11    4    5 1    
    12    4   27 1    
    13    4   28 1    
    14    5    6 1    
    15    5    8 1    
    16    5   29 1    
    17    6    7 1    
    18    6   30 1    
    19    6   31 1    
    20    7   32 1    
    21    7   33 1    
    22    8   12 2    
    23    8    9 1    
    24    9   10 2    
    25   10   11 1    
    26   10   13 1    
    27   11   12 1    
    28   13   18 ar   
    29   13   14 ar   
    30   14   15 ar   
    31   14   34 1    
    32   15   16 ar   
    33   15   20 1    
    34   16   17 ar   
    35   16   35 1    
    36   17   18 ar   
    37   17   36 1    
    38   18   19 1    
    39   19   37 1    
    40   19   38 1    
@<TRIPOS>SUBSTRUCTURE
     1 UNK         1 GROUP             0       ****    0 ROOT    
