@<TRIPOS>MOLECULE
ZINC31170064_3933
62   65    1
SMALL
USER_CHARGES


@<TRIPOS>ATOM
      1 C1          6.5154   54.7654   15.3659 C.3       1 UNK         0.0000 
      2 C2          6.3614   54.0033   16.6900 C.3       1 UNK         0.0000 
      3 C3          4.9305   53.4577   16.7714 C.2       1 UNK         0.0000 
      4 C4          4.2396   53.5134   17.9183 C.2       1 UNK         0.0000 
      5 C5          4.8440   54.0881   19.1156 C.ar      1 UNK         0.0000 
      6 C6          4.3063   53.8710   20.3830 C.ar      1 UNK         0.0000 
      7 C7          4.9457   54.3604   21.5270 C.ar      1 UNK         0.0000 
      8 C8          6.1490   55.0737   21.3736 C.ar      1 UNK         0.0000 
      9 C9          6.7036   55.2940   20.1054 C.ar      1 UNK         0.0000 
     10 C10         6.0530   54.7788   18.9797 C.ar      1 UNK         0.0000 
     11 O11         6.6141   54.9872   17.7265 O.3       1 UNK         0.0000 
     12 O12         7.8970   55.9683   19.9858 O.3       1 UNK         0.0000 
     13 O13         6.9021   55.5327   22.4374 O.3       1 UNK         0.0000 
     14 C14         6.3737   55.3965   23.7595 C.3       1 UNK         0.0000 
     15 C15         5.4496   54.1640   23.9979 C.3       1 UNK         0.0000 
     16 H16         6.0698   53.2828   23.8371 H         1 UNK         0.0000 
     17 C17         4.3520   54.1586   22.9083 C.3       1 UNK         0.0000 
     18 C18         4.9031   54.0219   25.4512 C.ar      1 UNK         0.0000 
     19 C19         3.5526   53.7054   25.7050 C.ar      1 UNK         0.0000 
     20 C20         3.0493   53.4416   26.9977 C.ar      1 UNK         0.0000 
     21 C21         3.9414   53.5494   28.0859 C.ar      1 UNK         0.0000 
     22 C22         5.2760   53.9109   27.8486 C.ar      1 UNK         0.0000 
     23 C23         5.7590   54.0975   26.5577 C.ar      1 UNK         0.0000 
     24 O24         7.1041   54.3023   26.4058 O.3       1 UNK         0.0000 
     25 O25         6.1481   54.0967   28.8816 O.3       1 UNK         0.0000 
     26 O26         3.4745   53.3635   29.3749 O.3       1 UNK         0.0000 
     27 C27         4.1342   52.3954   30.1933 C.3       1 UNK         0.0000 
     28 C28         1.5536   53.0500   27.2294 C.3       1 UNK         0.0000 
     29 C29         0.7460   52.8952   25.9089 C.3       1 UNK         0.0000 
     30 C30         1.4368   51.6421   27.8866 C.3       1 UNK         0.0000 
     31 C31         0.9106   54.1432   28.0958 C.2       1 UNK         0.0000 
     32 C32         0.3137   53.9908   29.2938 C.2       1 UNK         0.0000 
     33 C33         7.3400   52.8296   16.8768 C.3       1 UNK         0.0000 
     34 H34         6.3531   54.1138   14.5061 H         1 UNK         0.0000 
     35 H35         5.8082   55.5930   15.2989 H         1 UNK         0.0000 
     36 H36         7.5173   55.1851   15.2756 H         1 UNK         0.0000 
     37 H37         4.4828   52.9752   15.9157 H         1 UNK         0.0000 
     38 H38         3.2418   53.1001   17.9587 H         1 UNK         0.0000 
     39 H39         3.3815   53.3202   20.4811 H         1 UNK         0.0000 
     40 H40         8.3236   56.0877   20.8379 H         1 UNK         0.0000 
     41 H41         5.9046   56.3175   24.0833 H         1 UNK         0.0000 
     42 H42         7.2848   55.3498   24.3439 H         1 UNK         0.0000 
     43 H43         3.7973   53.2192   22.9177 H         1 UNK         0.0000 
     44 H44         3.6402   54.9653   23.0767 H         1 UNK         0.0000 
     45 H45         2.8861   53.6202   24.8672 H         1 UNK         0.0000 
     46 H46         7.3783   54.1127   25.5056 H         1 UNK         0.0000 
     47 H47         6.9368   54.5813   28.6116 H         1 UNK         0.0000 
     48 H48         4.3043   52.8245   31.1803 H         1 UNK         0.0000 
     49 H49         3.4973   51.5265   30.3410 H         1 UNK         0.0000 
     50 H50         5.0850   52.0260   29.8050 H         1 UNK         0.0000 
     51 H51         0.7733   53.7806   25.2783 H         1 UNK         0.0000 
     52 H52         1.1258   52.0725   25.3003 H         1 UNK         0.0000 
     53 H53        -0.3059   52.6796   26.1058 H         1 UNK         0.0000 
     54 H54         1.8768   51.5847   28.8754 H         1 UNK         0.0000 
     55 H55         0.3940   51.3450   28.0108 H         1 UNK         0.0000 
     56 H56         1.9007   50.8672   27.2842 H         1 UNK         0.0000 
     57 H57         0.9537   55.1405   27.6835 H         1 UNK         0.0000 
     58 H58         0.2219   53.0267   29.7724 H         1 UNK         0.0000 
     59 H59        -0.0900   54.8361   29.8285 H         1 UNK         0.0000 
     60 H60         7.2459   52.0992   16.0725 H         1 UNK         0.0000 
     61 H61         8.3726   53.1780   16.8919 H         1 UNK         0.0000 
     62 H62         7.1545   52.3040   17.8140 H         1 UNK         0.0000 
@<TRIPOS>BOND
     1    1    2 1    
     2    1   34 1    
     3    1   35 1    
     4    1   36 1    
     5    2   11 1    
     6    2    3 1    
     7    2   33 1    
     8    3    4 2    
     9    3   37 1    
    10    4    5 1    
    11    4   38 1    
    12    5   10 ar   
    13    5    6 ar   
    14    6    7 ar   
    15    6   39 1    
    16    7   17 1    
    17    7    8 ar   
    18    8    9 ar   
    19    8   13 1    
    20    9   10 ar   
    21    9   12 1    
    22   10   11 1    
    23   12   40 1    
    24   13   14 1    
    25   14   15 1    
    26   14   41 1    
    27   14   42 1    
    28   15   16 1    
    29   15   17 1    
    30   15   18 1    
    31   17   43 1    
    32   17   44 1    
    33   18   23 ar   
    34   18   19 ar   
    35   19   20 ar   
    36   19   45 1    
    37   20   21 ar   
    38   20   28 1    
    39   21   22 ar   
    40   21   26 1    
    41   22   23 ar   
    42   22   25 1    
    43   23   24 1    
    44   24   46 1    
    45   25   47 1    
    46   26   27 1    
    47   27   48 1    
    48   27   49 1    
    49   27   50 1    
    50   28   29 1    
    51   28   30 1    
    52   28   31 1    
    53   29   51 1    
    54   29   52 1    
    55   29   53 1    
    56   30   54 1    
    57   30   55 1    
    58   30   56 1    
    59   31   32 2    
    60   31   57 1    
    61   32   58 1    
    62   32   59 1    
    63   33   60 1    
    64   33   61 1    
    65   33   62 1    
@<TRIPOS>SUBSTRUCTURE
     1 UNK         1 GROUP             0       ****    0 ROOT    
