ZINC39894592_5214
                    3D
 Schrodinger Suite 2024-2.
 59 62  0  0  1  0            999 V2000
    6.4961   55.0058   25.6608 C   0  0  0  0  0  0
    5.1035   54.4334   25.4666 C   0  0  0  0  0  0
    4.5741   54.3017   24.1836 C   0  0  0  0  0  0
    3.3118   53.7430   23.9954 C   0  0  0  0  0  0
    2.5496   53.2974   25.0893 C   0  0  0  0  0  0
    3.0705   53.4579   26.3962 C   0  0  0  0  0  0
    4.3544   54.0033   26.5648 C   0  0  0  0  0  0
    2.3237   53.0014   27.6251 C   0  0  0  0  0  0
    1.9028   51.8445   27.6894 O   0  0  0  0  0  0
    1.9336   53.9960   28.6745 C   0  0  0  0  0  0
    1.1265   53.6017   29.7538 C   0  0  0  0  0  0
    0.7044   54.5376   30.6930 C   0  0  0  0  0  0
    1.1044   55.8659   30.5663 C   0  0  0  0  0  0
    1.9032   56.2668   29.5068 C   0  0  0  0  0  0
    2.3030   55.3396   28.5596 C   0  0  0  0  0  0
    1.2774   52.6989   24.9475 N   0  0  0  0  0  0
    0.4709   52.5390   23.8776 C   0  0  0  0  0  0
    0.7508   52.8954   22.7331 O   0  0  0  0  0  0
   -0.8669   51.7851   24.1224 C   0  0  2  0  0  0
   -1.5730   52.3288   23.4918 H   0  0  0  0  0  0
   -1.3772   51.9039   25.5952 C   0  0  0  0  0  0
   -0.8076   50.7976   26.4826 C   0  0  0  0  0  0
   -0.1204   49.7249   26.0356 C   0  0  0  0  0  0
    0.1234   49.3984   24.5678 C   0  0  0  0  0  0
   -0.7885   50.2932   23.6807 C   0  0  2  0  0  0
   -1.8034   49.9170   23.8339 H   0  0  0  0  0  0
   -0.7099   50.0603   22.1557 C   0  0  0  0  0  0
   -1.5788   50.5555   21.4337 O   0  0  0  0  0  0
    0.3528   49.3684   21.6931 N   0  0  0  0  0  0
    0.5716   48.8875   20.3924 C   0  0  0  0  0  0
    1.8963   48.6431   20.0249 C   0  0  0  0  0  0
    2.1820   48.0970   18.7768 C   0  0  0  0  0  0
    1.1417   47.7751   17.9057 C   0  0  0  0  0  0
   -0.1820   48.0216   18.2605 C   0  0  0  0  0  0
   -0.4700   48.5785   19.5031 C   0  0  0  0  0  0
    1.5189   46.9624   16.2268 Br  0  0  0  0  0  0
    6.9474   54.6538   26.5891 H   0  0  0  0  0  0
    7.1563   54.6910   24.8507 H   0  0  0  0  0  0
    6.4643   56.0952   25.6674 H   0  0  0  0  0  0
    5.1455   54.6228   23.3237 H   0  0  0  0  0  0
    2.9617   53.6552   22.9792 H   0  0  0  0  0  0
    4.7858   54.0973   27.5548 H   0  0  0  0  0  0
    0.8033   52.5751   29.8629 H   0  0  0  0  0  0
    0.0765   54.2328   31.5190 H   0  0  0  0  0  0
    0.7844   56.6060   31.2817 H   0  0  0  0  0  0
    2.1988   57.2971   29.4119 H   0  0  0  0  0  0
    2.8854   55.6967   27.7282 H   0  0  0  0  0  0
    0.9256   52.2934   25.8063 H   0  0  0  0  0  0
   -1.2225   52.8963   26.0167 H   0  0  0  0  0  0
   -2.4607   51.7728   25.6005 H   0  0  0  0  0  0
   -0.9434   50.8713   27.5537 H   0  0  0  0  0  0
    0.2426   49.0271   26.7776 H   0  0  0  0  0  0
   -0.0490   48.3381   24.3741 H   0  0  0  0  0  0
    1.1787   49.5777   24.3568 H   0  0  0  0  0  0
    1.0997   49.1984   22.3492 H   0  0  0  0  0  0
    2.7054   48.8705   20.7016 H   0  0  0  0  0  0
    3.2070   47.9152   18.4836 H   0  0  0  0  0  0
   -0.9833   47.7705   17.5776 H   0  0  0  0  0  0
   -1.5044   48.7382   19.7736 H   0  0  0  0  0  0
  1  2  1  0  0  0
  1 37  1  0  0  0
  1 38  1  0  0  0
  1 39  1  0  0  0
  2  7  2  0  0  0
  2  3  1  0  0  0
  3  4  2  0  0  0
  3 40  1  0  0  0
  4  5  1  0  0  0
  4 41  1  0  0  0
  5  6  2  0  0  0
  5 16  1  0  0  0
  6  7  1  0  0  0
  6  8  1  0  0  0
  7 42  1  0  0  0
  8  9  2  0  0  0
  8 10  1  0  0  0
 10 15  2  0  0  0
 10 11  1  0  0  0
 11 12  2  0  0  0
 11 43  1  0  0  0
 12 13  1  0  0  0
 12 44  1  0  0  0
 13 14  2  0  0  0
 13 45  1  0  0  0
 14 15  1  0  0  0
 14 46  1  0  0  0
 15 47  1  0  0  0
 16 17  1  0  0  0
 16 48  1  0  0  0
 17 18  2  0  0  0
 17 19  1  0  0  0
 19 20  1  0  0  0
 19 25  1  0  0  0
 19 21  1  0  0  0
 21 22  1  0  0  0
 21 49  1  0  0  0
 21 50  1  0  0  0
 22 23  2  0  0  0
 22 51  1  0  0  0
 23 24  1  0  0  0
 23 52  1  0  0  0
 24 25  1  0  0  0
 24 53  1  0  0  0
 24 54  1  0  0  0
 25 26  1  0  0  0
 25 27  1  0  0  0
 27 28  2  0  0  0
 27 29  1  0  0  0
 29 30  1  0  0  0
 29 55  1  0  0  0
 30 35  2  0  0  0
 30 31  1  0  0  0
 31 32  2  0  0  0
 31 56  1  0  0  0
 32 33  1  0  0  0
 32 57  1  0  0  0
 33 34  2  0  0  0
 33 36  1  0  0  0
 34 35  1  0  0  0
 34 58  1  0  0  0
 35 59  1  0  0  0
M  END
> <i_i_glide_confnum>
294

> <i_i_glide_lignum>
5215

> <i_i_glide_posenum>
352

> <i_i_glide_rotatable_bonds>
8

> <i_m_Source_File_Index>
2243

> <b_m_subgroup_collapsed>
0

> <r_i_docking_score>
-5.44597

> <r_i_glide_ecoul>
-2.07949

> <r_i_glide_eff_state_penalty>
0

> <r_i_glide_einternal>
14.9273

> <r_i_glide_emodel>
-55.9666

> <r_i_glide_energy>
-47.4664

> <r_i_glide_erotb>
0.613539

> <r_i_glide_esite>
0

> <r_i_glide_evdw>
-45.3869

> <r_i_glide_gscore>
-5.44597

> <r_i_glide_hbond>
0

> <r_i_glide_ligand_efficiency>
-0.160176

> <r_i_glide_ligand_efficiency_ln>
-1.20317

> <r_i_glide_ligand_efficiency_sa>
-0.518906

> <r_i_glide_lipo>
-3.0127

> <r_i_glide_metal>
0

> <r_i_glide_rewards>
-0.465535

> <s_i_glide_gridfile>
wee1_glide-grid

> <s_m_Source_File>
wee1_decoys_glide_SP.sdf

> <s_m_Source_Path>
/Users/zhangxujun/Desktop

> <s_m_entry_id>
2518

> <s_m_entry_name>
wee1_decoys_glide_SP.2243

> <s_m_subgroup_title>
wee1_decoys_glide_SP

> <s_m_subgroupid>
wee1_decoys_glide_SP


$$$$
