ZINC27531048_2052
                    3D
 Schrodinger Suite 2024-2.
 61 65  0  0  1  0            999 V2000
    6.8697   54.0965   27.8778 C   0  0  0  0  0  0
    5.7489   54.1297   26.8576 C   0  0  0  0  0  0
    6.0565   54.1455   25.4987 C   0  0  0  0  0  0
    5.0348   54.0966   24.5546 C   0  0  0  0  0  0
    3.6938   54.0258   24.9601 C   0  0  0  0  0  0
    3.3947   54.0928   26.3276 C   0  0  0  0  0  0
    4.4170   54.1291   27.2726 C   0  0  0  0  0  0
    2.5678   53.9151   23.9760 C   0  0  0  0  0  0
    1.5048   54.4967   24.1661 O   0  0  0  0  0  0
    2.6335   52.9617   22.8516 C   0  0  0  0  0  0
    3.2682   53.2919   21.7016 C   0  0  0  0  0  0
    3.2531   52.4460   20.5786 N   0  0  0  0  0  0
    2.6213   51.1852   20.6187 C   0  0  0  0  0  0
    1.9172   50.7849   21.7257 C   0  0  0  0  0  0
    1.8230   51.6533   23.0109 C   0  0  2  0  0  0
    2.3044   51.0497   23.7817 H   0  0  0  0  0  0
    0.4043   51.8138   23.6050 C   0  0  0  0  0  0
   -0.6742   52.0993   22.7653 C   0  0  0  0  0  0
   -1.9396   52.3250   23.2983 C   0  0  0  0  0  0
   -2.1517   52.2614   24.6825 C   0  0  0  0  0  0
   -1.0749   51.9333   25.5179 C   0  0  0  0  0  0
    0.1914   51.7122   24.9844 C   0  0  0  0  0  0
   -3.4902   52.5510   25.2536 N   0  3  0  0  0  0
   -3.6358   52.4960   26.4722 O   0  0  0  0  0  0
   -4.4007   52.8534   24.4860 O   0  5  0  0  0  0
    1.2288   49.4646   21.7765 C   0  0  0  0  0  0
    0.7940   48.9925   22.8262 O   0  0  0  0  0  0
    1.2112   48.6082   20.5039 C   0  0  0  0  0  0
    1.3612   49.4613   19.2425 C   0  0  0  0  0  0
    2.6363   50.3069   19.3443 C   0  0  0  0  0  0
    3.8746   52.8900   19.3799 C   0  0  0  0  0  0
    3.1046   53.4198   18.3389 C   0  0  0  0  0  0
    3.7223   53.9288   17.1999 C   0  0  0  0  0  0
    5.1126   53.9198   17.1077 C   0  0  0  0  0  0
    5.8900   53.4097   18.1451 C   0  0  0  0  0  0
    5.2695   52.8975   19.2817 C   0  0  0  0  0  0
    3.9202   54.4966   21.5225 N   0  0  0  0  0  0
    7.4105   53.1515   27.8138 H   0  0  0  0  0  0
    7.5810   54.8968   27.6813 H   0  0  0  0  0  0
    6.5007   54.2226   28.8956 H   0  0  0  0  0  0
    7.0858   54.1532   25.1693 H   0  0  0  0  0  0
    5.3209   54.0584   23.5170 H   0  0  0  0  0  0
    2.3692   54.0711   26.6710 H   0  0  0  0  0  0
    4.1705   54.1359   28.3241 H   0  0  0  0  0  0
   -0.5200   52.1784   21.6991 H   0  0  0  0  0  0
   -2.7520   52.5646   22.6283 H   0  0  0  0  0  0
   -1.2090   51.8601   26.5882 H   0  0  0  0  0  0
    1.0116   51.4835   25.6488 H   0  0  0  0  0  0
    0.3185   47.9833   20.4900 H   0  0  0  0  0  0
    2.0762   47.9474   20.5703 H   0  0  0  0  0  0
    0.4858   50.1007   19.1101 H   0  0  0  0  0  0
    1.4108   48.8208   18.3603 H   0  0  0  0  0  0
    2.5915   50.8967   18.4316 H   0  0  0  0  0  0
    3.5323   49.6992   19.2817 H   0  0  0  0  0  0
    2.0279   53.4486   18.4259 H   0  0  0  0  0  0
    3.1264   54.3336   16.3952 H   0  0  0  0  0  0
    5.5924   54.3123   16.2230 H   0  0  0  0  0  0
    6.9669   53.3995   18.0644 H   0  0  0  0  0  0
    5.8680   52.4927   20.0824 H   0  0  0  0  0  0
    3.8455   55.2345   22.2061 H   0  0  0  0  0  0
    4.2705   54.7412   20.6074 H   0  0  0  0  0  0
  1  2  1  0  0  0
  1 38  1  0  0  0
  1 39  1  0  0  0
  1 40  1  0  0  0
  2  7  2  0  0  0
  2  3  1  0  0  0
  3  4  2  0  0  0
  3 41  1  0  0  0
  4  5  1  0  0  0
  4 42  1  0  0  0
  5  6  2  0  0  0
  5  8  1  0  0  0
  6  7  1  0  0  0
  6 43  1  0  0  0
  7 44  1  0  0  0
  8  9  2  0  0  0
  8 10  1  0  0  0
 10 15  1  0  0  0
 10 11  2  0  0  0
 11 12  1  0  0  0
 11 37  1  0  0  0
 12 13  1  0  0  0
 12 31  1  0  0  0
 13 30  1  0  0  0
 13 14  2  0  0  0
 14 15  1  0  0  0
 14 26  1  0  0  0
 15 16  1  0  0  0
 15 17  1  0  0  0
 17 22  2  0  0  0
 17 18  1  0  0  0
 18 19  2  0  0  0
 18 45  1  0  0  0
 19 20  1  0  0  0
 19 46  1  0  0  0
 20 21  2  0  0  0
 20 23  1  0  0  0
 21 22  1  0  0  0
 21 47  1  0  0  0
 22 48  1  0  0  0
 23 24  2  0  0  0
 23 25  1  0  0  0
 26 27  2  0  0  0
 26 28  1  0  0  0
 28 29  1  0  0  0
 28 49  1  0  0  0
 28 50  1  0  0  0
 29 30  1  0  0  0
 29 51  1  0  0  0
 29 52  1  0  0  0
 30 53  1  0  0  0
 30 54  1  0  0  0
 31 36  2  0  0  0
 31 32  1  0  0  0
 32 33  2  0  0  0
 32 55  1  0  0  0
 33 34  1  0  0  0
 33 56  1  0  0  0
 34 35  2  0  0  0
 34 57  1  0  0  0
 35 36  1  0  0  0
 35 58  1  0  0  0
 36 59  1  0  0  0
 37 60  1  0  0  0
 37 61  1  0  0  0
M  CHG  2  23   1  25  -1
M  END
> <i_i_glide_confnum>
38

> <i_i_glide_lignum>
2053

> <i_i_glide_posenum>
264

> <i_i_glide_rotatable_bonds>
5

> <i_m_Source_File_Index>
1126

> <b_m_subgroup_collapsed>
0

> <r_i_docking_score>
-4.84545

> <r_i_glide_ecoul>
1.09577

> <r_i_glide_eff_state_penalty>
0

> <r_i_glide_einternal>
8.54665

> <r_i_glide_emodel>
-49.4095

> <r_i_glide_energy>
-42.4679

> <r_i_glide_erotb>
0.352647

> <r_i_glide_esite>
-0.0129853

> <r_i_glide_evdw>
-43.5637

> <r_i_glide_gscore>
-4.84545

> <r_i_glide_hbond>
0

> <r_i_glide_ligand_efficiency>
-0.134596

> <r_i_glide_ligand_efficiency_ln>
-1.05715

> <r_i_glide_ligand_efficiency_sa>
-0.444426

> <r_i_glide_lipo>
-2.39032

> <r_i_glide_metal>
0

> <r_i_glide_rewards>
-0.780974

> <s_i_glide_gridfile>
wee1_glide-grid

> <s_m_Source_File>
wee1_decoys_glide_SP.sdf

> <s_m_Source_Path>
/Users/zhangxujun/Desktop

> <s_m_entry_id>
1401

> <s_m_entry_name>
wee1_decoys_glide_SP.1126

> <s_m_subgroup_title>
wee1_decoys_glide_SP

> <s_m_subgroupid>
wee1_decoys_glide_SP


$$$$
