ZINC63280856_6210
                    3D
 Schrodinger Suite 2024-2.
 49 52  0  0  1  0            999 V2000
    0.4822   51.8942   20.9511 C   0  0  0  0  0  0
   -1.3428   51.7066   21.3720 S   0  0  0  0  0  0
   -1.6024   52.4107   22.6312 O   0  0  0  0  0  0
   -2.0967   52.0689   20.1676 O   0  0  0  0  0  0
   -1.5498   49.9709   21.6249 N   0  0  0  0  0  0
   -1.2393   49.3231   22.9211 C   0  0  2  0  0  0
   -1.3131   48.2534   22.7168 H   0  0  0  0  0  0
   -2.1811   49.6647   23.9707 N   0  0  0  0  0  0
   -1.6436   50.3899   25.0304 C   0  0  0  0  0  0
   -2.3493   50.9675   26.0840 C   0  0  0  0  0  0
   -1.6585   51.6612   27.0798 C   0  0  0  0  0  0
   -0.2615   51.7880   27.0318 C   0  0  0  0  0  0
    0.4265   51.2062   25.9556 C   0  0  0  0  0  0
   -0.2605   50.4934   24.9765 C   0  0  0  0  0  0
    0.4175   49.6423   23.5963 S   0  0  0  0  0  0
    0.4691   52.5514   28.1100 C   0  0  0  0  0  0
   -0.0954   53.4426   28.7462 O   0  0  0  0  0  0
    1.7572   52.2134   28.3165 N   0  0  0  0  0  0
    2.6494   52.9006   29.2497 C   0  0  0  0  0  0
    3.1923   54.2343   28.6969 C   0  0  0  0  0  0
    4.1558   54.1085   27.5267 C   0  0  0  0  0  0
    3.9478   54.0971   26.1958 C   0  0  0  0  0  0
    2.7045   54.0967   25.4119 C   0  0  0  0  0  0
    2.7324   54.0948   24.0641 C   0  0  0  0  0  0
    4.0329   54.0965   23.4090 C   0  0  0  0  0  0
    5.1947   54.0973   24.1157 C   0  0  0  0  0  0
    5.1710   54.0969   25.5176 C   0  0  0  0  0  0
    6.1682   54.0947   26.3680 N   0  3  0  0  0  0
    5.6538   54.0596   27.7465 C   0  0  0  0  0  0
    0.6598   52.9144   20.6162 H   0  0  0  0  0  0
    0.7340   51.1973   20.1523 H   0  0  0  0  0  0
    1.0837   51.6930   21.8335 H   0  0  0  0  0  0
   -1.2307   49.4275   20.8194 H   0  0  0  0  0  0
   -3.1514   49.4135   23.8533 H   0  0  0  0  0  0
   -3.4235   50.8789   26.1475 H   0  0  0  0  0  0
   -2.2208   52.0884   27.8969 H   0  0  0  0  0  0
    1.4959   51.3157   25.8690 H   0  0  0  0  0  0
    2.1195   51.3996   27.8432 H   0  0  0  0  0  0
    2.1318   53.0683   30.1976 H   0  0  0  0  0  0
    3.4807   52.2299   29.4748 H   0  0  0  0  0  0
    2.3605   54.8805   28.4113 H   0  0  0  0  0  0
    3.7170   54.7689   29.4891 H   0  0  0  0  0  0
    1.7373   54.0964   25.8944 H   0  0  0  0  0  0
    1.8191   54.0946   23.4853 H   0  0  0  0  0  0
    4.0722   54.0995   22.3281 H   0  0  0  0  0  0
    6.1307   54.0987   23.5754 H   0  0  0  0  0  0
    6.0494   54.9189   28.2860 H   0  0  0  0  0  0
    5.9975   53.1350   28.2129 H   0  0  0  0  0  0
    7.1530   54.0789   26.1217 H   0  0  0  0  0  0
  1  2  1  0  0  0
  1 30  1  0  0  0
  1 31  1  0  0  0
  1 32  1  0  0  0
  2  3  2  0  0  0
  2  4  2  0  0  0
  2  5  1  0  0  0
  5  6  1  0  0  0
  5 33  1  0  0  0
  6  7  1  0  0  0
  6 15  1  0  0  0
  6  8  1  0  0  0
  8  9  1  0  0  0
  8 34  1  0  0  0
  9 14  2  0  0  0
  9 10  1  0  0  0
 10 11  2  0  0  0
 10 35  1  0  0  0
 11 12  1  0  0  0
 11 36  1  0  0  0
 12 13  2  0  0  0
 12 16  1  0  0  0
 13 14  1  0  0  0
 13 37  1  0  0  0
 14 15  1  0  0  0
 16 17  2  0  0  0
 16 18  1  0  0  0
 18 19  1  0  0  0
 18 38  1  0  0  0
 19 20  1  0  0  0
 19 39  1  0  0  0
 19 40  1  0  0  0
 20 21  1  0  0  0
 20 41  1  0  0  0
 20 42  1  0  0  0
 21 29  1  0  0  0
 21 22  2  0  0  0
 22 27  1  0  0  0
 22 23  1  0  0  0
 23 24  2  0  0  0
 23 43  1  0  0  0
 24 25  1  0  0  0
 24 44  1  0  0  0
 25 26  2  0  0  0
 25 45  1  0  0  0
 26 27  1  0  0  0
 26 46  1  0  0  0
 27 28  2  0  0  0
 28 29  1  0  0  0
 28 49  1  0  0  0
 29 47  1  0  0  0
 29 48  1  0  0  0
M  CHG  1  28   1
M  END
> <i_i_glide_confnum>
62

> <i_i_glide_lignum>
6211

> <i_i_glide_posenum>
231

> <i_i_glide_rotatable_bonds>
7

> <i_m_Source_File_Index>
2687

> <b_m_subgroup_collapsed>
0

> <r_i_docking_score>
-4.7867

> <r_i_glide_ecoul>
-2.18752

> <r_i_glide_eff_state_penalty>
0

> <r_i_glide_einternal>
12.6308

> <r_i_glide_emodel>
-45.2584

> <r_i_glide_energy>
-38.6366

> <r_i_glide_erotb>
0.566916

> <r_i_glide_esite>
-0.0716345

> <r_i_glide_evdw>
-36.4491

> <r_i_glide_gscore>
-4.7867

> <r_i_glide_hbond>
0

> <r_i_glide_ligand_efficiency>
-0.170954

> <r_i_glide_ligand_efficiency_ln>
-1.10491

> <r_i_glide_ligand_efficiency_sa>
-0.519116

> <r_i_glide_lipo>
-2.40814

> <r_i_glide_metal>
0

> <r_i_glide_rewards>
-0.72326

> <s_i_glide_gridfile>
wee1_glide-grid

> <s_m_Source_File>
wee1_decoys_glide_SP.sdf

> <s_m_Source_Path>
/Users/zhangxujun/Desktop

> <s_m_entry_id>
2962

> <s_m_entry_name>
wee1_decoys_glide_SP.2687

> <s_m_subgroup_title>
wee1_decoys_glide_SP

> <s_m_subgroupid>
wee1_decoys_glide_SP


$$$$
