ZINC39657758_335
                    3D
 Schrodinger Suite 2024-2.
 79 82  0  0  1  0            999 V2000
   -5.9832   51.6275   18.3122 C   0  0  0  0  0  0
   -6.8197   50.3488   18.1727 C   0  0  0  0  0  0
   -5.9975   49.0473   18.2068 C   0  0  0  0  0  0
   -5.3402   48.7495   19.5759 C   0  0  0  0  0  0
   -4.5905   47.3926   19.6887 C   0  0  1  0  0  0
   -4.1833   47.3282   20.6960 H   0  0  0  0  0  0
   -5.5582   46.1859   19.5914 C   0  0  0  0  0  0
   -3.4014   47.2903   18.6924 C   0  0  0  0  0  0
   -3.5394   46.6203   17.6648 O   0  0  0  0  0  0
   -2.2474   47.9576   18.9477 N   0  0  0  0  0  0
   -1.9062   48.6252   20.2019 C   0  0  0  0  0  0
   -0.3662   48.5115   20.2464 C   0  0  1  0  0  0
   -0.0956   47.5297   20.6370 H   0  0  0  0  0  0
    0.0709   48.6077   18.7502 C   0  0  0  0  0  0
   -1.0921   47.8647   18.0518 C   0  0  0  0  0  0
    0.1553   50.0425   18.1284 C   0  0  0  0  0  0
    1.3905   50.8834   18.5582 C   0  0  0  0  0  0
    2.6904   50.0503   18.4834 N   0  3  0  0  0  0
    2.6339   48.5811   18.9553 C   0  0  0  0  0  0
    1.3952   47.9111   18.3552 C   0  0  0  0  0  0
    0.1747   49.6000   21.1989 C   0  0  0  0  0  0
   -0.3931   50.6867   21.3159 O   0  0  0  0  0  0
    1.2587   49.2541   21.9137 N   0  0  0  0  0  0
    2.0357   50.1001   22.8139 C   0  0  0  0  0  0
    1.2077   50.7516   23.9104 C   0  0  0  0  0  0
    0.7033   49.9380   24.9336 C   0  0  0  0  0  0
   -0.0945   50.4792   25.9394 C   0  0  0  0  0  0
   -0.3987   51.8379   25.9233 C   0  0  0  0  0  0
    0.1061   52.6511   24.9080 C   0  0  0  0  0  0
    0.9295   52.1285   23.9152 C   0  0  0  0  0  0
    1.5043   53.2193   22.6327 S   0  0  0  0  0  0
    3.1516   53.6706   23.1203 C   0  0  0  0  0  0
    3.3727   54.0921   24.4368 C   0  0  0  0  0  0
    4.6409   54.4968   24.8507 C   0  0  0  0  0  0
    5.6990   54.4941   23.9452 C   0  0  0  0  0  0
    5.4861   54.0852   22.6291 C   0  0  0  0  0  0
    4.2197   53.6668   22.1978 C   0  0  0  0  0  0
    4.0668   53.2347   20.7339 C   0  0  0  0  0  0
    4.5568   51.9249   20.4835 O   0  0  0  0  0  0
   -6.6203   52.5068   18.2190 H   0  0  0  0  0  0
   -5.2174   51.6903   17.5395 H   0  0  0  0  0  0
   -5.4905   51.6848   19.2820 H   0  0  0  0  0  0
   -7.5825   50.3224   18.9519 H   0  0  0  0  0  0
   -7.3629   50.3916   17.2283 H   0  0  0  0  0  0
   -6.6603   48.2237   17.9395 H   0  0  0  0  0  0
   -5.2389   49.0790   17.4240 H   0  0  0  0  0  0
   -4.6513   49.5561   19.8264 H   0  0  0  0  0  0
   -6.1061   48.7872   20.3521 H   0  0  0  0  0  0
   -5.0397   45.2449   19.7837 H   0  0  0  0  0  0
   -6.3669   46.2654   20.3200 H   0  0  0  0  0  0
   -6.0159   46.0990   18.6048 H   0  0  0  0  0  0
   -2.1951   49.6700   20.0764 H   0  0  0  0  0  0
   -2.3236   48.1896   21.1093 H   0  0  0  0  0  0
   -0.8340   46.8034   18.0329 H   0  0  0  0  0  0
   -1.2565   48.1505   17.0118 H   0  0  0  0  0  0
    0.1840   49.9678   17.0401 H   0  0  0  0  0  0
   -0.7603   50.5986   18.3364 H   0  0  0  0  0  0
    1.5495   51.7399   17.9016 H   0  0  0  0  0  0
    1.3517   51.2694   19.5746 H   0  0  0  0  0  0
    3.0173   49.9795   17.5167 H   0  0  0  0  0  0
    3.5389   48.1038   18.5768 H   0  0  0  0  0  0
    2.6854   48.5710   20.0363 H   0  0  0  0  0  0
    1.3781   46.8676   18.6725 H   0  0  0  0  0  0
    1.4999   47.8676   17.2682 H   0  0  0  0  0  0
    1.6337   48.3298   21.7740 H   0  0  0  0  0  0
    2.7962   49.4752   23.2823 H   0  0  0  0  0  0
    2.6081   50.8164   22.2261 H   0  0  0  0  0  0
    0.9201   48.8787   24.9466 H   0  0  0  0  0  0
   -0.4855   49.8407   26.7219 H   0  0  0  0  0  0
   -1.0315   52.2563   26.6916 H   0  0  0  0  0  0
   -0.1428   53.6965   24.8817 H   0  0  0  0  0  0
    2.5581   54.1102   25.1459 H   0  0  0  0  0  0
    4.8003   54.8164   25.8699 H   0  0  0  0  0  0
    6.6834   54.8141   24.2572 H   0  0  0  0  0  0
    6.3124   54.0963   21.9354 H   0  0  0  0  0  0
    3.0338   53.2969   20.3947 H   0  0  0  0  0  0
    4.6170   53.9346   20.1034 H   0  0  0  0  0  0
    4.9313   51.8805   19.5937 H   0  0  0  0  0  0
    3.4569   50.5217   18.9460 H   0  0  0  0  0  0
  1  2  1  0  0  0
  1 40  1  0  0  0
  1 41  1  0  0  0
  1 42  1  0  0  0
  2  3  1  0  0  0
  2 43  1  0  0  0
  2 44  1  0  0  0
  3  4  1  0  0  0
  3 45  1  0  0  0
  3 46  1  0  0  0
  4  5  1  0  0  0
  4 47  1  0  0  0
  4 48  1  0  0  0
  5  6  1  0  0  0
  5  7  1  0  0  0
  5  8  1  0  0  0
  7 49  1  0  0  0
  7 50  1  0  0  0
  7 51  1  0  0  0
  8  9  2  0  0  0
  8 10  1  0  0  0
 10 15  1  0  0  0
 10 11  1  0  0  0
 11 12  1  0  0  0
 11 52  1  0  0  0
 11 53  1  0  0  0
 12 13  1  0  0  0
 12 14  1  0  0  0
 12 21  1  0  0  0
 14 20  1  0  0  0
 14 15  1  0  0  0
 14 16  1  0  0  0
 15 54  1  0  0  0
 15 55  1  0  0  0
 16 17  1  0  0  0
 16 56  1  0  0  0
 16 57  1  0  0  0
 17 18  1  0  0  0
 17 58  1  0  0  0
 17 59  1  0  0  0
 18 19  1  0  0  0
 18 60  1  0  0  0
 18 79  1  0  0  0
 19 20  1  0  0  0
 19 61  1  0  0  0
 19 62  1  0  0  0
 20 63  1  0  0  0
 20 64  1  0  0  0
 21 22  2  0  0  0
 21 23  1  0  0  0
 23 24  1  0  0  0
 23 65  1  0  0  0
 24 25  1  0  0  0
 24 66  1  0  0  0
 24 67  1  0  0  0
 25 30  2  0  0  0
 25 26  1  0  0  0
 26 27  2  0  0  0
 26 68  1  0  0  0
 27 28  1  0  0  0
 27 69  1  0  0  0
 28 29  2  0  0  0
 28 70  1  0  0  0
 29 30  1  0  0  0
 29 71  1  0  0  0
 30 31  1  0  0  0
 31 32  1  0  0  0
 32 37  2  0  0  0
 32 33  1  0  0  0
 33 34  2  0  0  0
 33 72  1  0  0  0
 34 35  1  0  0  0
 34 73  1  0  0  0
 35 36  2  0  0  0
 35 74  1  0  0  0
 36 37  1  0  0  0
 36 75  1  0  0  0
 37 38  1  0  0  0
 38 39  1  0  0  0
 38 76  1  0  0  0
 38 77  1  0  0  0
 39 78  1  0  0  0
M  CHG  1  18   1
M  END
> <i_i_glide_confnum>
267

> <i_i_glide_lignum>
336

> <i_i_glide_posenum>
308

> <i_i_glide_rotatable_bonds>
13

> <i_m_Source_File_Index>
2762

> <b_m_subgroup_collapsed>
0

> <r_i_docking_score>
-4.11272

> <r_i_glide_ecoul>
-7.94101

> <r_i_glide_eff_state_penalty>
0

> <r_i_glide_einternal>
5.82228

> <r_i_glide_emodel>
-48.3133

> <r_i_glide_energy>
-37.3138

> <r_i_glide_erotb>
0.822086

> <r_i_glide_esite>
-0.1

> <r_i_glide_evdw>
-29.3728

> <r_i_glide_gscore>
-4.11272

> <r_i_glide_hbond>
-0.307729

> <r_i_glide_ligand_efficiency>
-0.111155

> <r_i_glide_ligand_efficiency_ln>
-0.891953

> <r_i_glide_ligand_efficiency_sa>
-0.370392

> <r_i_glide_lipo>
-1.81152

> <r_i_glide_metal>
0

> <r_i_glide_rewards>
-0.0557639

> <s_i_glide_gridfile>
wee1_glide-grid

> <s_m_Source_File>
wee1_decoys_glide_SP.sdf

> <s_m_Source_Path>
/Users/zhangxujun/Desktop

> <s_m_entry_id>
3037

> <s_m_entry_name>
wee1_decoys_glide_SP.2762

> <s_m_subgroup_title>
wee1_decoys_glide_SP

> <s_m_subgroupid>
wee1_decoys_glide_SP


$$$$
