ZINC02837785_2284
                    3D
 Schrodinger Suite 2024-2.
 52 56  0  0  1  0            999 V2000
    6.7050   53.7048   26.2166 C   0  0  0  0  0  0
    5.8283   54.7429   25.8100 O   0  0  0  0  0  0
    4.9169   54.3925   24.8436 C   0  0  0  0  0  0
    5.3364   54.1354   23.5291 C   0  0  0  0  0  0
    4.4046   53.8619   22.5187 C   0  0  0  0  0  0
    3.0443   53.8835   22.8413 C   0  0  0  0  0  0
    2.6225   54.0915   24.1495 C   0  0  0  0  0  0
    3.5519   54.3308   25.1671 C   0  0  0  0  0  0
    3.1092   54.4972   26.4638 O   0  0  0  0  0  0
    3.4315   53.4512   27.3796 C   0  0  0  0  0  0
    2.2018   53.0662   28.1930 C   0  0  0  0  0  0
    1.2971   52.1289   27.6807 C   0  0  0  0  0  0
    0.1886   51.7326   28.4312 C   0  0  0  0  0  0
   -0.0265   52.2755   29.6974 C   0  0  0  0  0  0
    0.8662   53.2154   30.2118 C   0  0  0  0  0  0
    1.9783   53.6095   29.4652 C   0  0  0  0  0  0
    2.8479   54.4998   29.9966 F   0  0  0  0  0  0
    0.9346   54.0172   24.4802 Cl  0  0  0  0  0  0
    4.8622   53.4644   21.1038 C   0  0  1  0  0  0
    5.8359   52.9915   21.2441 H   0  0  0  0  0  0
    3.9355   52.4270   20.4323 C   0  0  0  0  0  0
    3.5656   51.2405   21.0927 C   0  0  0  0  0  0
    2.7045   50.3542   20.4594 C   0  0  0  0  0  0
    2.2009   50.6074   19.2175 C   0  0  0  0  0  0
    2.5198   51.7654   18.5228 C   0  0  0  0  0  0
    3.3960   52.6674   19.1411 C   0  0  0  0  0  0
    3.6820   53.8057   18.4188 O   0  0  0  0  0  0
    4.5157   54.7270   18.9504 C   0  0  0  0  0  0
    5.1051   54.6438   20.1608 C   0  0  0  0  0  0
    5.9974   55.6725   20.5757 C   0  0  0  0  0  0
    6.7068   56.5305   20.8818 N   0  0  0  0  0  0
    4.6694   55.7259   18.0287 N   0  0  0  0  0  0
    1.3706   49.5942   18.8567 O   0  0  0  0  0  0
    1.5997   48.5828   19.8004 C   0  0  0  0  0  0
    2.2024   49.1774   20.9173 O   0  0  0  0  0  0
    7.4245   54.1014   26.9337 H   0  0  0  0  0  0
    6.1648   52.8969   26.7110 H   0  0  0  0  0  0
    7.2559   53.2950   25.3706 H   0  0  0  0  0  0
    6.3909   54.1632   23.2966 H   0  0  0  0  0  0
    2.3013   53.6984   22.0771 H   0  0  0  0  0  0
    3.8074   52.5558   26.8820 H   0  0  0  0  0  0
    4.2338   53.7865   28.0390 H   0  0  0  0  0  0
    1.4548   51.6979   26.7019 H   0  0  0  0  0  0
   -0.4982   50.9933   28.0403 H   0  0  0  0  0  0
   -0.8769   51.9570   30.2851 H   0  0  0  0  0  0
    0.7026   53.6285   31.1968 H   0  0  0  0  0  0
    3.9374   51.0251   22.0813 H   0  0  0  0  0  0
    2.1237   51.9647   17.5393 H   0  0  0  0  0  0
    5.2041   56.5550   18.2437 H   0  0  0  0  0  0
    4.4327   55.5599   17.0619 H   0  0  0  0  0  0
    2.2818   47.8439   19.3730 H   0  0  0  0  0  0
    0.6682   48.0859   20.0730 H   0  0  0  0  0  0
  1  2  1  0  0  0
  1 36  1  0  0  0
  1 37  1  0  0  0
  1 38  1  0  0  0
  2  3  1  0  0  0
  3  8  2  0  0  0
  3  4  1  0  0  0
  4  5  2  0  0  0
  4 39  1  0  0  0
  5  6  1  0  0  0
  5 19  1  0  0  0
  6  7  2  0  0  0
  6 40  1  0  0  0
  7  8  1  0  0  0
  7 18  1  0  0  0
  8  9  1  0  0  0
  9 10  1  0  0  0
 10 11  1  0  0  0
 10 41  1  0  0  0
 10 42  1  0  0  0
 11 16  2  0  0  0
 11 12  1  0  0  0
 12 13  2  0  0  0
 12 43  1  0  0  0
 13 14  1  0  0  0
 13 44  1  0  0  0
 14 15  2  0  0  0
 14 45  1  0  0  0
 15 16  1  0  0  0
 15 46  1  0  0  0
 16 17  1  0  0  0
 19 20  1  0  0  0
 19 29  1  0  0  0
 19 21  1  0  0  0
 21 26  2  0  0  0
 21 22  1  0  0  0
 22 23  2  0  0  0
 22 47  1  0  0  0
 23 35  1  0  0  0
 23 24  1  0  0  0
 24 25  2  0  0  0
 24 33  1  0  0  0
 25 26  1  0  0  0
 25 48  1  0  0  0
 26 27  1  0  0  0
 27 28  1  0  0  0
 28 29  2  0  0  0
 28 32  1  0  0  0
 29 30  1  0  0  0
 30 31  3  0  0  0
 32 49  1  0  0  0
 32 50  1  0  0  0
 33 34  1  0  0  0
 34 35  1  0  0  0
 34 51  1  0  0  0
 34 52  1  0  0  0
M  END
> <i_i_glide_confnum>
24

> <i_i_glide_lignum>
2285

> <i_i_glide_posenum>
248

> <i_i_glide_rotatable_bonds>
6

> <i_m_Source_File_Index>
4535

> <b_m_subgroup_collapsed>
0

> <r_i_docking_score>
-5.92717

> <r_i_glide_ecoul>
-4.94035

> <r_i_glide_eff_state_penalty>
0

> <r_i_glide_einternal>
11.5297

> <r_i_glide_emodel>
-60.874

> <r_i_glide_energy>
-48.8853

> <r_i_glide_erotb>
0.350846

> <r_i_glide_esite>
-0.0807348

> <r_i_glide_evdw>
-43.945

> <r_i_glide_gscore>
-5.92717

> <r_i_glide_hbond>
-0.24944

> <r_i_glide_ligand_efficiency>
-0.174329

> <r_i_glide_ligand_efficiency_ln>
-1.30948

> <r_i_glide_ligand_efficiency_sa>
-0.564757

> <r_i_glide_lipo>
-2.73916

> <r_i_glide_metal>
0

> <r_i_glide_rewards>
-0.270383

> <s_i_glide_gridfile>
wee1_glide-grid

> <s_m_Source_File>
wee1_decoys_glide_SP.sdf

> <s_m_Source_Path>
/Users/zhangxujun/Desktop

> <s_m_entry_id>
4810

> <s_m_entry_name>
wee1_decoys_glide_SP.4535

> <s_m_subgroup_title>
wee1_decoys_glide_SP

> <s_m_subgroupid>
wee1_decoys_glide_SP


$$$$
