@<TRIPOS>MOLECULE
ZINC36601955_170
52   54    1
SMALL
USER_CHARGES


@<TRIPOS>ATOM
      1 C1          1.2742   56.0207   30.1218 C.3       1 UNK         0.0000 
      2 O2          2.0908   55.6259   29.0311 O.3       1 UNK         0.0000 
      3 C3          2.8494   54.5095   29.1173 C.2       1 UNK         0.0000 
      4 O4          2.8741   53.7443   30.0824 O.2       1 UNK         0.0000 
      5 C5          3.7565   54.3515   27.9044 C.3       1 UNK         0.0000 
      6 H6          4.2454   55.3046   27.7610 H         1 UNK         0.0000 
      7 C7          4.9020   53.3284   28.1117 C.3       1 UNK         0.0000 
      8 C8          5.9466   53.3049   26.9827 C.3       1 UNK         0.0000 
      9 S9          6.7043   54.8959   26.5524 S.3       1 UNK         0.0000 
     10 C10         5.9852   55.2042   24.9117 C.3       1 UNK         0.0000 
     11 N11         2.9957   54.0966   26.6634 N.am      1 UNK         0.0000 
     12 C12         2.0960   53.1257   26.3999 C.2       1 UNK         0.0000 
     13 O13         1.6966   52.3659   27.2826 O.2       1 UNK         0.0000 
     14 N14         1.7328   52.9970   25.0913 N.am      1 UNK         0.0000 
     15 C15         1.9369   54.0670   24.0674 C.3       1 UNK         0.0000 
     16 C16         2.8313   53.5294   22.9093 C.3       1 UNK         0.0000 
     17 C17         2.3037   52.1661   22.5014 C.ar      1 UNK         0.0000 
     18 C18         1.4088   51.4264   23.2662 C.ar      1 UNK         0.0000 
     19 N19         1.1303   50.2646   22.5648 N.pl3     1 UNK         0.0000 
     20 C20         1.8055   50.2955   21.3600 C.ar      1 UNK         0.0000 
     21 N21         2.5065   51.4844   21.3138 N.pl3     1 UNK         0.0000 
     22 H22         3.0834   51.7998   20.5462 H         1 UNK         0.0000 
     23 C23         0.9124   51.8274   24.6567 C.3       1 UNK         0.0000 
     24 H24         1.1013   51.0109   25.3546 H         1 UNK         0.0000 
     25 C25        -0.5966   52.0713   24.7572 C.ar      1 UNK         0.0000 
     26 C26        -1.3257   52.5901   23.6821 C.ar      1 UNK         0.0000 
     27 C27        -2.6877   52.8416   23.8169 C.ar      1 UNK         0.0000 
     28 C28        -3.3276   52.5599   25.0199 C.ar      1 UNK         0.0000 
     29 C29        -2.6188   52.0113   26.0857 C.ar      1 UNK         0.0000 
     30 C30        -1.2563   51.7628   25.9523 C.ar      1 UNK         0.0000 
     31 Br31       -5.1817   52.9402   25.2068 Br        1 UNK         0.0000 
     32 H32         1.8794   56.2836   30.9898 H         1 UNK         0.0000 
     33 H33         0.7035   56.9008   29.8406 H         1 UNK         0.0000 
     34 H34         0.5738   55.2346   30.4069 H         1 UNK         0.0000 
     35 H35         5.4222   53.5340   29.0489 H         1 UNK         0.0000 
     36 H36         4.4797   52.3291   28.2214 H         1 UNK         0.0000 
     37 H37         6.7508   52.6341   27.2799 H         1 UNK         0.0000 
     38 H38         5.4948   52.8965   26.0820 H         1 UNK         0.0000 
     39 H39         6.3790   56.1325   24.5001 H         1 UNK         0.0000 
     40 H40         6.2399   54.3918   24.2253 H         1 UNK         0.0000 
     41 H41         4.9008   55.2896   24.9754 H         1 UNK         0.0000 
     42 H42         3.3530   54.5931   25.8652 H         1 UNK         0.0000 
     43 H43         0.9547   54.3257   23.6708 H         1 UNK         0.0000 
     44 H44         2.3040   55.0067   24.4812 H         1 UNK         0.0000 
     45 H45         2.8304   54.2279   22.0707 H         1 UNK         0.0000 
     46 H46         3.8637   53.4508   23.2454 H         1 UNK         0.0000 
     47 H47         1.7859   49.5374   20.5898 H         1 UNK         0.0000 
     48 H48        -0.8358   52.8212   22.7485 H         1 UNK         0.0000 
     49 H49        -3.2456   53.2642   22.9955 H         1 UNK         0.0000 
     50 H50        -3.1193   51.7815   27.0143 H         1 UNK         0.0000 
     51 H51        -0.7122   51.3461   26.7893 H         1 UNK         0.0000 
     52 H52         0.5316   49.5187   22.8913 H         1 UNK         0.0000 
@<TRIPOS>BOND
     1    1    2 1    
     2    1   32 1    
     3    1   33 1    
     4    1   34 1    
     5    2    3 1    
     6    3    4 2    
     7    3    5 1    
     8    5    6 1    
     9    5    7 1    
    10    5   11 1    
    11    7    8 1    
    12    7   35 1    
    13    7   36 1    
    14    8    9 1    
    15    8   37 1    
    16    8   38 1    
    17    9   10 1    
    18   10   39 1    
    19   10   40 1    
    20   10   41 1    
    21   11   12 am   BACKBONE|DICT|INTERRES
    22   11   42 1    
    23   12   13 2    
    24   12   14 am   BACKBONE|DICT|INTERRES
    25   14   23 1    
    26   14   15 1    
    27   15   16 1    
    28   15   43 1    
    29   15   44 1    
    30   16   17 1    
    31   16   45 1    
    32   16   46 1    
    33   17   21 ar   
    34   17   18 ar   
    35   18   19 ar   
    36   18   23 1    
    37   19   20 ar   
    38   19   52 1    
    39   20   21 ar   
    40   20   47 1    
    41   21   22 1    
    42   23   24 1    
    43   23   25 1    
    44   25   30 ar   
    45   25   26 ar   
    46   26   27 ar   
    47   26   48 1    
    48   27   28 ar   
    49   27   49 1    
    50   28   29 ar   
    51   28   31 1    
    52   29   30 ar   
    53   29   50 1    
    54   30   51 1    
@<TRIPOS>SUBSTRUCTURE
     1 UNK         1 GROUP             0       ****    0 ROOT    
