@<TRIPOS>MOLECULE
ZINC67587174_1365
45   47    1
SMALL
USER_CHARGES


@<TRIPOS>ATOM
      1 C1          3.6131   54.4794   25.0766 C.ar      1 UNK         0.0000 
      2 C2          4.7795   54.8969   25.7047 C.ar      1 UNK         0.0000 
      3 C3          5.9793   54.8958   25.0020 C.ar      1 UNK         0.0000 
      4 C4          6.0281   54.4756   23.6744 C.ar      1 UNK         0.0000 
      5 C5          4.8591   54.0507   23.0453 C.ar      1 UNK         0.0000 
      6 C6          3.6474   54.0474   23.7466 C.ar      1 UNK         0.0000 
      7 C7          2.3697   53.5693   23.0663 C.3       1 UNK         0.0000 
      8 N8          1.8102   52.2776   23.7218 N.4       1 UNK         0.0000 
      9 C9          1.4570   51.1969   22.6730 C.3       1 UNK         0.0000 
     10 C10         1.0318   49.9069   23.4061 C.3       1 UNK         0.0000 
     11 C11        -0.0889   50.1208   24.4516 C.3       1 UNK         0.0000 
     12 C12         0.1959   51.3175   25.3804 C.3       1 UNK         0.0000 
     13 C13         0.5894   52.5916   24.6172 C.3       1 UNK         0.0000 
     14 N14        -0.5080   48.9190   25.1781 N.am      1 UNK         0.0000 
     15 C15        -1.3535   47.9973   24.6932 C.2       1 UNK         0.0000 
     16 O16        -1.4908   47.7666   23.4899 O.2       1 UNK         0.0000 
     17 N17        -2.0611   47.4243   25.6817 N.am      1 UNK         0.0000 
     18 C18        -3.1545   46.5863   25.5296 C.2       1 UNK         0.0000 
     19 N19        -3.8655   46.3562   24.4486 N.2       1 UNK         0.0000 
     20 N20        -4.8943   45.4483   24.6785 N.2       1 UNK         0.0000 
     21 C21        -4.9304   45.0022   25.9140 C.2       1 UNK         0.0000 
     22 S22        -3.6915   45.7011   26.9167 S.3       1 UNK         0.0000 
     23 C23        -5.9005   43.9445   26.3935 C.3       1 UNK         0.0000 
     24 F24        -6.2231   44.1050   27.6787 F         1 UNK         0.0000 
     25 F25        -5.3960   42.7209   26.2314 F         1 UNK         0.0000 
     26 F26         7.1044   55.3096   25.6198 F         1 UNK         0.0000 
     27 H27         2.6934   54.4964   25.6378 H         1 UNK         0.0000 
     28 H28         4.7580   55.2280   26.7326 H         1 UNK         0.0000 
     29 H29         6.9690   54.4822   23.1411 H         1 UNK         0.0000 
     30 H30         4.8990   53.7257   22.0133 H         1 UNK         0.0000 
     31 H31         2.5487   53.3505   22.0101 H         1 UNK         0.0000 
     32 H32         1.5914   54.3360   23.1058 H         1 UNK         0.0000 
     33 H33         0.6733   51.6021   22.0290 H         1 UNK         0.0000 
     34 H34         2.3593   51.0118   22.0862 H         1 UNK         0.0000 
     35 H35         1.9056   49.4835   23.9020 H         1 UNK         0.0000 
     36 H36         0.7136   49.1703   22.6649 H         1 UNK         0.0000 
     37 H37        -0.9638   50.4425   23.8772 H         1 UNK         0.0000 
     38 H38        -0.6802   51.5284   25.9968 H         1 UNK         0.0000 
     39 H39         1.0073   51.0629   26.0662 H         1 UNK         0.0000 
     40 H40        -0.2106   52.9715   23.9779 H         1 UNK         0.0000 
     41 H41         0.8861   53.3601   25.3288 H         1 UNK         0.0000 
     42 H42        -0.3392   48.9110   26.1755 H         1 UNK         0.0000 
     43 H43        -1.8135   47.6622   26.6407 H         1 UNK         0.0000 
     44 H44        -6.8384   43.9621   25.8338 H         1 UNK         0.0000 
     45 H45         2.5499   51.9187   24.3099 H         1 UNK         0.0000 
@<TRIPOS>BOND
     1    1    6 ar   
     2    1    2 ar   
     3    1   27 1    
     4    2    3 ar   
     5    2   28 1    
     6    3    4 ar   
     7    3   26 1    
     8    4    5 ar   
     9    4   29 1    
    10    5    6 ar   
    11    5   30 1    
    12    6    7 1    
    13    7    8 1    
    14    7   31 1    
    15    7   32 1    
    16    8   13 1    
    17    8    9 1    
    18    8   45 1    
    19    9   10 1    
    20    9   33 1    
    21    9   34 1    
    22   10   11 1    
    23   10   35 1    
    24   10   36 1    
    25   11   12 1    
    26   11   14 1    
    27   11   37 1    
    28   12   13 1    
    29   12   38 1    
    30   12   39 1    
    31   13   40 1    
    32   13   41 1    
    33   14   15 am   BACKBONE|DICT|INTERRES
    34   14   42 1    
    35   15   16 2    
    36   15   17 am   BACKBONE|DICT|INTERRES
    37   17   18 am   BACKBONE|DICT|INTERRES
    38   17   43 1    
    39   18   22 1    
    40   18   19 2    
    41   19   20 1    
    42   20   21 2    
    43   21   22 1    
    44   21   23 1    
    45   23   24 1    
    46   23   25 1    
    47   23   44 1    
@<TRIPOS>SUBSTRUCTURE
     1 UNK         1 GROUP             0       ****    0 ROOT    
