@<TRIPOS>MOLECULE
ZINC15346749_2252
51   53    1
SMALL
USER_CHARGES


@<TRIPOS>ATOM
      1 C1         -2.2985   50.6434   25.7360 C.3       1 UNK         0.0000 
      2 C2         -1.2053   51.2589   26.5892 C.ar      1 UNK         0.0000 
      3 C3          0.0346   51.5567   26.0232 C.ar      1 UNK         0.0000 
      4 C4          1.0429   52.0957   26.8157 C.ar      1 UNK         0.0000 
      5 C5          0.8099   52.3530   28.1684 C.ar      1 UNK         0.0000 
      6 C6         -0.4361   52.0676   28.7300 C.ar      1 UNK         0.0000 
      7 C7         -1.4415   51.5167   27.9400 C.ar      1 UNK         0.0000 
      8 N8          1.8232   52.8692   28.9866 N.pl3     1 UNK         0.0000 
      9 C9          2.6696   51.8788   29.6287 C.3       1 UNK         0.0000 
     10 S10         2.4679   54.5104   28.7754 S.o2      1 UNK         0.0000 
     11 O11         3.0065   54.8965   30.0817 O.2       1 UNK         0.0000 
     12 O12         1.4221   55.2963   28.1148 O.2       1 UNK         0.0000 
     13 C13         3.8576   54.3752   27.6505 C.ar      1 UNK         0.0000 
     14 C14         5.1592   54.2354   28.1374 C.ar      1 UNK         0.0000 
     15 C15         6.2253   54.1128   27.2484 C.ar      1 UNK         0.0000 
     16 C16         5.9943   54.0967   25.8717 C.ar      1 UNK         0.0000 
     17 C17         4.6861   54.1983   25.3636 C.ar      1 UNK         0.0000 
     18 C18         3.6319   54.3651   26.2744 C.ar      1 UNK         0.0000 
     19 C19         4.3749   54.1085   23.8830 C.2       1 UNK         0.0000 
     20 O20         3.1975   54.0717   23.5083 O.2       1 UNK         0.0000 
     21 N21         5.4303   54.0905   23.0376 N.am      1 UNK         0.0000 
     22 N22         5.1517   53.9630   21.6755 N.am      1 UNK         0.0000 
     23 C23         5.6438   54.8967   20.8323 C.2       1 UNK         0.0000 
     24 O24         6.3049   55.8776   21.1940 O.2       1 UNK         0.0000 
     25 C25         5.3057   54.7047   19.3697 C.ar      1 UNK         0.0000 
     26 C26         5.3204   55.8122   18.5087 C.ar      1 UNK         0.0000 
     27 C27         4.9946   55.6683   17.1629 C.ar      1 UNK         0.0000 
     28 C28         4.6547   54.4138   16.6643 C.ar      1 UNK         0.0000 
     29 C29         4.6411   53.3029   17.5015 C.ar      1 UNK         0.0000 
     30 C30         4.9666   53.4437   18.8476 C.ar      1 UNK         0.0000 
     31 F31         4.3398   54.2747   15.3570 F         1 UNK         0.0000 
     32 H32        -2.2314   50.9902   24.7037 H         1 UNK         0.0000 
     33 H33        -2.2187   49.5550   25.7504 H         1 UNK         0.0000 
     34 H34        -3.2884   50.9246   26.1023 H         1 UNK         0.0000 
     35 H35         0.2289   51.3512   24.9804 H         1 UNK         0.0000 
     36 H36         2.0082   52.2866   26.3748 H         1 UNK         0.0000 
     37 H37        -0.6209   52.2468   29.7799 H         1 UNK         0.0000 
     38 H38        -2.3930   51.2645   28.3866 H         1 UNK         0.0000 
     39 H39         3.1099   51.2193   28.8817 H         1 UNK         0.0000 
     40 H40         3.4715   52.3438   30.2032 H         1 UNK         0.0000 
     41 H41         2.0562   51.2968   30.3121 H         1 UNK         0.0000 
     42 H42         5.3511   54.2391   29.2002 H         1 UNK         0.0000 
     43 H43         7.2306   54.0189   27.6312 H         1 UNK         0.0000 
     44 H44         6.8454   53.9775   25.2167 H         1 UNK         0.0000 
     45 H45         2.6169   54.4724   25.9161 H         1 UNK         0.0000 
     46 H46         6.3035   53.6555   23.2932 H         1 UNK         0.0000 
     47 H47         5.0432   53.0012   21.3927 H         1 UNK         0.0000 
     48 H48         5.5725   56.7978   18.8775 H         1 UNK         0.0000 
     49 H49         5.0040   56.5267   16.5081 H         1 UNK         0.0000 
     50 H50         4.3837   52.3282   17.1099 H         1 UNK         0.0000 
     51 H51         4.9545   52.5527   19.4583 H         1 UNK         0.0000 
@<TRIPOS>BOND
     1    1    2 1    
     2    1   32 1    
     3    1   33 1    
     4    1   34 1    
     5    2    7 ar   
     6    2    3 ar   
     7    3    4 ar   
     8    3   35 1    
     9    4    5 ar   
    10    4   36 1    
    11    5    6 ar   
    12    5    8 1    
    13    6    7 ar   
    14    6   37 1    
    15    7   38 1    
    16    8    9 1    
    17    8   10 1    
    18    9   39 1    
    19    9   40 1    
    20    9   41 1    
    21   10   11 2    
    22   10   12 2    
    23   10   13 1    
    24   13   18 ar   
    25   13   14 ar   
    26   14   15 ar   
    27   14   42 1    
    28   15   16 ar   
    29   15   43 1    
    30   16   17 ar   
    31   16   44 1    
    32   17   18 ar   
    33   17   19 1    
    34   18   45 1    
    35   19   20 2    
    36   19   21 am   BACKBONE|DICT|INTERRES
    37   21   22 1    
    38   21   46 1    
    39   22   23 am   BACKBONE|DICT|INTERRES
    40   22   47 1    
    41   23   24 2    
    42   23   25 1    
    43   25   30 ar   
    44   25   26 ar   
    45   26   27 ar   
    46   26   48 1    
    47   27   28 ar   
    48   27   49 1    
    49   28   29 ar   
    50   28   31 1    
    51   29   30 ar   
    52   29   50 1    
    53   30   51 1    
@<TRIPOS>SUBSTRUCTURE
     1 UNK         1 GROUP             0       ****    0 ROOT    
