ZINC13353572_1936
                    3D
 Schrodinger Suite 2024-2.
 49 51  0  0  1  0            999 V2000
    0.7987   50.3669   23.2035 C   0  0  0  0  0  0
    0.3523   50.9889   24.5412 C   0  0  2  0  0  0
    0.5887   50.2492   25.3087 H   0  0  0  0  0  0
   -1.1629   51.2681   24.5664 C   0  0  0  0  0  0
   -1.6837   51.9519   23.6834 O   0  0  0  0  0  0
   -1.8612   50.7322   25.5855 N   0  0  0  0  0  0
   -3.2929   50.8960   25.8564 C   0  0  0  0  0  0
   -3.6918   50.1001   27.1296 C   0  0  0  0  0  0
   -5.1919   50.2005   27.4856 C   0  0  0  0  0  0
   -5.6436   51.6674   27.6196 C   0  0  0  0  0  0
   -5.2427   52.5226   26.4016 C   0  0  0  0  0  0
   -3.7414   52.3727   26.0728 C   0  0  0  0  0  0
   -4.0847   50.3204   24.7417 C   0  0  0  0  0  0
   -4.7029   49.8712   23.8704 N   0  0  0  0  0  0
    1.3127   52.4967   24.9278 S   0  0  0  0  0  0
    1.3176   52.4805   26.7073 C   0  0  0  0  0  0
    0.3439   51.9205   27.3916 N   0  0  0  0  0  0
    0.6814   52.0020   28.6527 C   0  0  0  0  0  0
    1.8843   52.6598   28.8072 C   0  0  0  0  0  0
    2.3405   52.9677   27.5268 N   0  0  0  0  0  0
    3.5699   53.5797   27.1159 C   0  0  0  0  0  0
    4.7807   53.2730   27.7605 C   0  0  0  0  0  0
    5.9754   53.8558   27.3504 C   0  0  0  0  0  0
    5.9663   54.7309   26.2726 C   0  0  0  0  0  0
    4.7884   55.0274   25.6103 C   0  0  0  0  0  0
    3.5926   54.4724   26.0383 C   0  0  0  0  0  0
    7.1044   55.3077   25.8518 F   0  0  0  0  0  0
    2.6216   52.9938   30.0148 C   0  0  0  0  0  0
    2.7110   52.0969   30.8819 O   0  0  0  0  0  0
    0.2379   49.4594   22.9738 H   0  0  0  0  0  0
    0.6648   51.0602   22.3714 H   0  0  0  0  0  0
    1.8541   50.0929   23.2355 H   0  0  0  0  0  0
   -1.3755   50.1168   26.2248 H   0  0  0  0  0  0
   -3.0988   50.4513   27.9771 H   0  0  0  0  0  0
   -3.4052   49.0519   27.0218 H   0  0  0  0  0  0
   -5.3863   49.6661   28.4168 H   0  0  0  0  0  0
   -5.7903   49.7007   26.7228 H   0  0  0  0  0  0
   -5.2032   52.0927   28.5217 H   0  0  0  0  0  0
   -6.7235   51.7104   27.7638 H   0  0  0  0  0  0
   -5.4795   53.5705   26.5903 H   0  0  0  0  0  0
   -5.8401   52.2312   25.5365 H   0  0  0  0  0  0
   -3.4961   52.9801   25.2011 H   0  0  0  0  0  0
   -3.1494   52.8048   26.8810 H   0  0  0  0  0  0
    0.0587   51.6041   29.4426 H   0  0  0  0  0  0
    4.8177   52.5652   28.5748 H   0  0  0  0  0  0
    6.9002   53.6218   27.8565 H   0  0  0  0  0  0
    4.8106   55.6966   24.7676 H   0  0  0  0  0  0
    2.7033   54.7341   25.4966 H   0  0  0  0  0  0
    3.1043   54.1453   30.0817 O   0  5  0  0  0  0
  1  2  1  0  0  0
  1 30  1  0  0  0
  1 31  1  0  0  0
  1 32  1  0  0  0
  2  3  1  0  0  0
  2  4  1  0  0  0
  2 15  1  0  0  0
  4  5  2  0  0  0
  4  6  1  0  0  0
  6  7  1  0  0  0
  6 33  1  0  0  0
  7 12  1  0  0  0
  7  8  1  0  0  0
  7 13  1  0  0  0
  8  9  1  0  0  0
  8 34  1  0  0  0
  8 35  1  0  0  0
  9 10  1  0  0  0
  9 36  1  0  0  0
  9 37  1  0  0  0
 10 11  1  0  0  0
 10 38  1  0  0  0
 10 39  1  0  0  0
 11 12  1  0  0  0
 11 40  1  0  0  0
 11 41  1  0  0  0
 12 42  1  0  0  0
 12 43  1  0  0  0
 13 14  3  0  0  0
 15 16  1  0  0  0
 16 20  1  0  0  0
 16 17  2  0  0  0
 17 18  1  0  0  0
 18 19  2  0  0  0
 18 44  1  0  0  0
 19 20  1  0  0  0
 19 28  1  0  0  0
 20 21  1  0  0  0
 21 26  2  0  0  0
 21 22  1  0  0  0
 22 23  2  0  0  0
 22 45  1  0  0  0
 23 24  1  0  0  0
 23 46  1  0  0  0
 24 25  2  0  0  0
 24 27  1  0  0  0
 25 26  1  0  0  0
 25 47  1  0  0  0
 26 48  1  0  0  0
 28 29  2  0  0  0
 28 49  1  0  0  0
M  CHG  1  49  -1
M  END
> <i_i_glide_confnum>
198

> <i_i_glide_lignum>
1937

> <i_i_glide_posenum>
336

> <i_i_glide_rotatable_bonds>
8

> <i_m_Source_File_Index>
4130

> <b_m_subgroup_collapsed>
0

> <r_i_docking_score>
-6.21592

> <r_i_glide_ecoul>
-10.0322

> <r_i_glide_eff_state_penalty>
0

> <r_i_glide_einternal>
7.67754

> <r_i_glide_emodel>
-59.1824

> <r_i_glide_energy>
-43.1939

> <r_i_glide_erotb>
0.686419

> <r_i_glide_esite>
-0.0658392

> <r_i_glide_evdw>
-33.1617

> <r_i_glide_gscore>
-6.21592

> <r_i_glide_hbond>
-0.32

> <r_i_glide_ligand_efficiency>
-0.214342

> <r_i_glide_ligand_efficiency_ln>
-1.42329

> <r_i_glide_ligand_efficiency_sa>
-0.658527

> <r_i_glide_lipo>
-2.07022

> <r_i_glide_metal>
0

> <r_i_glide_rewards>
-1.28336

> <s_i_glide_gridfile>
wee1_glide-grid

> <s_m_Source_File>
wee1_decoys_glide_SP.sdf

> <s_m_Source_Path>
/Users/zhangxujun/Desktop

> <s_m_entry_id>
4405

> <s_m_entry_name>
wee1_decoys_glide_SP.4130

> <s_m_subgroup_title>
wee1_decoys_glide_SP

> <s_m_subgroupid>
wee1_decoys_glide_SP


$$$$
