ZINC39677661_2209
                    3D
 Schrodinger Suite 2024-2.
 71 75  0  0  1  0            999 V2000
   -0.1065   50.5962   24.5501 C   0  0  0  0  0  0
   -1.0178   51.4764   25.4646 C   0  0  0  0  0  0
   -2.1933   50.5863   25.9999 C   0  0  0  0  0  0
   -3.2152   50.1737   24.9119 C   0  0  0  0  0  0
   -3.7259   51.3762   24.0928 C   0  0  0  0  0  0
   -2.5758   52.2474   23.5494 C   0  0  0  0  0  0
   -1.6114   52.6770   24.6739 C   0  0  0  0  0  0
   -0.2253   52.0368   26.7088 C   0  0  0  0  0  0
   -0.8772   52.4766   27.6579 O   0  0  0  0  0  0
    1.1327   52.0578   26.7558 N   0  0  0  0  0  0
    1.9044   52.5671   25.6085 C   0  0  0  0  0  0
    3.1592   53.1961   26.2636 C   0  0  2  0  0  0
    3.9569   52.4966   26.4147 H   0  0  0  0  0  0
    2.7377   53.5964   27.6816 C   0  0  0  0  0  0
    1.8234   52.3975   28.0129 C   0  0  0  0  0  0
    1.9718   54.9255   27.7354 C   0  0  0  0  0  0
    1.4203   55.2594   29.1234 C   0  0  0  0  0  0
    2.6205   55.2955   30.0811 N   0  3  0  0  0  0
    3.4709   54.0007   30.0806 C   0  0  0  0  0  0
    3.9440   53.7596   28.6385 C   0  0  0  0  0  0
    3.7986   54.2257   25.3093 C   0  0  0  0  0  0
    3.1055   54.8965   24.5504 O   0  0  0  0  0  0
    5.1434   54.1706   25.2268 N   0  0  0  0  0  0
    6.0073   54.8841   24.2873 C   0  0  0  0  0  0
    5.8094   54.4971   22.8273 C   0  0  0  0  0  0
    4.9767   53.5560   22.2207 C   0  0  0  0  0  0
    5.0143   53.5600   20.8251 C   0  0  0  0  0  0
    5.8962   54.4952   20.2980 C   0  0  0  0  0  0
    6.7008   55.3353   21.5928 S   0  0  0  0  0  0
    6.1949   54.8007   18.8656 C   0  0  0  0  0  0
    5.8568   53.8963   17.8517 C   0  0  0  0  0  0
    6.1564   54.2251   16.5276 C   0  0  0  0  0  0
    6.7780   55.4425   16.2439 C   0  0  0  0  0  0
    7.0939   56.2908   17.3058 C   0  0  0  0  0  0
    6.8169   55.9845   18.5995 N   0  0  0  0  0  0
   -0.6825   49.9490   23.8931 H   0  0  0  0  0  0
    0.5066   51.1946   23.8787 H   0  0  0  0  0  0
    0.5471   49.9354   25.1235 H   0  0  0  0  0  0
   -2.7816   51.1280   26.7465 H   0  0  0  0  0  0
   -1.8040   49.6941   26.4965 H   0  0  0  0  0  0
   -4.0600   49.6684   25.3838 H   0  0  0  0  0  0
   -2.7805   49.4322   24.2421 H   0  0  0  0  0  0
   -4.3694   51.9900   24.7257 H   0  0  0  0  0  0
   -4.3529   51.0288   23.2693 H   0  0  0  0  0  0
   -2.9834   53.1322   23.0571 H   0  0  0  0  0  0
   -2.0315   51.7008   22.7776 H   0  0  0  0  0  0
   -0.8193   53.3002   24.2554 H   0  0  0  0  0  0
   -2.1968   53.2969   25.3529 H   0  0  0  0  0  0
    2.2730   51.8124   24.9134 H   0  0  0  0  0  0
    1.3333   53.3764   25.1465 H   0  0  0  0  0  0
    1.2144   52.4828   28.9117 H   0  0  0  0  0  0
    2.5137   51.5760   28.2008 H   0  0  0  0  0  0
    2.6396   55.6981   27.3694 H   0  0  0  0  0  0
    1.1055   54.8859   27.0847 H   0  0  0  0  0  0
    0.9750   56.2554   29.1549 H   0  0  0  0  0  0
    0.7019   54.5310   29.5060 H   0  0  0  0  0  0
    3.2121   56.0648   29.7893 H   0  0  0  0  0  0
    4.3157   54.1572   30.7530 H   0  0  0  0  0  0
    2.8452   53.1947   30.4693 H   0  0  0  0  0  0
    4.5427   52.8455   28.6343 H   0  0  0  0  0  0
    4.6215   54.5464   28.3006 H   0  0  0  0  0  0
    5.6169   53.5342   25.8486 H   0  0  0  0  0  0
    5.8953   55.9587   24.4390 H   0  0  0  0  0  0
    7.0418   54.6845   24.5677 H   0  0  0  0  0  0
    4.3214   52.9023   22.7764 H   0  0  0  0  0  0
    4.4009   52.9109   20.2173 H   0  0  0  0  0  0
    5.3843   52.9482   18.0736 H   0  0  0  0  0  0
    5.9056   53.5388   15.7304 H   0  0  0  0  0  0
    7.0117   55.7190   15.2255 H   0  0  0  0  0  0
    7.5730   57.2427   17.1316 H   0  0  0  0  0  0
    2.2905   55.5472   31.0058 H   0  0  0  0  0  0
  1  2  1  0  0  0
  1 36  1  0  0  0
  1 37  1  0  0  0
  1 38  1  0  0  0
  2  7  1  0  0  0
  2  3  1  0  0  0
  2  8  1  0  0  0
  3  4  1  0  0  0
  3 39  1  0  0  0
  3 40  1  0  0  0
  4  5  1  0  0  0
  4 41  1  0  0  0
  4 42  1  0  0  0
  5  6  1  0  0  0
  5 43  1  0  0  0
  5 44  1  0  0  0
  6  7  1  0  0  0
  6 45  1  0  0  0
  6 46  1  0  0  0
  7 47  1  0  0  0
  7 48  1  0  0  0
  8  9  2  0  0  0
  8 10  1  0  0  0
 10 15  1  0  0  0
 10 11  1  0  0  0
 11 12  1  0  0  0
 11 49  1  0  0  0
 11 50  1  0  0  0
 12 13  1  0  0  0
 12 14  1  0  0  0
 12 21  1  0  0  0
 14 20  1  0  0  0
 14 15  1  0  0  0
 14 16  1  0  0  0
 15 51  1  0  0  0
 15 52  1  0  0  0
 16 17  1  0  0  0
 16 53  1  0  0  0
 16 54  1  0  0  0
 17 18  1  0  0  0
 17 55  1  0  0  0
 17 56  1  0  0  0
 18 19  1  0  0  0
 18 57  1  0  0  0
 18 71  1  0  0  0
 19 20  1  0  0  0
 19 58  1  0  0  0
 19 59  1  0  0  0
 20 60  1  0  0  0
 20 61  1  0  0  0
 21 22  2  0  0  0
 21 23  1  0  0  0
 23 24  1  0  0  0
 23 62  1  0  0  0
 24 25  1  0  0  0
 24 63  1  0  0  0
 24 64  1  0  0  0
 25 29  1  0  0  0
 25 26  2  0  0  0
 26 27  1  0  0  0
 26 65  1  0  0  0
 27 28  2  0  0  0
 27 66  1  0  0  0
 28 29  1  0  0  0
 28 30  1  0  0  0
 30 35  2  0  0  0
 30 31  1  0  0  0
 31 32  2  0  0  0
 31 67  1  0  0  0
 32 33  1  0  0  0
 32 68  1  0  0  0
 33 34  2  0  0  0
 33 69  1  0  0  0
 34 35  1  0  0  0
 34 70  1  0  0  0
M  CHG  1  18   1
M  END
> <i_i_glide_confnum>
506

> <i_i_glide_lignum>
2210

> <i_i_glide_posenum>
341

> <i_i_glide_rotatable_bonds>
7

> <i_m_Source_File_Index>
2679

> <b_m_subgroup_collapsed>
0

> <r_i_docking_score>
-3.19602

> <r_i_glide_ecoul>
0.22135

> <r_i_glide_eff_state_penalty>
0

> <r_i_glide_einternal>
4.29909

> <r_i_glide_emodel>
-36.5278

> <r_i_glide_energy>
-32.3636

> <r_i_glide_erotb>
0.612112

> <r_i_glide_esite>
-0.0525132

> <r_i_glide_evdw>
-32.5849

> <r_i_glide_gscore>
-3.19602

> <r_i_glide_hbond>
0

> <r_i_glide_ligand_efficiency>
-0.0940007

> <r_i_glide_ligand_efficiency_ln>
-0.706091

> <r_i_glide_ligand_efficiency_sa>
-0.304526

> <r_i_glide_lipo>
-2.55985

> <r_i_glide_metal>
0

> <r_i_glide_rewards>
0.400269

> <s_i_glide_gridfile>
wee1_glide-grid

> <s_m_Source_File>
wee1_decoys_glide_SP.sdf

> <s_m_Source_Path>
/Users/zhangxujun/Desktop

> <s_m_entry_id>
2954

> <s_m_entry_name>
wee1_decoys_glide_SP.2679

> <s_m_subgroup_title>
wee1_decoys_glide_SP

> <s_m_subgroupid>
wee1_decoys_glide_SP


$$$$
