@<TRIPOS>MOLECULE
ZINC38565700_5210
57   60    1
SMALL
USER_CHARGES


@<TRIPOS>ATOM
      1 C1          7.1978   55.3236   19.7217 C.ar      1 UNK         0.0000 
      2 C2          6.0718   54.5456   19.4713 C.ar      1 UNK         0.0000 
      3 C3          5.2773   54.1264   20.5337 C.ar      1 UNK         0.0000 
      4 C4          5.5799   54.4965   21.8551 C.ar      1 UNK         0.0000 
      5 C5          6.7038   55.3029   22.0824 C.ar      1 UNK         0.0000 
      6 C6          7.5200   55.6969   21.0233 C.ar      1 UNK         0.0000 
      7 C7          4.6805   53.9599   22.9927 C.3       1 UNK         0.0000 
      8 C8          5.0039   54.3170   24.4699 C.ar      1 UNK         0.0000 
      9 C9          6.2876   54.0960   24.9852 C.ar      1 UNK         0.0000 
     10 C10         6.5480   54.2509   26.3444 C.ar      1 UNK         0.0000 
     11 C11         5.5311   54.6338   27.2061 C.ar      1 UNK         0.0000 
     12 C12         4.2552   54.8802   26.7144 C.ar      1 UNK         0.0000 
     13 C13         3.9981   54.7350   25.3552 C.ar      1 UNK         0.0000 
     14 N14         3.2567   54.0209   22.6110 N.am      1 UNK         0.0000 
     15 C15         2.2908   53.1651   22.9834 C.2       1 UNK         0.0000 
     16 O16         2.3039   52.4971   24.0160 O.2       1 UNK         0.0000 
     17 N17         1.3069   53.1135   22.0824 N.am      1 UNK         0.0000 
     18 C18         0.0289   52.4263   22.2733 C.3       1 UNK         0.0000 
     19 C19         0.0906   50.8820   22.1757 C.3       1 UNK         0.0000 
     20 H20         0.5326   50.4943   23.0942 H         1 UNK         0.0000 
     21 C21         0.8838   50.3637   20.9869 C.2       1 UNK         0.0000 
     22 C22         1.7519   49.2746   20.9361 C.2       1 UNK         0.0000 
     23 C23         2.3044   49.0373   19.6775 C.2       1 UNK         0.0000 
     24 C24         1.9040   49.9627   18.7353 C.2       1 UNK         0.0000 
     25 S25         0.7973   51.1105   19.4046 S.3       1 UNK         0.0000 
     26 S26        -1.6819   50.2006   22.1769 S.o2      1 UNK         0.0000 
     27 O27        -1.6150   48.7356   22.2200 O.2       1 UNK         0.0000 
     28 O28        -2.4404   50.8787   21.1170 O.2       1 UNK         0.0000 
     29 C29        -2.3766   50.7406   23.7370 C.ar      1 UNK         0.0000 
     30 C30        -3.0683   51.9517   23.7989 C.ar      1 UNK         0.0000 
     31 C31        -3.6419   52.3594   24.9985 C.ar      1 UNK         0.0000 
     32 C32        -3.5261   51.5533   26.1282 C.ar      1 UNK         0.0000 
     33 C33        -2.8264   50.3509   26.0744 C.ar      1 UNK         0.0000 
     34 C34        -2.2429   49.9428   24.8767 C.ar      1 UNK         0.0000 
     35 F35        -4.1070   51.9429   27.2823 F         1 UNK         0.0000 
     36 H36         7.8302   55.6300   18.8997 H         1 UNK         0.0000 
     37 H37         5.8271   54.2493   18.4619 H         1 UNK         0.0000 
     38 H38         4.4267   53.4970   20.3182 H         1 UNK         0.0000 
     39 H39         6.9725   55.6378   23.0695 H         1 UNK         0.0000 
     40 H40         8.4076   56.2826   21.2136 H         1 UNK         0.0000 
     41 H41         4.9267   52.8968   22.9676 H         1 UNK         0.0000 
     42 H42         7.0772   53.7347   24.3436 H         1 UNK         0.0000 
     43 H43         7.5224   54.0372   26.7469 H         1 UNK         0.0000 
     44 H44         5.7335   54.7422   28.2617 H         1 UNK         0.0000 
     45 H45         3.4611   55.1716   27.3853 H         1 UNK         0.0000 
     46 H46         2.9928   54.9044   25.0101 H         1 UNK         0.0000 
     47 H47         3.0321   54.6908   21.8877 H         1 UNK         0.0000 
     48 H48         1.4330   53.6016   21.2042 H         1 UNK         0.0000 
     49 H49        -0.6552   52.8030   21.5134 H         1 UNK         0.0000 
     50 H50        -0.3866   52.7266   23.2363 H         1 UNK         0.0000 
     51 H51         1.9757   48.6638   21.7994 H         1 UNK         0.0000 
     52 H52         2.9969   48.2374   19.4599 H         1 UNK         0.0000 
     53 H53         2.2182   50.0210   17.7013 H         1 UNK         0.0000 
     54 H54        -3.1711   52.5711   22.9199 H         1 UNK         0.0000 
     55 H55        -4.1896   53.2887   25.0550 H         1 UNK         0.0000 
     56 H56        -2.7463   49.7294   26.9562 H         1 UNK         0.0000 
     57 H57        -1.7042   49.0062   24.8371 H         1 UNK         0.0000 
@<TRIPOS>BOND
     1    1    6 ar   
     2    1    2 ar   
     3    1   36 1    
     4    2    3 ar   
     5    2   37 1    
     6    3    4 ar   
     7    3   38 1    
     8    4    5 ar   
     9    4    7 1    
    10    5    6 ar   
    11    5   39 1    
    12    6   40 1    
    13    7    8 1    
    14    7   14 1    
    15    7   41 1    
    16    8   13 ar   
    17    8    9 ar   
    18    9   10 ar   
    19    9   42 1    
    20   10   11 ar   
    21   10   43 1    
    22   11   12 ar   
    23   11   44 1    
    24   12   13 ar   
    25   12   45 1    
    26   13   46 1    
    27   14   15 am   BACKBONE|DICT|INTERRES
    28   14   47 1    
    29   15   16 2    
    30   15   17 am   BACKBONE|DICT|INTERRES
    31   17   18 1    
    32   17   48 1    
    33   18   19 1    
    34   18   49 1    
    35   18   50 1    
    36   19   20 1    
    37   19   21 1    
    38   19   26 1    
    39   21   25 1    
    40   21   22 2    
    41   22   23 1    
    42   22   51 1    
    43   23   24 2    
    44   23   52 1    
    45   24   25 1    
    46   24   53 1    
    47   26   27 2    
    48   26   28 2    
    49   26   29 1    
    50   29   34 ar   
    51   29   30 ar   
    52   30   31 ar   
    53   30   54 1    
    54   31   32 ar   
    55   31   55 1    
    56   32   33 ar   
    57   32   35 1    
    58   33   34 ar   
    59   33   56 1    
    60   34   57 1    
@<TRIPOS>SUBSTRUCTURE
     1 UNK         1 GROUP             0       ****    0 ROOT    
