@<TRIPOS>MOLECULE
ZINC20101741_3008
63   65    1
SMALL
USER_CHARGES


@<TRIPOS>ATOM
      1 C1          0.3045   52.4394   31.2451 C.3       1 UNK         0.0000 
      2 C2          0.7676   52.6716   29.8235 C.ar      1 UNK         0.0000 
      3 C3          1.5832   53.7668   29.5331 C.ar      1 UNK         0.0000 
      4 C4          2.0127   53.9829   28.2280 C.ar      1 UNK         0.0000 
      5 C5          1.6156   53.1066   27.2073 C.ar      1 UNK         0.0000 
      6 C6          0.7791   52.0275   27.4981 C.ar      1 UNK         0.0000 
      7 C7          0.3632   51.8031   28.8057 C.ar      1 UNK         0.0000 
      8 N8          1.9637   53.2947   25.8653 N.am      1 UNK         0.0000 
      9 C9          3.0806   53.8656   25.3654 C.2       1 UNK         0.0000 
     10 O10         4.0452   54.2170   26.0491 O.2       1 UNK         0.0000 
     11 C11         3.1355   54.0900   23.8508 C.3       1 UNK         0.0000 
     12 S12         1.5045   54.2817   23.0462 S.3       1 UNK         0.0000 
     13 C13         1.1498   52.6817   22.3427 C.2       1 UNK         0.0000 
     14 C14        -0.0138   51.9981   22.4373 C.2       1 UNK         0.0000 
     15 C15        -0.2296   50.6517   21.7171 C.3       1 UNK         0.0000 
     16 H16        -1.0984   50.7902   21.0703 H         1 UNK         0.0000 
     17 C17         0.9755   50.3144   20.7884 C.2       1 UNK         0.0000 
     18 C18         2.0974   51.0875   20.7759 C.2       1 UNK         0.0000 
     19 N19         2.1669   52.2285   21.5430 N.pl3     1 UNK         0.0000 
     20 C20         3.3302   50.9011   19.9100 C.3       1 UNK         0.0000 
     21 C21         0.8857   49.0759   19.9698 C.2       1 UNK         0.0000 
     22 O22         1.8643   48.4206   19.6081 O.2       1 UNK         0.0000 
     23 O23        -0.3923   48.7351   19.6544 O.3       1 UNK         0.0000 
     24 C24        -0.6945   47.6601   18.7689 C.3       1 UNK         0.0000 
     25 C25        -0.4973   46.2971   19.4059 C.2       1 UNK         0.0000 
     26 C26         0.2716   45.3298   18.8806 C.2       1 UNK         0.0000 
     27 C27        -0.6354   49.5207   22.6703 C.ar      1 UNK         0.0000 
     28 C28         0.1052   49.2819   23.8318 C.ar      1 UNK         0.0000 
     29 C29        -0.2682   48.2651   24.7034 C.ar      1 UNK         0.0000 
     30 C30        -1.3660   47.4590   24.4098 C.ar      1 UNK         0.0000 
     31 C31        -2.1167   47.6636   23.2448 C.ar      1 UNK         0.0000 
     32 C32        -1.7477   48.7162   22.3903 C.ar      1 UNK         0.0000 
     33 O33        -3.1775   46.8063   22.9941 O.3       1 UNK         0.0000 
     34 C34        -3.9959   47.0235   21.8491 C.3       1 UNK         0.0000 
     35 O35        -1.6955   46.4622   25.2855 O.3       1 UNK         0.0000 
     36 C36        -1.0834   52.4968   23.2390 C.1       1 UNK         0.0000 
     37 N37        -1.9715   52.8967   23.8613 N.1       1 UNK         0.0000 
     38 H38         1.1285   52.1017   31.8745 H         1 UNK         0.0000 
     39 H39        -0.0908   53.3586   31.6802 H         1 UNK         0.0000 
     40 H40        -0.4956   51.6977   31.2746 H         1 UNK         0.0000 
     41 H41         1.8769   54.4540   30.3117 H         1 UNK         0.0000 
     42 H42         2.6306   54.8437   28.0180 H         1 UNK         0.0000 
     43 H43         0.4502   51.3528   26.7193 H         1 UNK         0.0000 
     44 H44        -0.2732   50.9551   29.0248 H         1 UNK         0.0000 
     45 H45         1.3062   52.9270   25.1934 H         1 UNK         0.0000 
     46 H46         3.7191   53.2945   23.3917 H         1 UNK         0.0000 
     47 H47         3.6866   55.0127   23.6821 H         1 UNK         0.0000 
     48 H48         2.9459   52.8508   21.3851 H         1 UNK         0.0000 
     49 H49         3.0736   50.6239   18.8857 H         1 UNK         0.0000 
     50 H50         3.9583   51.7918   19.8462 H         1 UNK         0.0000 
     51 H51         3.9177   50.0967   20.3326 H         1 UNK         0.0000 
     52 H52        -0.1048   47.7417   17.8533 H         1 UNK         0.0000 
     53 H53        -1.7405   47.7500   18.4727 H         1 UNK         0.0000 
     54 H54        -1.0122   46.1289   20.3400 H         1 UNK         0.0000 
     55 H55         0.8061   45.4805   17.9524 H         1 UNK         0.0000 
     56 H56         0.3795   44.3755   19.3735 H         1 UNK         0.0000 
     57 H57         0.9718   49.8840   24.0617 H         1 UNK         0.0000 
     58 H58         0.3063   48.0983   25.6036 H         1 UNK         0.0000 
     59 H59        -2.3064   48.9070   21.4895 H         1 UNK         0.0000 
     60 H60        -4.7926   46.2792   21.8325 H         1 UNK         0.0000 
     61 H61        -4.4653   48.0086   21.8755 H         1 UNK         0.0000 
     62 H62        -3.4273   46.9195   20.9238 H         1 UNK         0.0000 
     63 H63        -1.1618   46.5142   26.0891 H         1 UNK         0.0000 
@<TRIPOS>BOND
     1    1    2 1    
     2    1   38 1    
     3    1   39 1    
     4    1   40 1    
     5    2    7 ar   
     6    2    3 ar   
     7    3    4 ar   
     8    3   41 1    
     9    4    5 ar   
    10    4   42 1    
    11    5    6 ar   
    12    5    8 1    
    13    6    7 ar   
    14    6   43 1    
    15    7   44 1    
    16    8    9 am   BACKBONE|DICT|INTERRES
    17    8   45 1    
    18    9   10 2    
    19    9   11 1    
    20   11   12 1    
    21   11   46 1    
    22   11   47 1    
    23   12   13 1    
    24   13   19 1    
    25   13   14 2    
    26   14   15 1    
    27   14   36 1    
    28   15   16 1    
    29   15   17 1    
    30   15   27 1    
    31   17   18 2    
    32   17   21 1    
    33   18   19 1    
    34   18   20 1    
    35   19   48 1    
    36   20   49 1    
    37   20   50 1    
    38   20   51 1    
    39   21   22 2    
    40   21   23 1    
    41   23   24 1    
    42   24   25 1    
    43   24   52 1    
    44   24   53 1    
    45   25   26 2    
    46   25   54 1    
    47   26   55 1    
    48   26   56 1    
    49   27   32 ar   
    50   27   28 ar   
    51   28   29 ar   
    52   28   57 1    
    53   29   30 ar   
    54   29   58 1    
    55   30   31 ar   
    56   30   35 1    
    57   31   32 ar   
    58   31   33 1    
    59   32   59 1    
    60   33   34 1    
    61   34   60 1    
    62   34   61 1    
    63   34   62 1    
    64   35   63 1    
    65   36   37 3    
@<TRIPOS>SUBSTRUCTURE
     1 UNK         1 GROUP             0       ****    0 ROOT    
