@<TRIPOS>MOLECULE
ZINC15443548_1726
25   25    1
SMALL
USER_CHARGES


@<TRIPOS>ATOM
      1 C1          0.2992   52.8966   24.6728 C.3       1 UNK         0.0000 
      2 C2          1.5640   53.1937   25.4720 C.ar      1 UNK         0.0000 
      3 C3          1.5529   52.8826   26.8354 C.ar      1 UNK         0.0000 
      4 C4          2.6475   53.1735   27.6544 C.ar      1 UNK         0.0000 
      5 C5          3.7793   53.7782   27.0912 C.ar      1 UNK         0.0000 
      6 C6          3.7906   54.0965   25.7343 C.ar      1 UNK         0.0000 
      7 C7          2.7035   53.8071   24.9049 C.ar      1 UNK         0.0000 
      8 N8          2.8296   54.1876   23.5570 N.pl3     1 UNK         0.0000 
      9 N9          2.2319   53.4207   22.4811 N.3       1 UNK         0.0000 
     10 Br10        5.3334   54.1899   28.1220 Br        1 UNK         0.0000 
     11 S11         2.5859   52.8222   29.4162 S.o2      1 UNK         0.0000 
     12 O12         3.4958   51.7016   29.6801 O.2       1 UNK         0.0000 
     13 O13         2.7882   54.1113   30.0817 O.2       1 UNK         0.0000 
     14 C14         0.8336   52.2487   29.8108 C.3       1 UNK         0.0000 
     15 H15        -0.5613   52.7007   25.3134 H         1 UNK         0.0000 
     16 H16         0.4504   52.0372   24.0195 H         1 UNK         0.0000 
     17 H17         0.0347   53.7535   24.0530 H         1 UNK         0.0000 
     18 H18         0.6705   52.4195   27.2480 H         1 UNK         0.0000 
     19 H19         4.6712   54.5683   25.3241 H         1 UNK         0.0000 
     20 H20         3.7265   54.5517   23.2610 H         1 UNK         0.0000 
     21 H21         1.9042   54.0580   21.7609 H         1 UNK         0.0000 
     22 H22         2.9169   52.7784   22.1034 H         1 UNK         0.0000 
     23 H23         0.7552   52.0964   30.8873 H         1 UNK         0.0000 
     24 H24         0.1292   53.0197   29.5041 H         1 UNK         0.0000 
     25 H25         0.6346   51.3116   29.2910 H         1 UNK         0.0000 
@<TRIPOS>BOND
     1    1    2 1    
     2    1   15 1    
     3    1   16 1    
     4    1   17 1    
     5    2    7 ar   
     6    2    3 ar   
     7    3    4 ar   
     8    3   18 1    
     9    4    5 ar   
    10    4   11 1    
    11    5    6 ar   
    12    5   10 1    
    13    6    7 ar   
    14    6   19 1    
    15    7    8 1    
    16    8    9 1    
    17    8   20 1    
    18    9   21 1    
    19    9   22 1    
    20   11   12 2    
    21   11   13 2    
    22   11   14 1    
    23   14   23 1    
    24   14   24 1    
    25   14   25 1    
@<TRIPOS>SUBSTRUCTURE
     1 UNK         1 GROUP             0       ****    0 ROOT    
