ZINC17087449_2603
                    3D
 Schrodinger Suite 2024-2.
 57 59  0  0  1  0            999 V2000
    2.3039   52.9250   30.2959 C   0  0  0  0  0  0
    1.5535   53.9642   29.4236 C   0  0  0  0  0  0
    0.0686   53.5185   29.3491 C   0  0  0  0  0  0
    1.5789   55.3376   30.1401 C   0  0  0  0  0  0
    2.1826   54.1154   27.9827 C   0  0  2  0  0  0
    1.7453   55.0298   27.5827 H   0  0  0  0  0  0
    1.9120   52.9324   27.0229 C   0  0  0  0  0  0
    2.2220   53.2971   25.5565 C   0  0  0  0  0  0
    3.6111   53.9424   25.4386 C   0  0  0  0  0  0
    4.4031   54.0967   24.2561 C   0  0  0  0  0  0
    5.6675   54.6007   24.5724 C   0  0  0  0  0  0
    5.9040   54.8967   26.2531 S   0  0  0  0  0  0
    4.2794   54.4014   26.5882 C   0  0  0  0  0  0
    3.7243   54.3659   28.0105 C   0  0  0  0  0  0
    4.0746   53.6967   22.8914 C   0  0  0  0  0  0
    4.9548   53.6203   22.0274 O   0  0  0  0  0  0
    2.7832   53.3648   22.6842 N   0  0  0  0  0  0
    2.3719   52.8967   21.4406 N   0  0  0  0  0  0
    2.0219   51.5964   21.3239 C   0  0  0  0  0  0
    2.1952   50.7575   22.2151 O   0  0  0  0  0  0
    1.2932   51.1682   20.0231 C   0  0  2  0  0  0
    1.8983   50.2988   19.7548 H   0  0  0  0  0  0
    1.4290   52.1512   18.8269 C   0  0  0  0  0  0
    0.9056   51.4847   17.5336 C   0  0  0  0  0  0
   -0.5204   50.9057   17.6785 C   0  0  0  0  0  0
   -0.6539   49.9691   18.9058 C   0  0  0  0  0  0
   -0.1601   50.6196   20.2314 C   0  0  2  0  0  0
   -0.1416   49.8357   20.9904 H   0  0  0  0  0  0
   -1.1520   51.6851   20.7928 C   0  0  0  0  0  0
   -2.0973   52.0966   20.0811 O   0  0  0  0  0  0
    1.7900   52.7534   31.2435 H   0  0  0  0  0  0
    3.3165   53.2433   30.5424 H   0  0  0  0  0  0
    2.3772   51.9603   29.7929 H   0  0  0  0  0  0
   -0.4929   54.0971   28.6158 H   0  0  0  0  0  0
   -0.0304   52.4671   29.0759 H   0  0  0  0  0  0
   -0.4391   53.6296   30.3087 H   0  0  0  0  0  0
    1.0555   56.1039   29.5669 H   0  0  0  0  0  0
    1.1042   55.2940   31.1216 H   0  0  0  0  0  0
    2.5940   55.6964   30.2911 H   0  0  0  0  0  0
    2.4209   52.0311   27.3642 H   0  0  0  0  0  0
    0.8569   52.6632   27.0354 H   0  0  0  0  0  0
    2.1480   52.3855   24.9625 H   0  0  0  0  0  0
    1.4626   53.9809   25.1755 H   0  0  0  0  0  0
    6.4849   54.7805   23.8875 H   0  0  0  0  0  0
    3.9618   55.2931   28.5314 H   0  0  0  0  0  0
    4.2307   53.5568   28.5359 H   0  0  0  0  0  0
    2.0177   53.6679   23.2674 H   0  0  0  0  0  0
    2.0570   53.6278   20.8151 H   0  0  0  0  0  0
    0.8355   53.0530   18.9888 H   0  0  0  0  0  0
    2.4752   52.3987   18.6337 H   0  0  0  0  0  0
    1.5883   50.6829   17.2443 H   0  0  0  0  0  0
    0.9278   52.2042   16.7141 H   0  0  0  0  0  0
   -0.7849   50.3591   16.7728 H   0  0  0  0  0  0
   -1.2365   51.7245   17.7446 H   0  0  0  0  0  0
   -0.0128   49.1112   18.6958 H   0  0  0  0  0  0
   -1.6646   49.5700   19.0046 H   0  0  0  0  0  0
   -0.9447   52.0967   21.9552 O   0  5  0  0  0  0
  1  2  1  0  0  0
  1 31  1  0  0  0
  1 32  1  0  0  0
  1 33  1  0  0  0
  2  3  1  0  0  0
  2  4  1  0  0  0
  2  5  1  0  0  0
  3 34  1  0  0  0
  3 35  1  0  0  0
  3 36  1  0  0  0
  4 37  1  0  0  0
  4 38  1  0  0  0
  4 39  1  0  0  0
  5  6  1  0  0  0
  5 14  1  0  0  0
  5  7  1  0  0  0
  7  8  1  0  0  0
  7 40  1  0  0  0
  7 41  1  0  0  0
  8  9  1  0  0  0
  8 42  1  0  0  0
  8 43  1  0  0  0
  9 13  2  0  0  0
  9 10  1  0  0  0
 10 11  2  0  0  0
 10 15  1  0  0  0
 11 12  1  0  0  0
 11 44  1  0  0  0
 12 13  1  0  0  0
 13 14  1  0  0  0
 14 45  1  0  0  0
 14 46  1  0  0  0
 15 16  2  0  0  0
 15 17  1  0  0  0
 17 18  1  0  0  0
 17 47  1  0  0  0
 18 19  1  0  0  0
 18 48  1  0  0  0
 19 20  2  0  0  0
 19 21  1  0  0  0
 21 22  1  0  0  0
 21 27  1  0  0  0
 21 23  1  0  0  0
 23 24  1  0  0  0
 23 49  1  0  0  0
 23 50  1  0  0  0
 24 25  1  0  0  0
 24 51  1  0  0  0
 24 52  1  0  0  0
 25 26  1  0  0  0
 25 53  1  0  0  0
 25 54  1  0  0  0
 26 27  1  0  0  0
 26 55  1  0  0  0
 26 56  1  0  0  0
 27 28  1  0  0  0
 27 29  1  0  0  0
 29 30  2  0  0  0
 29 57  1  0  0  0
M  CHG  1  57  -1
M  END
> <i_i_glide_confnum>
69

> <i_i_glide_lignum>
2604

> <i_i_glide_posenum>
60

> <i_i_glide_rotatable_bonds>
7

> <i_m_Source_File_Index>
169

> <b_m_subgroup_collapsed>
0

> <r_i_docking_score>
-6.56271

> <r_i_glide_ecoul>
-6.14086

> <r_i_glide_eff_state_penalty>
0

> <r_i_glide_einternal>
4.31917

> <r_i_glide_emodel>
-57.0891

> <r_i_glide_energy>
-42.5896

> <r_i_glide_erotb>
0.597534

> <r_i_glide_esite>
-0.0317233

> <r_i_glide_evdw>
-36.4487

> <r_i_glide_gscore>
-6.56271

> <r_i_glide_hbond>
-0.48

> <r_i_glide_ligand_efficiency>
-0.234383

> <r_i_glide_ligand_efficiency_ln>
-1.51487

> <r_i_glide_ligand_efficiency_sa>
-0.711724

> <r_i_glide_lipo>
-2.81278

> <r_i_glide_metal>
0

> <r_i_glide_rewards>
-1.09218

> <s_i_glide_gridfile>
wee1_glide-grid

> <s_m_Source_File>
wee1_decoys_glide_SP.sdf

> <s_m_Source_Path>
/Users/zhangxujun/Desktop

> <s_m_entry_id>
444

> <s_m_entry_name>
wee1_decoys_glide_SP.169

> <s_m_subgroup_title>
wee1_decoys_glide_SP

> <s_m_subgroupid>
wee1_decoys_glide_SP


$$$$
