@<TRIPOS>MOLECULE
ZINC00076371_1802
31   33    1
SMALL
USER_CHARGES


@<TRIPOS>ATOM
      1 C1          5.7723   54.0962   26.9310 C.ar      1 UNK         0.0000 
      2 C2          5.2826   53.5152   28.0969 C.ar      1 UNK         0.0000 
      3 C3          3.9128   53.3031   28.2452 C.ar      1 UNK         0.0000 
      4 C4          3.0264   53.6869   27.2301 C.ar      1 UNK         0.0000 
      5 C5          3.5360   54.2506   26.0530 C.ar      1 UNK         0.0000 
      6 C6          4.9044   54.4611   25.9047 C.ar      1 UNK         0.0000 
      7 C7          1.5078   53.5102   27.3782 C.3       1 UNK         0.0000 
      8 H8          1.1049   54.3932   26.8874 H         1 UNK         0.0000 
      9 C9          0.9574   53.5305   28.8076 C.ar      1 UNK         0.0000 
     10 C10         0.9661   54.4441   29.8754 C.ar      1 UNK         0.0000 
     11 N11         0.3445   53.9599   30.9429 N.2       1 UNK         0.0000 
     12 N12        -0.0733   52.7343   30.5981 N.pl3     1 UNK         0.0000 
     13 H13        -0.5937   52.1281   31.2270 H         1 UNK         0.0000 
     14 C14         0.2724   52.4528   29.3106 C.ar      1 UNK         0.0000 
     15 O15        -0.0635   51.2966   28.6611 O.3       1 UNK         0.0000 
     16 C16         0.2615   51.2967   27.3325 C.2       1 UNK         0.0000 
     17 C17         0.9356   52.2705   26.6658 C.2       1 UNK         0.0000 
     18 C18         1.1051   52.1732   25.2504 C.1       1 UNK         0.0000 
     19 N19         1.2193   52.1171   24.1017 N.1       1 UNK         0.0000 
     20 N20        -0.2269   50.1409   26.7899 N.pl3     1 UNK         0.0000 
     21 C21         1.6036   55.8158   29.8681 C.3       1 UNK         0.0000 
     22 F22         2.9087   55.6979   29.6654 F         1 UNK         0.0000 
     23 F23         1.1194   56.5552   28.8820 F         1 UNK         0.0000 
     24 F24         1.4176   56.4965   30.9980 F         1 UNK         0.0000 
     25 H25         6.8352   54.2531   26.8185 H         1 UNK         0.0000 
     26 H26         5.9642   53.2274   28.8815 H         1 UNK         0.0000 
     27 H27         3.5473   52.8492   29.1554 H         1 UNK         0.0000 
     28 H28         2.8698   54.5313   25.2481 H         1 UNK         0.0000 
     29 H29         5.2871   54.8996   24.9941 H         1 UNK         0.0000 
     30 H30        -0.0404   49.8821   25.8328 H         1 UNK         0.0000 
     31 H31        -0.7225   49.4649   27.3779 H         1 UNK         0.0000 
@<TRIPOS>BOND
     1    1    6 ar   
     2    1    2 ar   
     3    1   25 1    
     4    2    3 ar   
     5    2   26 1    
     6    3    4 ar   
     7    3   27 1    
     8    4    5 ar   
     9    4    7 1    
    10    5    6 ar   
    11    5   28 1    
    12    6   29 1    
    13    7    8 1    
    14    7   17 1    
    15    7    9 1    
    16    9   14 ar   
    17    9   10 ar   
    18   10   11 ar   
    19   10   21 1    
    20   11   12 ar   
    21   12   13 1    
    22   12   14 ar   
    23   14   15 1    
    24   15   16 1    
    25   16   17 2    
    26   16   20 1    
    27   17   18 1    
    28   18   19 3    
    29   20   30 1    
    30   20   31 1    
    31   21   22 1    
    32   21   23 1    
    33   21   24 1    
@<TRIPOS>SUBSTRUCTURE
     1 UNK         1 GROUP             0       ****    0 ROOT    
