@<TRIPOS>MOLECULE
ZINC09410762_4316
47   51    1
SMALL
USER_CHARGES


@<TRIPOS>ATOM
      1 C1          0.3772   50.9193   21.2053 C.2       1 UNK         0.0000 
      2 C2          1.4057   51.8512   21.3619 C.2       1 UNK         0.0000 
      3 C3          2.5598   51.5763   20.6205 C.2       1 UNK         0.0000 
      4 S4          2.3046   50.1279   19.6813 S.3       1 UNK         0.0000 
      5 C5          0.7126   49.9118   20.3210 C.2       1 UNK         0.0000 
      6 C6          3.8673   52.3451   20.5341 C.3       1 UNK         0.0000 
      7 H7          4.6842   51.6259   20.4482 H         1 UNK         0.0000 
      8 C8          3.9166   53.2957   19.3202 C.3       1 UNK         0.0000 
      9 C9          5.2767   54.0278   19.1934 C.3       1 UNK         0.0000 
     10 H10         6.0200   53.2837   18.9013 H         1 UNK         0.0000 
     11 N11         5.6543   54.4948   20.5421 N.pl3     1 UNK         0.0000 
     12 C12         5.1772   53.9887   21.7442 C.ar      1 UNK         0.0000 
     13 C13         5.9040   54.6216   22.7551 C.ar      1 UNK         0.0000 
     14 C14         6.8706   55.3480   22.0482 C.ar      1 UNK         0.0000 
     15 N15         6.7127   55.2967   20.7483 N.2       1 UNK         0.0000 
     16 C16         5.7820   54.5194   24.1922 C.2       1 UNK         0.0000 
     17 O17         6.7044   54.8614   24.9295 O.2       1 UNK         0.0000 
     18 N18         4.5628   54.0969   24.5807 N.am      1 UNK         0.0000 
     19 C19         4.0445   53.8851   25.8525 C.2       1 UNK         0.0000 
     20 C20         4.5960   53.7208   27.1478 C.2       1 UNK         0.0000 
     21 C21         3.5780   53.5253   28.0949 C.2       1 UNK         0.0000 
     22 C22         2.3143   53.4821   27.5586 C.2       1 UNK         0.0000 
     23 S23         2.3101   53.6967   25.8503 S.3       1 UNK         0.0000 
     24 C24         1.2454   53.2320   28.5872 C.3       1 UNK         0.0000 
     25 C25         2.0929   52.7871   29.7912 C.3       1 UNK         0.0000 
     26 C26         3.5041   53.3675   29.5944 C.3       1 UNK         0.0000 
     27 C27         5.9949   53.7106   27.5438 C.1       1 UNK         0.0000 
     28 N28         7.1044   53.6966   27.8651 N.1       1 UNK         0.0000 
     29 N29         4.1077   53.1089   21.7596 N.pl3     1 UNK         0.0000 
     30 C30         5.2819   55.1229   18.0971 C.3       1 UNK         0.0000 
     31 F31         4.8602   54.6328   16.9310 F         1 UNK         0.0000 
     32 F32         4.4714   56.1339   18.4097 F         1 UNK         0.0000 
     33 F33         6.4990   55.6245   17.8897 F         1 UNK         0.0000 
     34 H34        -0.5729   50.9816   21.7147 H         1 UNK         0.0000 
     35 H35         1.3194   52.7149   22.0050 H         1 UNK         0.0000 
     36 H36         0.1126   49.0694   20.0108 H         1 UNK         0.0000 
     37 H37         3.1046   54.0220   19.3721 H         1 UNK         0.0000 
     38 H38         3.7260   52.7336   18.4034 H         1 UNK         0.0000 
     39 H39         7.6608   55.9420   22.4818 H         1 UNK         0.0000 
     40 H40         3.8928   54.0235   23.8304 H         1 UNK         0.0000 
     41 H41         0.5452   52.4465   28.2994 H         1 UNK         0.0000 
     42 H42         0.6673   54.1309   28.8056 H         1 UNK         0.0000 
     43 H43         2.1521   51.6974   29.7974 H         1 UNK         0.0000 
     44 H44         1.6472   53.0797   30.7429 H         1 UNK         0.0000 
     45 H45         3.5919   54.3380   30.0830 H         1 UNK         0.0000 
     46 H46         4.2761   52.7172   30.0075 H         1 UNK         0.0000 
     47 H47         4.0008   52.5025   22.5590 H         1 UNK         0.0000 
@<TRIPOS>BOND
     1    1    5 2    
     2    1    2 1    
     3    1   34 1    
     4    2    3 2    
     5    2   35 1    
     6    3    4 1    
     7    3    6 1    
     8    4    5 1    
     9    5   36 1    
    10    6    7 1    
    11    6   29 1    
    12    6    8 1    
    13    8    9 1    
    14    8   37 1    
    15    8   38 1    
    16    9   10 1    
    17    9   11 1    
    18    9   30 1    
    19   11   15 ar   
    20   11   12 ar   
    21   12   13 ar   
    22   12   29 1    
    23   13   14 ar   
    24   13   16 1    
    25   14   15 ar   
    26   14   39 1    
    27   16   17 2    
    28   16   18 am   BACKBONE|DICT|INTERRES
    29   18   19 am   BACKBONE|DICT|INTERRES
    30   18   40 1    
    31   19   23 1    
    32   19   20 2    
    33   20   21 1    
    34   20   27 1    
    35   21   26 1    
    36   21   22 2    
    37   22   23 1    
    38   22   24 1    
    39   24   25 1    
    40   24   41 1    
    41   24   42 1    
    42   25   26 1    
    43   25   43 1    
    44   25   44 1    
    45   26   45 1    
    46   26   46 1    
    47   27   28 3    
    48   29   47 1    
    49   30   31 1    
    50   30   32 1    
    51   30   33 1    
@<TRIPOS>SUBSTRUCTURE
     1 UNK         1 GROUP             0       ****    0 ROOT    
