@<TRIPOS>MOLECULE
ZINC12206307_5077
76   80    1
SMALL
USER_CHARGES


@<TRIPOS>ATOM
      1 C1          1.3388   52.4383   29.9973 C.ar      1 UNK         0.0000 
      2 C2          0.3514   51.7301   29.3096 C.ar      1 UNK         0.0000 
      3 C3          0.3841   51.6556   27.9186 C.ar      1 UNK         0.0000 
      4 C4          1.4218   52.2907   27.2247 C.ar      1 UNK         0.0000 
      5 C5          2.4252   53.0015   27.8971 C.ar      1 UNK         0.0000 
      6 C6          2.3763   53.0591   29.2966 C.ar      1 UNK         0.0000 
      7 N7          3.4441   53.5925   27.1539 N.pl3     1 UNK         0.0000 
      8 C8          3.0846   54.4917   26.0537 C.3       1 UNK         0.0000 
      9 C9          4.0620   54.3356   24.8874 C.3       1 UNK         0.0000 
     10 C10         5.5138   54.6651   25.2762 C.3       1 UNK         0.0000 
     11 C11         5.8545   53.9602   26.6211 C.3       1 UNK         0.0000 
     12 C12         4.7407   54.0178   27.7012 C.3       1 UNK         0.0000 
     13 C13         6.5867   54.8213   22.8425 C.3       1 UNK         0.0000 
     14 C14         5.4887   54.4715   21.7926 C.3       1 UNK         0.0000 
     15 H15         4.5769   55.0370   21.9882 H         1 UNK         0.0000 
     16 C16         5.9250   54.9655   20.4004 C.3       1 UNK         0.0000 
     17 C17         4.8552   54.6555   19.3505 C.3       1 UNK         0.0000 
     18 C18         4.4280   53.1751   19.3751 C.3       1 UNK         0.0000 
     19 N19         3.9918   52.7075   20.7098 N.pl3     1 UNK         0.0000 
     20 C20         5.0609   52.9768   21.6994 C.3       1 UNK         0.0000 
     21 C21         3.1119   51.6214   20.8387 C.ar      1 UNK         0.0000 
     22 N22         2.4263   51.2092   19.7302 N.ar      1 UNK         0.0000 
     23 C23         1.5533   50.1802   19.8805 C.ar      1 UNK         0.0000 
     24 C24         1.3224   49.5702   21.1140 C.ar      1 UNK         0.0000 
     25 C25         2.0412   50.0660   22.2040 C.ar      1 UNK         0.0000 
     26 N26         2.9230   51.0919   22.0816 N.ar      1 UNK         0.0000 
     27 N27        -0.6084   50.8967   27.2794 N.am      1 UNK         0.0000 
     28 C28        -1.1964   51.1612   26.0966 C.2       1 UNK         0.0000 
     29 O29        -0.9336   52.1321   25.3863 O.2       1 UNK         0.0000 
     30 C30        -2.2830   50.1697   25.6537 C.3       1 UNK         0.0000 
     31 C31        -3.7432   50.5699   26.0079 C.3       1 UNK         0.0000 
     32 C32        -4.0505   50.7387   27.5055 C.3       1 UNK         0.0000 
     33 C33        -5.3907   51.4774   27.5538 C.3       1 UNK         0.0000 
     34 C34        -5.4494   52.3253   26.2723 C.3       1 UNK         0.0000 
     35 C35        -4.2653   51.8847   25.3970 C.3       1 UNK         0.0000 
     36 H36         1.2997   52.4961   31.0761 H         1 UNK         0.0000 
     37 H37        -0.4494   51.2549   29.8637 H         1 UNK         0.0000 
     38 H38         1.4721   52.1988   26.1496 H         1 UNK         0.0000 
     39 H39         3.1337   53.5957   29.8473 H         1 UNK         0.0000 
     40 H40         2.0753   54.3060   25.6866 H         1 UNK         0.0000 
     41 H41         3.1046   55.5072   26.4460 H         1 UNK         0.0000 
     42 H42         3.9864   53.2963   24.5748 H         1 UNK         0.0000 
     43 H43         3.7402   54.9022   24.0172 H         1 UNK         0.0000 
     44 H44         5.6319   55.7405   25.4140 H         1 UNK         0.0000 
     45 H45         6.8019   54.3315   27.0158 H         1 UNK         0.0000 
     46 H46         6.0467   52.8973   26.4749 H         1 UNK         0.0000 
     47 H47         4.6578   55.0095   28.1469 H         1 UNK         0.0000 
     48 H48         5.0215   53.3313   28.5014 H         1 UNK         0.0000 
     49 H49         6.6603   55.8870   23.0641 H         1 UNK         0.0000 
     50 H50         7.5690   54.5073   22.4833 H         1 UNK         0.0000 
     51 H51         6.1338   56.0371   20.4209 H         1 UNK         0.0000 
     52 H52         6.8666   54.4969   20.1108 H         1 UNK         0.0000 
     53 H53         3.9769   55.2957   19.4630 H         1 UNK         0.0000 
     54 H54         5.2468   54.8901   18.3601 H         1 UNK         0.0000 
     55 H55         3.6059   53.0871   18.6640 H         1 UNK         0.0000 
     56 H56         5.2221   52.5222   19.0097 H         1 UNK         0.0000 
     57 H57         5.9042   52.3059   21.5416 H         1 UNK         0.0000 
     58 H58         4.6865   52.7085   22.6782 H         1 UNK         0.0000 
     59 H59         1.0430   49.8528   18.9855 H         1 UNK         0.0000 
     60 H60         0.6239   48.7527   21.2191 H         1 UNK         0.0000 
     61 H61         1.9207   49.6441   23.1924 H         1 UNK         0.0000 
     62 H62        -0.9430   50.0705   27.7744 H         1 UNK         0.0000 
     63 H63        -2.0697   49.1890   26.0819 H         1 UNK         0.0000 
     64 H64        -2.1942   50.0381   24.5744 H         1 UNK         0.0000 
     65 H65        -4.4124   49.7823   25.6549 H         1 UNK         0.0000 
     66 H66        -3.3006   51.3765   27.9735 H         1 UNK         0.0000 
     67 H67        -4.0257   49.7953   28.0536 H         1 UNK         0.0000 
     68 H68        -5.4910   52.0818   28.4558 H         1 UNK         0.0000 
     69 H69        -6.2076   50.7544   27.5595 H         1 UNK         0.0000 
     70 H70        -5.3896   53.3917   26.5005 H         1 UNK         0.0000 
     71 H71        -6.3955   52.1650   25.7544 H         1 UNK         0.0000 
     72 H72        -4.5008   51.7958   24.3356 H         1 UNK         0.0000 
     73 H73        -3.5078   52.6635   25.4816 H         1 UNK         0.0000 
     74 N74         6.4664   54.0970   24.2023 N.4       1 UNK         0.0000 
     75 H75         7.3856   54.0646   24.6156 H         1 UNK         0.0000 
     76 H76         6.2208   53.1301   24.0466 H         1 UNK         0.0000 
@<TRIPOS>BOND
     1    1    6 ar   
     2    1    2 ar   
     3    1   36 1    
     4    2    3 ar   
     5    2   37 1    
     6    3    4 ar   
     7    3   27 1    
     8    4    5 ar   
     9    4   38 1    
    10    5    6 ar   
    11    5    7 1    
    12    6   39 1    
    13    7   12 1    
    14    7    8 1    
    15    8    9 1    
    16    8   40 1    
    17    8   41 1    
    18    9   10 1    
    19    9   42 1    
    20    9   43 1    
    21   10   11 1    
    22   10   44 1    
    23   10   74 1    
    24   11   12 1    
    25   11   45 1    
    26   11   46 1    
    27   12   47 1    
    28   12   48 1    
    29   13   14 1    
    30   13   49 1    
    31   13   50 1    
    32   13   74 1    
    33   14   15 1    
    34   14   20 1    
    35   14   16 1    
    36   16   17 1    
    37   16   51 1    
    38   16   52 1    
    39   17   18 1    
    40   17   53 1    
    41   17   54 1    
    42   18   19 1    
    43   18   55 1    
    44   18   56 1    
    45   19   20 1    
    46   19   21 1    
    47   20   57 1    
    48   20   58 1    
    49   21   26 ar   
    50   21   22 ar   
    51   22   23 ar   
    52   23   24 ar   
    53   23   59 1    
    54   24   25 ar   
    55   24   60 1    
    56   25   26 ar   
    57   25   61 1    
    58   27   28 am   BACKBONE|DICT|INTERRES
    59   27   62 1    
    60   28   29 2    
    61   28   30 1    
    62   30   31 1    
    63   30   63 1    
    64   30   64 1    
    65   31   35 1    
    66   31   32 1    
    67   31   65 1    
    68   32   33 1    
    69   32   66 1    
    70   32   67 1    
    71   33   34 1    
    72   33   68 1    
    73   33   69 1    
    74   34   35 1    
    75   34   70 1    
    76   34   71 1    
    77   35   72 1    
    78   35   73 1    
    79   74   75 1    
    80   74   76 1    
@<TRIPOS>SUBSTRUCTURE
     1 UNK         1 GROUP             0       ****    0 ROOT    
