@<TRIPOS>MOLECULE
ZINC02089875_2845
49   52    1
SMALL
USER_CHARGES


@<TRIPOS>ATOM
      1 C1          6.7750   54.8874   18.0871 C.3       1 UNK         0.0000 
      2 C2          6.4281   54.9105   19.5701 C.2       1 UNK         0.0000 
      3 C3          7.3181   55.4378   20.5116 C.2       1 UNK         0.0000 
      4 S4          6.7045   55.2965   22.1141 S.3       1 UNK         0.0000 
      5 C5          5.2797   54.4704   21.5565 C.2       1 UNK         0.0000 
      6 C6          5.2666   54.3157   20.1512 C.2       1 UNK         0.0000 
      7 C7          4.2101   53.6478   19.3571 C.2       1 UNK         0.0000 
      8 O8          4.0313   53.8426   18.1530 O.2       1 UNK         0.0000 
      9 O9          3.4677   52.7950   20.1063 O.3       1 UNK         0.0000 
     10 C10         2.4387   52.0206   19.5059 C.3       1 UNK         0.0000 
     11 N11         4.2692   54.0545   22.4280 N.am      1 UNK         0.0000 
     12 C12         4.2062   54.0968   23.7805 C.2       1 UNK         0.0000 
     13 O13         5.1195   54.4958   24.5063 O.2       1 UNK         0.0000 
     14 C14         2.9486   53.6204   24.3579 C.2       1 UNK         0.0000 
     15 C15         2.6018   53.4907   25.7120 C.2       1 UNK         0.0000 
     16 C16         1.3059   52.8961   25.9303 C.ar      1 UNK         0.0000 
     17 C17         0.5916   52.4965   27.0991 C.ar      1 UNK         0.0000 
     18 C18        -0.7028   51.9856   26.9341 C.ar      1 UNK         0.0000 
     19 C19        -1.2611   51.8852   25.6587 C.ar      1 UNK         0.0000 
     20 N20        -0.5974   52.2317   24.5275 N.ar      1 UNK         0.0000 
     21 C21         0.6370   52.7059   24.6833 C.ar      1 UNK         0.0000 
     22 S22         1.6039   53.1722   23.3078 S.3       1 UNK         0.0000 
     23 C23        -2.6871   51.3758   25.4428 C.3       1 UNK         0.0000 
     24 F24        -3.3064   51.1039   26.5935 F         1 UNK         0.0000 
     25 F25        -3.4013   52.3043   24.8011 F         1 UNK         0.0000 
     26 F26        -2.6698   50.2653   24.7025 F         1 UNK         0.0000 
     27 C27         1.1050   52.5662   28.5012 C.2       1 UNK         0.0000 
     28 C28         2.3197   52.2749   29.1114 C.2       1 UNK         0.0000 
     29 C29         2.1638   52.4965   30.4811 C.2       1 UNK         0.0000 
     30 C30         0.8508   52.8956   30.6593 C.2       1 UNK         0.0000 
     31 O31         0.2150   52.9489   29.4609 O.3       1 UNK         0.0000 
     32 N32         3.4289   53.8881   26.7300 N.pl3     1 UNK         0.0000 
     33 C33         8.6811   56.0481   20.2917 C.3       1 UNK         0.0000 
     34 H34         7.8223   55.1059   17.8772 H         1 UNK         0.0000 
     35 H35         6.5934   53.9051   17.6528 H         1 UNK         0.0000 
     36 H36         6.1580   55.5827   17.5197 H         1 UNK         0.0000 
     37 H37         1.9559   51.3995   20.2603 H         1 UNK         0.0000 
     38 H38         2.8430   51.3649   18.7319 H         1 UNK         0.0000 
     39 H39         1.6806   52.6634   19.0559 H         1 UNK         0.0000 
     40 H40         3.4819   53.6300   21.9582 H         1 UNK         0.0000 
     41 H41        -1.2706   51.6601   27.7969 H         1 UNK         0.0000 
     42 H42         3.2109   51.9239   28.6157 H         1 UNK         0.0000 
     43 H43         2.9074   52.3571   31.2527 H         1 UNK         0.0000 
     44 H44         0.2572   53.1454   31.5286 H         1 UNK         0.0000 
     45 H45         3.1663   53.8178   27.7037 H         1 UNK         0.0000 
     46 H46         4.3433   54.2735   26.5196 H         1 UNK         0.0000 
     47 H47         9.3872   55.3164   19.8978 H         1 UNK         0.0000 
     48 H48         8.6492   56.8775   19.5862 H         1 UNK         0.0000 
     49 H49         9.1045   56.4258   21.2198 H         1 UNK         0.0000 
@<TRIPOS>BOND
     1    1    2 1    
     2    1   34 1    
     3    1   35 1    
     4    1   36 1    
     5    2    6 1    
     6    2    3 2    
     7    3    4 1    
     8    3   33 1    
     9    4    5 1    
    10    5    6 2    
    11    5   11 am   BACKBONE|DICT|INTERRES
    12    6    7 1    
    13    7    8 2    
    14    7    9 1    
    15    9   10 1    
    16   10   37 1    
    17   10   38 1    
    18   10   39 1    
    19   11   12 am   BACKBONE|DICT|INTERRES
    20   11   40 1    
    21   12   13 2    
    22   12   14 1    
    23   14   22 1    
    24   14   15 2    
    25   15   16 1    
    26   15   32 1    
    27   16   21 ar   
    28   16   17 ar   
    29   17   18 ar   
    30   17   27 1    
    31   18   19 ar   
    32   18   41 1    
    33   19   20 ar   
    34   19   23 1    
    35   20   21 ar   
    36   21   22 1    
    37   23   24 1    
    38   23   25 1    
    39   23   26 1    
    40   27   31 1    
    41   27   28 2    
    42   28   29 1    
    43   28   42 1    
    44   29   30 2    
    45   29   43 1    
    46   30   31 1    
    47   30   44 1    
    48   32   45 1    
    49   32   46 1    
    50   33   47 1    
    51   33   48 1    
    52   33   49 1    
@<TRIPOS>SUBSTRUCTURE
     1 UNK         1 GROUP             0       ****    0 ROOT    
