@<TRIPOS>MOLECULE
ZINC36214354_3018
67   70    1
SMALL
USER_CHARGES


@<TRIPOS>ATOM
      1 C1         -4.8730   49.1533   27.0729 C.3       1 UNK         0.0000 
      2 C2         -4.6347   48.0721   26.0030 C.3       1 UNK         0.0000 
      3 C3         -3.1655   47.6002   25.8994 C.3       1 UNK         0.0000 
      4 H4         -2.9017   47.2008   26.8815 H         1 UNK         0.0000 
      5 C5         -2.9870   46.4295   24.9132 C.3       1 UNK         0.0000 
      6 N6         -2.2077   48.6866   25.6816 N.am      1 UNK         0.0000 
      7 C7         -2.0955   49.4574   24.5839 C.2       1 UNK         0.0000 
      8 O8         -2.7984   49.2926   23.5877 O.2       1 UNK         0.0000 
      9 C9         -1.0643   50.6233   24.5802 C.3       1 UNK         0.0000 
     10 H10        -1.6559   51.5185   24.3795 H         1 UNK         0.0000 
     11 C11        -0.0074   50.5166   23.4201 C.3       1 UNK         0.0000 
     12 C12        -0.5497   50.8360   22.0083 C.3       1 UNK         0.0000 
     13 C13         0.4908   50.4480   20.9300 C.3       1 UNK         0.0000 
     14 N14         1.7235   51.2408   21.1930 N.am      1 UNK         0.0000 
     15 C15         2.3024   51.1349   22.5639 C.3       1 UNK         0.0000 
     16 C16         1.1808   51.4947   23.5555 C.3       1 UNK         0.0000 
     17 C17         2.2705   51.9942   20.1917 C.2       1 UNK         0.0000 
     18 O18         1.7342   52.0967   19.0868 O.2       1 UNK         0.0000 
     19 N19         3.4110   52.6454   20.5277 N.am      1 UNK         0.0000 
     20 C20         4.1568   53.6067   19.8253 C.ar      1 UNK         0.0000 
     21 C21         4.0013   53.9128   18.4627 C.ar      1 UNK         0.0000 
     22 C22         4.7841   54.9043   17.8726 C.ar      1 UNK         0.0000 
     23 C23         5.7338   55.5926   18.6296 C.ar      1 UNK         0.0000 
     24 C24         5.9048   55.2848   19.9784 C.ar      1 UNK         0.0000 
     25 C25         5.1206   54.2958   20.5703 C.ar      1 UNK         0.0000 
     26 Cl26        7.0841   56.1281   20.9179 Cl        1 UNK         0.0000 
     27 N27        -0.4171   50.8660   25.8844 N.am      1 UNK         0.0000 
     28 C28        -0.9086   51.6069   26.8951 C.2       1 UNK         0.0000 
     29 O29        -2.0385   52.0971   26.8817 O.2       1 UNK         0.0000 
     30 C30         0.0274   51.8452   28.0605 C.ar      1 UNK         0.0000 
     31 C31        -0.5003   52.0971   29.3453 C.ar      1 UNK         0.0000 
     32 C32         0.3291   52.3617   30.4443 C.ar      1 UNK         0.0000 
     33 C33         1.7012   52.3521   30.2252 C.ar      1 UNK         0.0000 
     34 C34         2.2294   52.1042   28.9930 C.ar      1 UNK         0.0000 
     35 C35         1.4267   51.8601   27.8850 C.ar      1 UNK         0.0000 
     36 O36         3.5851   52.0982   29.0767 O.3       1 UNK         0.0000 
     37 C37         3.8945   52.5376   30.3691 C.3       1 UNK         0.0000 
     38 O38         2.7124   52.4966   31.1220 O.3       1 UNK         0.0000 
     39 H39        -5.9307   49.4110   27.1388 H         1 UNK         0.0000 
     40 H40        -4.5510   48.8136   28.0587 H         1 UNK         0.0000 
     41 H41        -4.3255   50.0688   26.8452 H         1 UNK         0.0000 
     42 H42        -4.9660   48.4549   25.0361 H         1 UNK         0.0000 
     43 H43        -5.2763   47.2192   26.2255 H         1 UNK         0.0000 
     44 H44        -3.7245   45.6537   25.1127 H         1 UNK         0.0000 
     45 H45        -3.1349   46.7363   23.8763 H         1 UNK         0.0000 
     46 H46        -2.0002   45.9768   25.0160 H         1 UNK         0.0000 
     47 H47        -1.6549   48.8981   26.5109 H         1 UNK         0.0000 
     48 H48         0.3839   49.4962   23.4488 H         1 UNK         0.0000 
     49 H49        -1.4459   50.2542   21.8064 H         1 UNK         0.0000 
     50 H50        -0.8931   51.8697   21.9182 H         1 UNK         0.0000 
     51 H51         0.7421   49.3903   21.0132 H         1 UNK         0.0000 
     52 H52         0.0670   50.6225   19.9396 H         1 UNK         0.0000 
     53 H53         2.6532   50.1153   22.7310 H         1 UNK         0.0000 
     54 H54         3.1044   51.8417   22.7572 H         1 UNK         0.0000 
     55 H55         0.8639   52.5373   23.4908 H         1 UNK         0.0000 
     56 H56         1.6188   51.4257   24.5474 H         1 UNK         0.0000 
     57 H57         3.7443   52.4752   21.4615 H         1 UNK         0.0000 
     58 H58         3.2858   53.3940   17.8434 H         1 UNK         0.0000 
     59 H59         4.6544   55.1396   16.8264 H         1 UNK         0.0000 
     60 H60         6.3346   56.3607   18.1671 H         1 UNK         0.0000 
     61 H61         5.2615   54.0755   21.6190 H         1 UNK         0.0000 
     62 H62         0.4571   50.3845   26.0265 H         1 UNK         0.0000 
     63 H63        -1.5685   52.0714   29.5028 H         1 UNK         0.0000 
     64 H64        -0.0953   52.5191   31.4262 H         1 UNK         0.0000 
     65 H65         1.8834   51.6967   26.9221 H         1 UNK         0.0000 
     66 H66         4.6593   51.9002   30.8160 H         1 UNK         0.0000 
     67 H67         4.2586   53.5649   30.3124 H         1 UNK         0.0000 
@<TRIPOS>BOND
     1    1    2 1    
     2    1   39 1    
     3    1   40 1    
     4    1   41 1    
     5    2    3 1    
     6    2   42 1    
     7    2   43 1    
     8    3    4 1    
     9    3    5 1    
    10    3    6 1    
    11    5   44 1    
    12    5   45 1    
    13    5   46 1    
    14    6    7 am   BACKBONE|DICT|INTERRES
    15    6   47 1    
    16    7    8 2    
    17    7    9 1    
    18    9   10 1    
    19    9   11 1    
    20    9   27 1    
    21   11   16 1    
    22   11   12 1    
    23   11   48 1    
    24   12   13 1    
    25   12   49 1    
    26   12   50 1    
    27   13   14 1    
    28   13   51 1    
    29   13   52 1    
    30   14   15 1    
    31   14   17 am   BACKBONE|DICT|INTERRES
    32   15   16 1    
    33   15   53 1    
    34   15   54 1    
    35   16   55 1    
    36   16   56 1    
    37   17   18 2    
    38   17   19 am   BACKBONE|DICT|INTERRES
    39   19   20 1    
    40   19   57 1    
    41   20   25 ar   
    42   20   21 ar   
    43   21   22 ar   
    44   21   58 1    
    45   22   23 ar   
    46   22   59 1    
    47   23   24 ar   
    48   23   60 1    
    49   24   25 ar   
    50   24   26 1    
    51   25   61 1    
    52   27   28 am   BACKBONE|DICT|INTERRES
    53   27   62 1    
    54   28   29 2    
    55   28   30 1    
    56   30   35 ar   
    57   30   31 ar   
    58   31   32 ar   
    59   31   63 1    
    60   32   33 ar   
    61   32   64 1    
    62   33   38 1    
    63   33   34 ar   
    64   34   35 ar   
    65   34   36 1    
    66   35   65 1    
    67   36   37 1    
    68   37   38 1    
    69   37   66 1    
    70   37   67 1    
@<TRIPOS>SUBSTRUCTURE
     1 UNK         1 GROUP             0       ****    0 ROOT    
