ZINC03011009_2325
                    3D
 Schrodinger Suite 2024-2.
 59 62  0  0  1  0            999 V2000
    9.1425   54.4905   14.4845 C   0  0  0  0  0  0
    8.2767   54.4706   15.7366 C   0  0  0  0  0  0
    8.8842   54.6316   16.9861 C   0  0  0  0  0  0
    8.1223   54.6250   18.1521 C   0  0  0  0  0  0
    6.7310   54.4532   18.0863 C   0  0  0  0  0  0
    6.1241   54.2716   16.8396 C   0  0  0  0  0  0
    6.8831   54.2862   15.6641 C   0  0  0  0  0  0
    6.1821   54.1099   14.3237 C   0  0  0  0  0  0
    5.8983   54.3959   19.2173 N   0  0  0  0  0  0
    6.1320   54.8979   20.4500 C   0  0  0  0  0  0
    7.0837   55.6213   20.7610 O   0  0  0  0  0  0
    5.1900   54.4562   21.4488 C   0  0  0  0  0  0
    5.5042   54.2908   22.8071 C   0  0  0  0  0  0
    4.3252   53.9421   23.4286 C   0  0  0  0  0  0
    3.3617   53.9549   22.4478 N   0  0  0  0  0  0
    3.9059   54.2161   21.2465 N   0  0  0  0  0  0
    1.9362   53.6572   22.6243 C   0  0  2  0  0  0
    1.3779   54.4127   22.0820 H   0  0  0  0  0  0
    1.6054   53.8322   24.1306 C   0  0  0  0  0  0
    2.6610   53.1905   25.0624 C   0  0  1  0  0  0
    2.6886   52.1159   24.8813 H   0  0  0  0  0  0
    4.0057   53.6969   24.7399 N   0  0  0  0  0  0
    2.2942   53.2741   26.5509 C   0  0  0  0  0  0
    1.1472   52.6486   27.0489 C   0  0  0  0  0  0
    0.8706   52.6653   28.4170 C   0  0  0  0  0  0
    1.7550   53.2793   29.3236 C   0  0  0  0  0  0
    2.9175   53.8956   28.8326 C   0  0  0  0  0  0
    3.1488   53.9092   27.4540 C   0  0  0  0  0  0
    3.8022   54.4640   29.7348 O   0  0  0  0  0  0
    5.1491   54.6910   29.3123 C   0  0  0  0  0  0
    1.5589   53.2966   30.6931 O   0  0  0  0  0  0
    0.3532   52.7670   31.2379 C   0  0  0  0  0  0
    1.5192   52.2822   22.0402 C   0  0  0  0  0  0
    0.2186   52.0588   22.2425 F   0  0  0  0  0  0
    1.7248   52.2128   20.7248 F   0  0  0  0  0  0
    2.1853   51.2745   22.6040 F   0  0  0  0  0  0
   10.2027   54.5856   14.7154 H   0  0  0  0  0  0
    9.0048   53.5689   13.9185 H   0  0  0  0  0  0
    8.8560   55.3219   13.8378 H   0  0  0  0  0  0
    9.9547   54.7624   17.0588 H   0  0  0  0  0  0
    8.6314   54.7303   19.0984 H   0  0  0  0  0  0
    5.0549   54.1222   16.7798 H   0  0  0  0  0  0
    5.0979   54.0362   14.4309 H   0  0  0  0  0  0
    6.5407   53.2079   13.8247 H   0  0  0  0  0  0
    6.3966   54.9570   13.6691 H   0  0  0  0  0  0
    5.0366   53.8857   19.0936 H   0  0  0  0  0  0
    6.4683   54.4196   23.2733 H   0  0  0  0  0  0
    1.4999   54.8944   24.3574 H   0  0  0  0  0  0
    0.6185   53.4190   24.3371 H   0  0  0  0  0  0
    4.6967   53.2197   25.3003 H   0  0  0  0  0  0
    0.4701   52.1391   26.3767 H   0  0  0  0  0  0
   -0.0217   52.1644   28.7597 H   0  0  0  0  0  0
    4.0201   54.4020   27.0625 H   0  0  0  0  0  0
    5.6974   55.2274   30.0820 H   0  0  0  0  0  0
    5.6614   53.7480   29.1267 H   0  0  0  0  0  0
    5.2411   55.2963   28.4155 H   0  0  0  0  0  0
    0.3427   52.9069   32.3201 H   0  0  0  0  0  0
   -0.5117   53.2913   30.8330 H   0  0  0  0  0  0
    0.2440   51.6968   31.0457 H   0  0  0  0  0  0
  1  2  1  0  0  0
  1 37  1  0  0  0
  1 38  1  0  0  0
  1 39  1  0  0  0
  2  7  2  0  0  0
  2  3  1  0  0  0
  3  4  2  0  0  0
  3 40  1  0  0  0
  4  5  1  0  0  0
  4 41  1  0  0  0
  5  6  2  0  0  0
  5  9  1  0  0  0
  6  7  1  0  0  0
  6 42  1  0  0  0
  7  8  1  0  0  0
  8 43  1  0  0  0
  8 44  1  0  0  0
  8 45  1  0  0  0
  9 10  1  0  0  0
  9 46  1  0  0  0
 10 11  2  0  0  0
 10 12  1  0  0  0
 12 16  2  0  0  0
 12 13  1  0  0  0
 13 14  2  0  0  0
 13 47  1  0  0  0
 14 22  1  0  0  0
 14 15  1  0  0  0
 15 16  1  0  0  0
 15 17  1  0  0  0
 17 18  1  0  0  0
 17 19  1  0  0  0
 17 33  1  0  0  0
 19 20  1  0  0  0
 19 48  1  0  0  0
 19 49  1  0  0  0
 20 21  1  0  0  0
 20 22  1  0  0  0
 20 23  1  0  0  0
 22 50  1  0  0  0
 23 28  2  0  0  0
 23 24  1  0  0  0
 24 25  2  0  0  0
 24 51  1  0  0  0
 25 26  1  0  0  0
 25 52  1  0  0  0
 26 27  2  0  0  0
 26 31  1  0  0  0
 27 28  1  0  0  0
 27 29  1  0  0  0
 28 53  1  0  0  0
 29 30  1  0  0  0
 30 54  1  0  0  0
 30 55  1  0  0  0
 30 56  1  0  0  0
 31 32  1  0  0  0
 32 57  1  0  0  0
 32 58  1  0  0  0
 32 59  1  0  0  0
 33 34  1  0  0  0
 33 35  1  0  0  0
 33 36  1  0  0  0
M  END
> <i_i_glide_confnum>
16

> <i_i_glide_lignum>
2326

> <i_i_glide_posenum>
362

> <i_i_glide_rotatable_bonds>
7

> <i_m_Source_File_Index>
4122

> <b_m_subgroup_collapsed>
0

> <r_i_docking_score>
-5.72042

> <r_i_glide_ecoul>
-5.84426

> <r_i_glide_eff_state_penalty>
0

> <r_i_glide_einternal>
7.7804

> <r_i_glide_emodel>
-54.3942

> <r_i_glide_energy>
-43.1874

> <r_i_glide_erotb>
0.359535

> <r_i_glide_esite>
-0.0227106

> <r_i_glide_evdw>
-37.3431

> <r_i_glide_gscore>
-5.72042

> <r_i_glide_hbond>
-0.301631

> <r_i_glide_ligand_efficiency>
-0.168248

> <r_i_glide_ligand_efficiency_ln>
-1.2638

> <r_i_glide_ligand_efficiency_sa>
-0.545057

> <r_i_glide_lipo>
-2.29551

> <r_i_glide_metal>
0

> <r_i_glide_rewards>
-0.716311

> <s_i_glide_gridfile>
wee1_glide-grid

> <s_m_Source_File>
wee1_decoys_glide_SP.sdf

> <s_m_Source_Path>
/Users/zhangxujun/Desktop

> <s_m_entry_id>
4397

> <s_m_entry_name>
wee1_decoys_glide_SP.4122

> <s_m_subgroup_title>
wee1_decoys_glide_SP

> <s_m_subgroupid>
wee1_decoys_glide_SP


$$$$
