ZINC14944234_2597
                    3D
 Schrodinger Suite 2024-2.
 51 55  0  0  1  0            999 V2000
   -4.4714   49.6589   23.3898 C   0  0  0  0  0  0
   -3.2988   50.1678   23.9424 C   0  0  0  0  0  0
   -2.1500   49.3715   24.0245 C   0  0  0  0  0  0
   -2.2001   48.0515   23.5621 C   0  0  0  0  0  0
   -3.3785   47.5160   23.0155 C   0  0  0  0  0  0
   -4.5102   48.3432   22.9287 C   0  0  0  0  0  0
   -3.4320   46.0915   22.5502 C   0  0  0  0  0  0
   -2.4956   45.3254   22.8813 O   0  0  0  0  0  0
   -0.8556   49.9226   24.6204 C   0  0  1  0  0  0
   -0.0824   49.1730   24.4368 H   0  0  0  0  0  0
   -0.4029   51.2529   23.9619 C   0  0  2  0  0  0
   -1.1700   52.0000   24.1896 H   0  0  0  0  0  0
   -0.1582   51.3291   22.4582 C   0  0  0  0  0  0
    0.7941   52.5151   22.3882 C   0  0  0  0  0  0
    1.3180   52.7956   23.6011 C   0  0  0  0  0  0
    0.9137   51.7043   24.5672 C   0  0  1  0  0  0
    1.6496   50.9026   24.4821 H   0  0  0  0  0  0
    0.6819   51.9711   26.0547 C   0  0  0  0  0  0
    1.3229   52.9862   26.7819 C   0  0  0  0  0  0
    1.0976   53.1490   28.1558 C   0  0  0  0  0  0
    0.2074   52.2979   28.8106 C   0  0  0  0  0  0
   -0.4484   51.2980   28.1037 C   0  0  0  0  0  0
   -0.2047   51.1153   26.7458 C   0  0  0  0  0  0
   -0.9282   50.0987   26.0815 N   0  0  0  0  0  0
    1.9467   54.4220   29.1020 S   0  0  0  0  0  0
    1.8921   55.6942   28.3773 O   0  0  0  0  0  0
    1.4488   54.3414   30.4785 O   0  0  0  0  0  0
    3.6374   53.9106   29.1888 N   0  0  0  0  0  0
    4.5693   54.0499   28.1573 C   0  0  0  0  0  0
    5.8163   53.6078   28.4515 N   0  0  0  0  0  0
    6.7418   53.7061   27.4647 C   0  0  0  0  0  0
    6.4526   54.2339   26.2046 C   0  0  0  0  0  0
    5.1423   54.6612   25.9952 C   0  0  0  0  0  0
    4.1930   54.5767   26.9604 N   0  0  0  0  0  0
   -5.3522   50.2787   23.3263 H   0  0  0  0  0  0
   -3.2897   51.1833   24.3087 H   0  0  0  0  0  0
   -1.3179   47.4324   23.6403 H   0  0  0  0  0  0
   -5.4327   47.9649   22.5110 H   0  0  0  0  0  0
    0.2756   50.4103   22.0601 H   0  0  0  0  0  0
   -1.0914   51.5112   21.9241 H   0  0  0  0  0  0
    0.9796   53.0557   21.4701 H   0  0  0  0  0  0
    2.0343   53.5701   23.8348 H   0  0  0  0  0  0
    1.9913   53.6504   26.2624 H   0  0  0  0  0  0
    0.0049   52.4039   29.8676 H   0  0  0  0  0  0
   -1.1541   50.6610   28.6168 H   0  0  0  0  0  0
   -1.2983   49.3188   26.6213 H   0  0  0  0  0  0
    3.9346   53.4155   30.0131 H   0  0  0  0  0  0
    7.7279   53.3406   27.7033 H   0  0  0  0  0  0
    7.1957   54.2953   25.4240 H   0  0  0  0  0  0
    4.8344   55.0773   25.0479 H   0  0  0  0  0  0
   -4.4262   45.7237   21.8810 O   0  5  0  0  0  0
  1  6  2  0  0  0
  1  2  1  0  0  0
  1 35  1  0  0  0
  2  3  2  0  0  0
  2 36  1  0  0  0
  3  4  1  0  0  0
  3  9  1  0  0  0
  4  5  2  0  0  0
  4 37  1  0  0  0
  5  6  1  0  0  0
  5  7  1  0  0  0
  6 38  1  0  0  0
  7  8  2  0  0  0
  7 51  1  0  0  0
  9 10  1  0  0  0
  9 24  1  0  0  0
  9 11  1  0  0  0
 11 12  1  0  0  0
 11 16  1  0  0  0
 11 13  1  0  0  0
 13 14  1  0  0  0
 13 39  1  0  0  0
 13 40  1  0  0  0
 14 15  2  0  0  0
 14 41  1  0  0  0
 15 16  1  0  0  0
 15 42  1  0  0  0
 16 17  1  0  0  0
 16 18  1  0  0  0
 18 23  2  0  0  0
 18 19  1  0  0  0
 19 20  2  0  0  0
 19 43  1  0  0  0
 20 21  1  0  0  0
 20 25  1  0  0  0
 21 22  2  0  0  0
 21 44  1  0  0  0
 22 23  1  0  0  0
 22 45  1  0  0  0
 23 24  1  0  0  0
 24 46  1  0  0  0
 25 26  2  0  0  0
 25 27  2  0  0  0
 25 28  1  0  0  0
 28 29  1  0  0  0
 28 47  1  0  0  0
 29 34  2  0  0  0
 29 30  1  0  0  0
 30 31  2  0  0  0
 31 32  1  0  0  0
 31 48  1  0  0  0
 32 33  2  0  0  0
 32 49  1  0  0  0
 33 34  1  0  0  0
 33 50  1  0  0  0
M  CHG  1  51  -1
M  END
> <i_i_glide_confnum>
6

> <i_i_glide_lignum>
2598

> <i_i_glide_posenum>
63

> <i_i_glide_rotatable_bonds>
5

> <i_m_Source_File_Index>
736

> <b_m_subgroup_collapsed>
0

> <r_i_docking_score>
-5.23594

> <r_i_glide_ecoul>
-5.2184

> <r_i_glide_eff_state_penalty>
0

> <r_i_glide_einternal>
2.24694

> <r_i_glide_emodel>
-60.1766

> <r_i_glide_energy>
-44.6177

> <r_i_glide_erotb>
0.40001

> <r_i_glide_esite>
-0.110147

> <r_i_glide_evdw>
-39.3993

> <r_i_glide_gscore>
-5.23594

> <r_i_glide_hbond>
-0.263141

> <r_i_glide_ligand_efficiency>
-0.163623

> <r_i_glide_ligand_efficiency_ln>
-1.17247

> <r_i_glide_ligand_efficiency_sa>
-0.519471

> <r_i_glide_lipo>
-1.70578

> <r_i_glide_metal>
0

> <r_i_glide_rewards>
-0.804158

> <s_i_glide_gridfile>
wee1_glide-grid

> <s_m_Source_File>
wee1_decoys_glide_SP.sdf

> <s_m_Source_Path>
/Users/zhangxujun/Desktop

> <s_m_entry_id>
1011

> <s_m_entry_name>
wee1_decoys_glide_SP.736

> <s_m_subgroup_title>
wee1_decoys_glide_SP

> <s_m_subgroupid>
wee1_decoys_glide_SP


$$$$
