@<TRIPOS>MOLECULE
ZINC09406911_5033
60   64    1
SMALL
USER_CHARGES


@<TRIPOS>ATOM
      1 C1          2.5216   46.8970   16.8540 C.3       1 UNK         0.0000 
      2 C2          1.4440   47.0720   17.9174 C.ar      1 UNK         0.0000 
      3 C3          0.7045   45.9398   18.2835 C.ar      1 UNK         0.0000 
      4 C4         -0.2915   46.0215   19.2514 C.ar      1 UNK         0.0000 
      5 C5         -0.5644   47.2420   19.8592 C.ar      1 UNK         0.0000 
      6 C6          0.1569   48.3774   19.4980 C.ar      1 UNK         0.0000 
      7 C7          1.1722   48.3214   18.5186 C.ar      1 UNK         0.0000 
      8 N8          1.8994   49.4650   18.0818 N.am      1 UNK         0.0000 
      9 C9          1.7777   50.7596   18.4664 C.2       1 UNK         0.0000 
     10 O10         1.0936   51.1460   19.4149 O.2       1 UNK         0.0000 
     11 C11         2.5215   51.8184   17.6175 C.3       1 UNK         0.0000 
     12 H12         3.1401   51.2967   16.8849 H         1 UNK         0.0000 
     13 C13         1.4449   52.7136   16.9254 C.3       1 UNK         0.0000 
     14 C14         2.0618   53.9813   16.2846 C.3       1 UNK         0.0000 
     15 C15         2.9551   54.7581   17.2726 C.3       1 UNK         0.0000 
     16 N16         3.9652   53.8440   17.8487 N.pl3     1 UNK         0.0000 
     17 C17         3.4218   52.6598   18.5562 C.3       1 UNK         0.0000 
     18 S18         5.6354   54.4104   18.1163 S.o2      1 UNK         0.0000 
     19 O19         6.5376   53.2944   17.8210 O.2       1 UNK         0.0000 
     20 O20         5.8093   55.6906   17.4187 O.2       1 UNK         0.0000 
     21 C21         5.9119   54.7591   19.8621 C.ar      1 UNK         0.0000 
     22 C22         7.1038   55.4151   20.1882 C.ar      1 UNK         0.0000 
     23 C23         7.5047   55.6273   21.5091 C.ar      1 UNK         0.0000 
     24 C24         6.6568   55.1363   22.5014 C.ar      1 UNK         0.0000 
     25 C25         5.4390   54.4858   22.2071 C.ar      1 UNK         0.0000 
     26 C26         5.0524   54.3093   20.8735 C.ar      1 UNK         0.0000 
     27 N27         4.7927   54.0991   23.3513 N.2       1 UNK         0.0000 
     28 C28         5.5688   54.4957   24.3342 C.ar      1 UNK         0.0000 
     29 N29         6.7043   55.1232   23.8728 N.pl3     1 UNK         0.0000 
     30 H30         7.4269   55.4885   24.4722 H         1 UNK         0.0000 
     31 C31         5.2591   54.3101   25.7856 C.ar      1 UNK         0.0000 
     32 C32         6.2911   54.2839   26.7319 C.ar      1 UNK         0.0000 
     33 C33         6.0012   54.0954   28.0803 C.ar      1 UNK         0.0000 
     34 C34         4.6775   53.9364   28.4858 C.ar      1 UNK         0.0000 
     35 C35         3.6429   53.9594   27.5555 C.ar      1 UNK         0.0000 
     36 C36         3.9339   54.1415   26.2055 C.ar      1 UNK         0.0000 
     37 F37        -0.9822   44.9155   19.6080 F         1 UNK         0.0000 
     38 H38         3.5089   47.0372   17.2967 H         1 UNK         0.0000 
     39 H39         2.4967   45.9113   16.3819 H         1 UNK         0.0000 
     40 H40         2.3986   47.6374   16.0633 H         1 UNK         0.0000 
     41 H41         0.9046   44.9827   17.8236 H         1 UNK         0.0000 
     42 H42        -1.3364   47.3083   20.6104 H         1 UNK         0.0000 
     43 H43        -0.1158   49.2906   19.9990 H         1 UNK         0.0000 
     44 H44         2.6184   49.2959   17.3787 H         1 UNK         0.0000 
     45 H45         0.9214   52.1690   16.1364 H         1 UNK         0.0000 
     46 H46         0.7371   53.1088   17.6572 H         1 UNK         0.0000 
     47 H47         2.6540   53.6982   15.4118 H         1 UNK         0.0000 
     48 H48         1.2729   54.6326   15.9085 H         1 UNK         0.0000 
     49 H49         3.4445   55.6046   16.7911 H         1 UNK         0.0000 
     50 H50         2.3390   55.1471   18.0815 H         1 UNK         0.0000 
     51 H51         2.7935   53.0572   19.3539 H         1 UNK         0.0000 
     52 H52         4.2651   52.0969   18.9594 H         1 UNK         0.0000 
     53 H53         7.7609   55.7382   19.3923 H         1 UNK         0.0000 
     54 H54         8.4480   56.0982   21.7472 H         1 UNK         0.0000 
     55 H55         4.1289   53.8128   20.6649 H         1 UNK         0.0000 
     56 H56         7.3204   54.3932   26.4282 H         1 UNK         0.0000 
     57 H57         6.8012   54.0747   28.8100 H         1 UNK         0.0000 
     58 H58         4.4573   53.7873   29.5318 H         1 UNK         0.0000 
     59 H59         2.6197   53.8318   27.8762 H         1 UNK         0.0000 
     60 H60         3.1258   54.1547   25.4890 H         1 UNK         0.0000 
@<TRIPOS>BOND
     1    1    2 1    
     2    1   38 1    
     3    1   39 1    
     4    1   40 1    
     5    2    7 ar   
     6    2    3 ar   
     7    3    4 ar   
     8    3   41 1    
     9    4    5 ar   
    10    4   37 1    
    11    5    6 ar   
    12    5   42 1    
    13    6    7 ar   
    14    6   43 1    
    15    7    8 1    
    16    8    9 am   BACKBONE|DICT|INTERRES
    17    8   44 1    
    18    9   10 2    
    19    9   11 1    
    20   11   12 1    
    21   11   17 1    
    22   11   13 1    
    23   13   14 1    
    24   13   45 1    
    25   13   46 1    
    26   14   15 1    
    27   14   47 1    
    28   14   48 1    
    29   15   16 1    
    30   15   49 1    
    31   15   50 1    
    32   16   17 1    
    33   16   18 1    
    34   17   51 1    
    35   17   52 1    
    36   18   19 2    
    37   18   20 2    
    38   18   21 1    
    39   21   26 ar   
    40   21   22 ar   
    41   22   23 ar   
    42   22   53 1    
    43   23   24 ar   
    44   23   54 1    
    45   24   29 ar   
    46   24   25 ar   
    47   25   26 ar   
    48   25   27 ar   
    49   26   55 1    
    50   27   28 ar   
    51   28   29 ar   
    52   28   31 1    
    53   29   30 1    
    54   31   36 ar   
    55   31   32 ar   
    56   32   33 ar   
    57   32   56 1    
    58   33   34 ar   
    59   33   57 1    
    60   34   35 ar   
    61   34   58 1    
    62   35   36 ar   
    63   35   59 1    
    64   36   60 1    
@<TRIPOS>SUBSTRUCTURE
     1 UNK         1 GROUP             0       ****    0 ROOT    
