@<TRIPOS>MOLECULE
ZINC29037886_6189
62   65    1
SMALL
USER_CHARGES


@<TRIPOS>ATOM
      1 C1          1.4850   54.8609   28.2069 C.3       1 UNK         0.0000 
      2 C2          1.9639   53.8167   27.1787 C.3       1 UNK         0.0000 
      3 C3          1.4339   52.4014   27.4859 C.3       1 UNK         0.0000 
      4 C4          3.4810   53.8746   26.9019 C.ar      1 UNK         0.0000 
      5 C5          3.8894   54.1588   25.5907 C.ar      1 UNK         0.0000 
      6 C6          5.2402   54.2550   25.2318 C.ar      1 UNK         0.0000 
      7 C7          6.1988   54.0968   26.2381 C.ar      1 UNK         0.0000 
      8 C8          5.8229   53.7999   27.5456 C.ar      1 UNK         0.0000 
      9 C9          4.4740   53.6628   27.8841 C.ar      1 UNK         0.0000 
     10 C10         4.1553   53.2589   29.2484 C.1       1 UNK         0.0000 
     11 N11         3.9016   52.9322   30.3296 N.1       1 UNK         0.0000 
     12 C12         5.6623   54.4574   23.8190 C.2       1 UNK         0.0000 
     13 C13         4.9223   53.9739   22.8004 C.2       1 UNK         0.0000 
     14 C14         5.1199   54.2686   21.3156 C.3       1 UNK         0.0000 
     15 N15         6.2439   55.2113   21.0778 N.am      1 UNK         0.0000 
     16 C16         7.3110   55.3668   22.1025 C.3       1 UNK         0.0000 
     17 C17         6.7104   55.5086   23.5194 C.3       1 UNK         0.0000 
     18 C18         6.3054   55.9610   19.9349 C.2       1 UNK         0.0000 
     19 O19         7.1043   56.8966   19.8228 O.2       1 UNK         0.0000 
     20 C20         5.4600   55.5830   18.6690 C.3       1 UNK         0.0000 
     21 H21         4.5842   54.9822   18.9091 H         1 UNK         0.0000 
     22 C22         6.3094   55.0052   17.4746 C.3       1 UNK         0.0000 
     23 H23         7.2080   55.6085   17.3199 H         1 UNK         0.0000 
     24 C24         5.4861   54.9414   16.1533 C.3       1 UNK         0.0000 
     25 C25         4.8826   56.3218   15.8271 C.3       1 UNK         0.0000 
     26 C26         5.6845   57.2759   14.9618 C.3       1 UNK         0.0000 
     27 C27         4.4509   56.6042   14.4021 C.3       1 UNK         0.0000 
     28 C28         4.0406   56.9201   16.9621 C.3       1 UNK         0.0000 
     29 N29         4.9255   56.9595   18.2173 N.4       1 UNK         0.0000 
     30 C30         6.8237   53.5746   17.7482 C.2       1 UNK         0.0000 
     31 O31         6.3042   52.8981   18.6330 O.2       1 UNK         0.0000 
     32 N32         7.8218   53.1330   16.9581 N.am      1 UNK         0.0000 
     33 O33         8.3049   51.8304   17.1533 O.3       1 UNK         0.0000 
     34 H34         1.9841   55.8222   28.0823 H         1 UNK         0.0000 
     35 H35         0.4140   55.0304   28.0946 H         1 UNK         0.0000 
     36 H36         1.6520   54.5364   29.2344 H         1 UNK         0.0000 
     37 H37         1.4790   54.0962   26.2441 H         1 UNK         0.0000 
     38 H38         1.6723   51.7054   26.6843 H         1 UNK         0.0000 
     39 H39         1.8348   51.9920   28.4127 H         1 UNK         0.0000 
     40 H40         0.3475   52.4064   27.5852 H         1 UNK         0.0000 
     41 H41         3.1372   54.3034   24.8288 H         1 UNK         0.0000 
     42 H42         7.2503   54.1400   26.0051 H         1 UNK         0.0000 
     43 H43         6.5972   53.6465   28.2852 H         1 UNK         0.0000 
     44 H44         4.1116   53.3028   23.0441 H         1 UNK         0.0000 
     45 H45         5.3508   53.3106   20.8495 H         1 UNK         0.0000 
     46 H46         4.1739   54.6021   20.8876 H         1 UNK         0.0000 
     47 H47         7.9299   56.2518   21.9444 H         1 UNK         0.0000 
     48 H48         7.9612   54.4967   22.0777 H         1 UNK         0.0000 
     49 H49         6.3044   56.4968   23.6752 H         1 UNK         0.0000 
     50 H50         7.5038   55.4638   24.2570 H         1 UNK         0.0000 
     51 H51         6.1027   54.6376   15.3029 H         1 UNK         0.0000 
     52 H52         4.6250   54.2766   16.2619 H         1 UNK         0.0000 
     53 H53         5.6517   58.3456   15.1779 H         1 UNK         0.0000 
     54 H54         6.6663   56.9662   14.6033 H         1 UNK         0.0000 
     55 H55         4.5689   55.8239   13.6497 H         1 UNK         0.0000 
     56 H56         3.5550   57.2024   14.2286 H         1 UNK         0.0000 
     57 H57         3.1685   56.3094   17.2094 H         1 UNK         0.0000 
     58 H58         3.7142   57.9465   16.7730 H         1 UNK         0.0000 
     59 H59         4.4112   57.3892   18.9728 H         1 UNK         0.0000 
     60 H60         8.2811   53.6165   16.1991 H         1 UNK         0.0000 
     61 H61         7.8208   51.3032   16.5116 H         1 UNK         0.0000 
     62 H62         5.7194   57.5599   18.0333 H         1 UNK         0.0000 
@<TRIPOS>BOND
     1    1    2 1    
     2    1   34 1    
     3    1   35 1    
     4    1   36 1    
     5    2    3 1    
     6    2    4 1    
     7    2   37 1    
     8    3   38 1    
     9    3   39 1    
    10    3   40 1    
    11    4    9 ar   
    12    4    5 ar   
    13    5    6 ar   
    14    5   41 1    
    15    6    7 ar   
    16    6   12 1    
    17    7    8 ar   
    18    7   42 1    
    19    8    9 ar   
    20    8   43 1    
    21    9   10 1    
    22   10   11 3    
    23   12   17 1    
    24   12   13 2    
    25   13   14 1    
    26   13   44 1    
    27   14   15 1    
    28   14   45 1    
    29   14   46 1    
    30   15   16 1    
    31   15   18 am   BACKBONE|DICT|INTERRES
    32   16   17 1    
    33   16   47 1    
    34   16   48 1    
    35   17   49 1    
    36   17   50 1    
    37   18   19 2    
    38   18   20 1    
    39   20   21 1    
    40   20   29 1    
    41   20   22 1    
    42   22   23 1    
    43   22   24 1    
    44   22   30 1    
    45   24   25 1    
    46   24   51 1    
    47   24   52 1    
    48   25   27 1    
    49   25   26 1    
    50   25   28 1    
    51   26   27 1    
    52   26   53 1    
    53   26   54 1    
    54   27   55 1    
    55   27   56 1    
    56   28   29 1    
    57   28   57 1    
    58   28   58 1    
    59   29   59 1    
    60   29   62 1    
    61   30   31 2    
    62   30   32 am   BACKBONE|DICT|INTERRES
    63   32   33 1    
    64   32   60 1    
    65   33   61 1    
@<TRIPOS>SUBSTRUCTURE
     1 UNK         1 GROUP             0       ****    0 ROOT    
