@<TRIPOS>MOLECULE
ZINC60369342_4913
67   70    1
SMALL
USER_CHARGES


@<TRIPOS>ATOM
      1 C1          6.1837   54.0837   18.4509 C.ar      1 UNK         0.0000 
      2 C2          5.0750   53.6708   19.1903 C.ar      1 UNK         0.0000 
      3 C3          4.9293   54.0581   20.5298 C.ar      1 UNK         0.0000 
      4 C4          5.9027   54.8844   21.1040 C.ar      1 UNK         0.0000 
      5 C5          7.0056   55.2986   20.3607 C.ar      1 UNK         0.0000 
      6 C6          7.1498   54.8978   19.0362 C.ar      1 UNK         0.0000 
      7 F7          7.9323   56.0961   20.9285 F         1 UNK         0.0000 
      8 C8          3.7412   53.6232   21.3869 C.3       1 UNK         0.0000 
      9 N9          2.7633   52.6003   20.7496 N.4       1 UNK         0.0000 
     10 C10         3.3543   51.1667   20.7844 C.3       1 UNK         0.0000 
     11 C11         2.3822   50.2055   20.0741 C.3       1 UNK         0.0000 
     12 C12         0.9759   50.2062   20.7088 C.3       1 UNK         0.0000 
     13 C13         0.4309   51.6539   20.7512 C.3       1 UNK         0.0000 
     14 H14         0.3180   51.9950   19.7179 H         1 UNK         0.0000 
     15 C15         1.3812   52.6753   21.4435 C.3       1 UNK         0.0000 
     16 C16        -1.0326   51.6971   21.2838 C.2       1 UNK         0.0000 
     17 O17        -1.9214   51.9159   20.4555 O.2       1 UNK         0.0000 
     18 N18        -1.3099   51.6999   22.6161 N.am      1 UNK         0.0000 
     19 C19        -2.6855   51.8932   23.1126 C.3       1 UNK         0.0000 
     20 C20        -3.2713   50.4999   23.4180 C.3       1 UNK         0.0000 
     21 C21        -2.4082   49.7405   24.4483 C.3       1 UNK         0.0000 
     22 C22        -0.9056   49.7420   24.0705 C.3       1 UNK         0.0000 
     23 H23        -0.8074   49.1146   23.1815 H         1 UNK         0.0000 
     24 C24        -0.4206   51.1441   23.6410 C.3       1 UNK         0.0000 
     25 C25         0.0229   49.1554   25.1647 C.3       1 UNK         0.0000 
     26 N26        -0.0953   49.7845   26.4818 N.am      1 UNK         0.0000 
     27 C27         0.3882   50.9798   26.8662 C.2       1 UNK         0.0000 
     28 O28         1.1043   51.6897   26.1562 O.2       1 UNK         0.0000 
     29 N29        -0.0136   51.2990   28.1104 N.am      1 UNK         0.0000 
     30 C30         0.2835   52.4600   28.8550 C.ar      1 UNK         0.0000 
     31 C31        -0.0491   52.4372   30.2130 C.ar      1 UNK         0.0000 
     32 C32         0.2203   53.5352   31.0296 C.ar      1 UNK         0.0000 
     33 C33         0.8003   54.6814   30.4880 C.ar      1 UNK         0.0000 
     34 C34         1.1342   54.7225   29.1408 C.ar      1 UNK         0.0000 
     35 C35         0.8770   53.6233   28.3271 C.ar      1 UNK         0.0000 
     36 F36         1.7089   55.8311   28.6245 F         1 UNK         0.0000 
     37 H37         6.2915   53.7665   17.4245 H         1 UNK         0.0000 
     38 H38         4.3449   53.0427   18.7003 H         1 UNK         0.0000 
     39 H39         5.8124   55.2022   22.1323 H         1 UNK         0.0000 
     40 H40         8.0105   55.2176   18.4675 H         1 UNK         0.0000 
     41 H41         4.0792   53.1778   22.3259 H         1 UNK         0.0000 
     42 H42         3.1489   54.5032   21.6476 H         1 UNK         0.0000 
     43 H43         4.3080   51.1957   20.2548 H         1 UNK         0.0000 
     44 H44         3.5196   50.8925   21.8262 H         1 UNK         0.0000 
     45 H45         2.3232   50.4672   19.0158 H         1 UNK         0.0000 
     46 H46         2.7935   49.1951   20.0958 H         1 UNK         0.0000 
     47 H47         0.3543   49.5662   20.0798 H         1 UNK         0.0000 
     48 H48         1.0862   49.7801   21.7059 H         1 UNK         0.0000 
     49 H49         1.6134   52.5154   22.4920 H         1 UNK         0.0000 
     50 H50         1.0203   53.6949   21.3022 H         1 UNK         0.0000 
     51 H51        -2.6083   52.4704   24.0355 H         1 UNK         0.0000 
     52 H52        -3.2954   52.5326   22.4792 H         1 UNK         0.0000 
     53 H53        -4.2862   50.6103   23.8017 H         1 UNK         0.0000 
     54 H54        -3.3626   49.9227   22.4971 H         1 UNK         0.0000 
     55 H55        -2.5295   50.2511   25.4045 H         1 UNK         0.0000 
     56 H56        -2.7682   48.7249   24.6230 H         1 UNK         0.0000 
     57 H57         0.6355   51.1279   23.4074 H         1 UNK         0.0000 
     58 H58        -0.4956   51.8409   24.4733 H         1 UNK         0.0000 
     59 H59        -0.2160   48.0995   25.3056 H         1 UNK         0.0000 
     60 H60         1.0678   49.1767   24.8428 H         1 UNK         0.0000 
     61 H61        -0.6007   49.2309   27.1724 H         1 UNK         0.0000 
     62 H62        -0.5807   50.6096   28.5849 H         1 UNK         0.0000 
     63 H63        -0.5164   51.5688   30.6563 H         1 UNK         0.0000 
     64 H64        -0.0428   53.4940   32.0795 H         1 UNK         0.0000 
     65 H65         0.9969   55.5355   31.1183 H         1 UNK         0.0000 
     66 H66         1.1400   53.7157   27.2856 H         1 UNK         0.0000 
     67 H67         2.6314   52.8646   19.7818 H         1 UNK         0.0000 
@<TRIPOS>BOND
     1    1    6 ar   
     2    1    2 ar   
     3    1   37 1    
     4    2    3 ar   
     5    2   38 1    
     6    3    4 ar   
     7    3    8 1    
     8    4    5 ar   
     9    4   39 1    
    10    5    6 ar   
    11    5    7 1    
    12    6   40 1    
    13    8    9 1    
    14    8   41 1    
    15    8   42 1    
    16    9   15 1    
    17    9   10 1    
    18    9   67 1    
    19   10   11 1    
    20   10   43 1    
    21   10   44 1    
    22   11   12 1    
    23   11   45 1    
    24   11   46 1    
    25   12   13 1    
    26   12   47 1    
    27   12   48 1    
    28   13   14 1    
    29   13   15 1    
    30   13   16 1    
    31   15   49 1    
    32   15   50 1    
    33   16   17 2    
    34   16   18 am   BACKBONE|DICT|INTERRES
    35   18   24 1    
    36   18   19 1    
    37   19   20 1    
    38   19   51 1    
    39   19   52 1    
    40   20   21 1    
    41   20   53 1    
    42   20   54 1    
    43   21   22 1    
    44   21   55 1    
    45   21   56 1    
    46   22   23 1    
    47   22   24 1    
    48   22   25 1    
    49   24   57 1    
    50   24   58 1    
    51   25   26 1    
    52   25   59 1    
    53   25   60 1    
    54   26   27 am   BACKBONE|DICT|INTERRES
    55   26   61 1    
    56   27   28 2    
    57   27   29 am   BACKBONE|DICT|INTERRES
    58   29   30 1    
    59   29   62 1    
    60   30   35 ar   
    61   30   31 ar   
    62   31   32 ar   
    63   31   63 1    
    64   32   33 ar   
    65   32   64 1    
    66   33   34 ar   
    67   33   65 1    
    68   34   35 ar   
    69   34   36 1    
    70   35   66 1    
@<TRIPOS>SUBSTRUCTURE
     1 UNK         1 GROUP             0       ****    0 ROOT    
