@<TRIPOS>MOLECULE
ZINC39945419_4867
52   55    1
SMALL
USER_CHARGES


@<TRIPOS>ATOM
      1 C1          1.5147   52.2030   22.9168 C.ar      1 UNK         0.0000 
      2 C2          1.8899   53.4957   23.2811 C.ar      1 UNK         0.0000 
      3 C3          3.0498   54.0526   22.7469 C.ar      1 UNK         0.0000 
      4 C4          3.8411   53.3189   21.8495 C.ar      1 UNK         0.0000 
      5 C5          3.4449   52.0273   21.4809 C.ar      1 UNK         0.0000 
      6 C6          2.2853   51.4687   22.0157 C.ar      1 UNK         0.0000 
      7 C7          5.1630   53.8852   21.2930 C.3       1 UNK         0.0000 
      8 H8          5.8431   53.0405   21.1944 H         1 UNK         0.0000 
      9 C9          5.0250   54.4594   19.8587 C.2       1 UNK         0.0000 
     10 O10         4.0847   54.1012   19.1488 O.2       1 UNK         0.0000 
     11 C11         6.0158   55.4172   19.3498 C.2       1 UNK         0.0000 
     12 C12         5.8436   56.3989   18.4434 C.2       1 UNK         0.0000 
     13 C13         4.6543   56.8468   17.6969 C.2       1 UNK         0.0000 
     14 C14         4.7303   57.8917   16.8509 C.2       1 UNK         0.0000 
     15 C15         6.0151   58.5577   16.6987 C.2       1 UNK         0.0000 
     16 C16         7.1262   58.1467   17.3639 C.2       1 UNK         0.0000 
     17 C17         7.0608   57.0575   18.2413 C.2       1 UNK         0.0000 
     18 N18         8.0123   56.5103   18.9623 N.pl3     1 UNK         0.0000 
     19 C19         7.4836   55.3825   19.7457 C.3       1 UNK         0.0000 
     20 O20         5.7181   54.8505   22.1993 O.3       1 UNK         0.0000 
     21 C21         6.5177   54.4578   23.2200 C.2       1 UNK         0.0000 
     22 O22         7.1078   53.3846   23.2831 O.2       1 UNK         0.0000 
     23 C23         6.6280   55.4963   24.3424 C.3       1 UNK         0.0000 
     24 N24         5.6666   55.1457   25.3905 N.am      1 UNK         0.0000 
     25 C25         5.9466   54.4974   26.5364 C.2       1 UNK         0.0000 
     26 O26         7.0996   54.2497   26.8878 O.2       1 UNK         0.0000 
     27 C27         4.7564   54.0757   27.3752 C.ar      1 UNK         0.0000 
     28 C28         3.4324   54.3558   26.9908 C.ar      1 UNK         0.0000 
     29 C29         2.3571   53.9419   27.7764 C.ar      1 UNK         0.0000 
     30 C30         2.5786   53.2414   28.9616 C.ar      1 UNK         0.0000 
     31 C31         3.8886   52.9537   29.3615 C.ar      1 UNK         0.0000 
     32 C32         4.9629   53.3677   28.5686 C.ar      1 UNK         0.0000 
     33 Cl33        4.2047   52.0930   30.8279 Cl        1 UNK         0.0000 
     34 Cl34        1.2176   52.7429   29.9102 Cl        1 UNK         0.0000 
     35 H35         0.6190   51.7647   23.3349 H         1 UNK         0.0000 
     36 H36         1.2830   54.0578   23.9782 H         1 UNK         0.0000 
     37 H37         3.3328   55.0534   23.0406 H         1 UNK         0.0000 
     38 H38         4.0378   51.4503   20.7826 H         1 UNK         0.0000 
     39 H39         1.9879   50.4676   21.7365 H         1 UNK         0.0000 
     40 H40         3.6973   56.3525   17.8077 H         1 UNK         0.0000 
     41 H41         3.8666   58.2360   16.3031 H         1 UNK         0.0000 
     42 H42         6.0738   59.4336   16.0635 H         1 UNK         0.0000 
     43 H43         8.0475   58.6951   17.2207 H         1 UNK         0.0000 
     44 H44         8.0165   54.4964   19.4065 H         1 UNK         0.0000 
     45 H45         7.6925   55.5783   20.7986 H         1 UNK         0.0000 
     46 H46         7.6470   55.5147   24.7242 H         1 UNK         0.0000 
     47 H47         6.4163   56.4957   23.9781 H         1 UNK         0.0000 
     48 H48         4.7050   55.3906   25.2155 H         1 UNK         0.0000 
     49 H49         3.2078   54.8956   26.0798 H         1 UNK         0.0000 
     50 H50         1.3472   54.1639   27.4653 H         1 UNK         0.0000 
     51 H51         5.9690   53.1309   28.8864 H         1 UNK         0.0000 
     52 H52         8.9864   56.8039   18.9730 H         1 UNK         0.0000 
@<TRIPOS>BOND
     1    1    6 ar   
     2    1    2 ar   
     3    1   35 1    
     4    2    3 ar   
     5    2   36 1    
     6    3    4 ar   
     7    3   37 1    
     8    4    5 ar   
     9    4    7 1    
    10    5    6 ar   
    11    5   38 1    
    12    6   39 1    
    13    7    8 1    
    14    7    9 1    
    15    7   20 1    
    16    9   10 2    
    17    9   11 1    
    18   11   19 1    
    19   11   12 2    
    20   12   17 1    
    21   12   13 1    
    22   13   14 2    
    23   13   40 1    
    24   14   15 1    
    25   14   41 1    
    26   15   16 2    
    27   15   42 1    
    28   16   17 1    
    29   16   43 1    
    30   17   18 2    
    31   18   19 1    
    32   18   52 1    
    33   19   44 1    
    34   19   45 1    
    35   20   21 1    
    36   21   22 2    
    37   21   23 1    
    38   23   24 1    
    39   23   46 1    
    40   23   47 1    
    41   24   25 am   BACKBONE|DICT|INTERRES
    42   24   48 1    
    43   25   26 2    
    44   25   27 1    
    45   27   32 ar   
    46   27   28 ar   
    47   28   29 ar   
    48   28   49 1    
    49   29   30 ar   
    50   29   50 1    
    51   30   31 ar   
    52   30   34 1    
    53   31   32 ar   
    54   31   33 1    
    55   32   51 1    
@<TRIPOS>SUBSTRUCTURE
     1 UNK         1 GROUP             0       ****    0 ROOT    
