@<TRIPOS>MOLECULE
ZINC04222001_862
79   83    1
SMALL
USER_CHARGES


@<TRIPOS>ATOM
      1 C1          1.4115   49.4754   23.3875 C.3       1 UNK         0.0000 
      2 C2          1.1210   50.9736   23.1769 C.3       1 UNK         0.0000 
      3 H3          0.0391   51.1137   23.1947 H         1 UNK         0.0000 
      4 C4          1.6262   51.3729   21.7796 C.2       1 UNK         0.0000 
      5 C5          2.5347   52.4090   21.5493 C.2       1 UNK         0.0000 
      6 S6          2.9140   52.4967   19.8568 S.3       1 UNK         0.0000 
      7 C7          1.7434   51.2325   19.5934 C.2       1 UNK         0.0000 
      8 N8          1.2094   50.7502   20.6888 N.2       1 UNK         0.0000 
      9 N9          1.4002   50.7285   18.3473 N.am      1 UNK         0.0000 
     10 C10         1.5453   51.3355   17.1480 C.2       1 UNK         0.0000 
     11 O11         1.9279   52.4971   16.9946 O.2       1 UNK         0.0000 
     12 C12         1.0921   50.5260   15.9538 C.ar      1 UNK         0.0000 
     13 C13         1.1053   49.1236   15.9708 C.ar      1 UNK         0.0000 
     14 C14         0.6867   48.4005   14.8574 C.ar      1 UNK         0.0000 
     15 C15         0.2494   49.0645   13.7042 C.ar      1 UNK         0.0000 
     16 C16         0.2440   50.4573   13.6833 C.ar      1 UNK         0.0000 
     17 C17         0.6630   51.1840   14.7941 C.ar      1 UNK         0.0000 
     18 O18        -0.1800   48.4322   12.5546 O.3       1 UNK         0.0000 
     19 C19        -0.2059   47.0102   12.5113 C.3       1 UNK         0.0000 
     20 C20         3.1216   53.3012   22.6159 C.3       1 UNK         0.0000 
     21 C21         2.1360   53.3513   23.8242 C.3       1 UNK         0.0000 
     22 C22         1.7489   51.9012   24.2948 C.3       1 UNK         0.0000 
     23 H23         2.7043   51.4802   24.4816 H         1 UNK         0.0000 
     24 C24         1.0229   51.9120   25.6996 C.3       1 UNK         0.0000 
     25 H25         0.0720   52.4251   25.5459 H         1 UNK         0.0000 
     26 C26         1.8211   52.6845   26.8095 C.3       1 UNK         0.0000 
     27 H27         2.7751   52.1882   26.8882 H         1 UNK         0.0000 
     28 C28         2.0806   54.0936   26.2765 C.3       1 UNK         0.0000 
     29 C29         2.8778   54.0902   24.9677 C.3       1 UNK         0.0000 
     30 C30         1.1639   52.6917   28.2443 C.3       1 UNK         0.0000 
     31 H31         1.1178   51.6445   28.5487 H         1 UNK         0.0000 
     32 C32        -0.3055   53.1774   28.2595 C.3       1 UNK         0.0000 
     33 C33         1.9731   53.3554   29.4058 C.2       1 UNK         0.0000 
     34 O34         1.4196   53.5975   30.4778 O.2       1 UNK         0.0000 
     35 N35         3.3047   53.5490   29.3039 N.am      1 UNK         0.0000 
     36 C36         4.1669   52.3795   29.4435 C.3       1 UNK         0.0000 
     37 C37         5.1686   52.4273   28.2868 C.3       1 UNK         0.0000 
     38 C38         5.0261   54.8958   28.0777 C.3       1 UNK         0.0000 
     39 C39         3.8960   54.8968   29.1449 C.3       1 UNK         0.0000 
     40 C40         7.0630   53.6941   27.1875 C.3       1 UNK         0.0000 
     41 O41         0.6934   50.6316   26.1983 O.3       1 UNK         0.0000 
     42 C42         0.8636   54.1020   23.4014 C.3       1 UNK         0.0000 
     43 H43         0.9047   48.8666   22.6403 H         1 UNK         0.0000 
     44 H44         2.4808   49.2969   23.2823 H         1 UNK         0.0000 
     45 H45         1.1040   49.0908   24.3551 H         1 UNK         0.0000 
     46 H46         0.8604   49.8785   18.3495 H         1 UNK         0.0000 
     47 H47         1.4685   48.5783   16.8312 H         1 UNK         0.0000 
     48 H48         0.7203   47.3235   14.9055 H         1 UNK         0.0000 
     49 H49        -0.0831   50.9758   12.7942 H         1 UNK         0.0000 
     50 H50         0.6472   52.2633   14.7469 H         1 UNK         0.0000 
     51 H51        -0.5602   46.6855   11.5341 H         1 UNK         0.0000 
     52 H52         0.7876   46.5864   12.6578 H         1 UNK         0.0000 
     53 H53        -0.8860   46.6009   13.2596 H         1 UNK         0.0000 
     54 H54         3.3208   54.2983   22.2225 H         1 UNK         0.0000 
     55 H55         4.0908   52.8953   22.9043 H         1 UNK         0.0000 
     56 H56         1.1044   54.4966   26.1727 H         1 UNK         0.0000 
     57 H57         2.5635   54.7344   26.9947 H         1 UNK         0.0000 
     58 H58         3.1005   55.1145   24.6671 H         1 UNK         0.0000 
     59 H59         3.8476   53.6243   25.1484 H         1 UNK         0.0000 
     60 H60        -0.7730   52.9813   29.2255 H         1 UNK         0.0000 
     61 H61        -0.3774   54.2489   28.0834 H         1 UNK         0.0000 
     62 H62        -0.9229   52.6670   27.5215 H         1 UNK         0.0000 
     63 H63         3.6073   51.4450   29.3623 H         1 UNK         0.0000 
     64 H64         4.6717   52.3878   30.4074 H         1 UNK         0.0000 
     65 H65         5.9136   51.6967   28.4817 H         1 UNK         0.0000 
     66 H66         4.8011   52.1025   27.3145 H         1 UNK         0.0000 
     67 H67         5.7262   55.6967   28.2646 H         1 UNK         0.0000 
     68 H68         4.6992   54.9319   27.0407 H         1 UNK         0.0000 
     69 H69         4.3460   55.2059   30.0817 H         1 UNK         0.0000 
     70 H70         3.1354   55.6337   28.8763 H         1 UNK         0.0000 
     71 H71         6.5754   53.5760   26.2163 H         1 UNK         0.0000 
     72 H72         7.6029   54.6363   27.2605 H         1 UNK         0.0000 
     73 H73         7.7189   52.8537   27.4094 H         1 UNK         0.0000 
     74 H74        -0.0449   50.2723   25.7022 H         1 UNK         0.0000 
     75 H75         0.3044   53.4702   22.7227 H         1 UNK         0.0000 
     76 H76         0.1949   54.3401   24.2198 H         1 UNK         0.0000 
     77 H77         1.1038   55.0291   22.8822 H         1 UNK         0.0000 
     78 N78         5.9781   53.7208   28.2832 N.4       1 UNK         0.0000 
     79 H79         6.4182   53.8231   29.1901 H         1 UNK         0.0000 
@<TRIPOS>BOND
     1    1    2 1    
     2    1   43 1    
     3    1   44 1    
     4    1   45 1    
     5    2    3 1    
     6    2   22 1    
     7    2    4 1    
     8    4    8 1    
     9    4    5 2    
    10    5    6 1    
    11    5   20 1    
    12    6    7 1    
    13    7    8 2    
    14    7    9 am   BACKBONE|DICT|INTERRES
    15    9   10 am   BACKBONE|DICT|INTERRES
    16    9   46 1    
    17   10   11 2    
    18   10   12 1    
    19   12   17 ar   
    20   12   13 ar   
    21   13   14 ar   
    22   13   47 1    
    23   14   15 ar   
    24   14   48 1    
    25   15   16 ar   
    26   15   18 1    
    27   16   17 ar   
    28   16   49 1    
    29   17   50 1    
    30   18   19 1    
    31   19   51 1    
    32   19   52 1    
    33   19   53 1    
    34   20   21 1    
    35   20   54 1    
    36   20   55 1    
    37   21   29 1    
    38   21   22 1    
    39   21   42 1    
    40   22   23 1    
    41   22   24 1    
    42   24   25 1    
    43   24   26 1    
    44   24   41 1    
    45   26   27 1    
    46   26   28 1    
    47   26   30 1    
    48   28   29 1    
    49   28   56 1    
    50   28   57 1    
    51   29   58 1    
    52   29   59 1    
    53   30   31 1    
    54   30   32 1    
    55   30   33 1    
    56   32   60 1    
    57   32   61 1    
    58   32   62 1    
    59   33   34 2    
    60   33   35 am   BACKBONE|DICT|INTERRES
    61   35   39 1    
    62   35   36 1    
    63   36   37 1    
    64   36   63 1    
    65   36   64 1    
    66   37   65 1    
    67   37   66 1    
    68   37   78 1    
    69   38   39 1    
    70   38   67 1    
    71   38   68 1    
    72   38   78 1    
    73   39   69 1    
    74   39   70 1    
    75   40   71 1    
    76   40   72 1    
    77   40   73 1    
    78   40   78 1    
    79   41   74 1    
    80   42   75 1    
    81   42   76 1    
    82   42   77 1    
    83   78   79 1    
@<TRIPOS>SUBSTRUCTURE
     1 UNK         1 GROUP             0       ****    0 ROOT    
