@<TRIPOS>MOLECULE
ZINC45866104_4909
66   69    1
SMALL
USER_CHARGES


@<TRIPOS>ATOM
      1 C1          4.9025   54.3842   27.3566 C.3       1 UNK         0.0000 
      2 C2          5.0257   54.4195   25.8438 C.ar      1 UNK         0.0000 
      3 C3          3.9210   54.0985   25.0510 C.ar      1 UNK         0.0000 
      4 C4          4.0363   54.0960   23.6627 C.ar      1 UNK         0.0000 
      5 C5          5.2583   54.4134   23.0677 C.ar      1 UNK         0.0000 
      6 C6          6.3678   54.7346   23.8612 C.ar      1 UNK         0.0000 
      7 C7          6.2479   54.7357   25.2476 C.ar      1 UNK         0.0000 
      8 N8          5.3404   54.3622   21.6688 N.am      1 UNK         0.0000 
      9 C9          5.9045   55.2976   20.8795 C.2       1 UNK         0.0000 
     10 O10         6.3114   56.3896   21.2814 O.2       1 UNK         0.0000 
     11 C11         5.9876   54.9667   19.3820 C.3       1 UNK         0.0000 
     12 C12         7.0880   55.7280   18.5743 C.3       1 UNK         0.0000 
     13 H13         7.0550   56.7780   18.8625 H         1 UNK         0.0000 
     14 C14         8.5107   55.3212   19.0833 C.2       1 UNK         0.0000 
     15 O15         8.9829   55.6991   20.1489 O.2       1 UNK         0.0000 
     16 N16         9.1693   54.4912   18.2565 N.am      1 UNK         0.0000 
     17 C17         8.6409   53.8681   17.1277 C.ar      1 UNK         0.0000 
     18 C18         9.1956   52.6732   16.6652 C.ar      1 UNK         0.0000 
     19 C19         8.6162   52.0156   15.5794 C.ar      1 UNK         0.0000 
     20 C20         7.4827   52.5475   14.9649 C.ar      1 UNK         0.0000 
     21 C21         6.9319   53.7442   15.4256 C.ar      1 UNK         0.0000 
     22 C22         7.5311   54.4422   16.4881 C.ar      1 UNK         0.0000 
     23 N23         6.9396   55.5843   17.0938 N.am      1 UNK         0.0000 
     24 C24         6.5016   56.6437   16.3440 C.2       1 UNK         0.0000 
     25 O25         6.6252   56.6907   15.1166 O.2       1 UNK         0.0000 
     26 C26         5.8024   57.8346   17.0580 C.3       1 UNK         0.0000 
     27 N27         4.7216   58.4967   16.2316 N.4       1 UNK         0.0000 
     28 C28         5.3150   59.4828   15.1923 C.3       1 UNK         0.0000 
     29 C29         3.5841   57.5790   15.6755 C.3       1 UNK         0.0000 
     30 C30         3.1963   56.4762   16.7058 C.3       1 UNK         0.0000 
     31 C31         1.8632   55.7598   16.4181 C.3       1 UNK         0.0000 
     32 C32         0.7171   56.7474   16.1565 C.3       1 UNK         0.0000 
     33 C33         1.0709   57.7074   15.0106 C.3       1 UNK         0.0000 
     34 C34         2.3762   58.4790   15.2870 C.3       1 UNK         0.0000 
     35 H35         4.4311   55.2951   27.7244 H         1 UNK         0.0000 
     36 H36         5.8755   54.2639   27.8369 H         1 UNK         0.0000 
     37 H37         4.2915   53.5352   27.6686 H         1 UNK         0.0000 
     38 H38         2.9759   53.8451   25.5098 H         1 UNK         0.0000 
     39 H39         3.1774   53.8404   23.0573 H         1 UNK         0.0000 
     40 H40         7.3208   54.9732   23.4078 H         1 UNK         0.0000 
     41 H41         7.1051   54.9738   25.8578 H         1 UNK         0.0000 
     42 H42         4.8405   53.6106   21.2182 H         1 UNK         0.0000 
     43 H43         6.0859   53.8890   19.2280 H         1 UNK         0.0000 
     44 H44         5.0121   55.2186   18.9649 H         1 UNK         0.0000 
     45 H45        10.0563   54.1801   18.6257 H         1 UNK         0.0000 
     46 H46        10.0533   52.2360   17.1572 H         1 UNK         0.0000 
     47 H47         9.0328   51.0835   15.2264 H         1 UNK         0.0000 
     48 H48         7.0185   52.0238   14.1408 H         1 UNK         0.0000 
     49 H49         6.0341   54.1229   14.9582 H         1 UNK         0.0000 
     50 H50         5.3191   57.5745   17.9993 H         1 UNK         0.0000 
     51 H51         6.5343   58.6161   17.2713 H         1 UNK         0.0000 
     52 H52         5.7241   58.9148   14.3563 H         1 UNK         0.0000 
     53 H53         4.5113   60.1413   14.8718 H         1 UNK         0.0000 
     54 H54         6.0783   60.0906   15.6821 H         1 UNK         0.0000 
     55 H55         3.9173   57.0639   14.7717 H         1 UNK         0.0000 
     56 H56         3.9927   55.7449   16.8361 H         1 UNK         0.0000 
     57 H57         3.1027   56.9448   17.6817 H         1 UNK         0.0000 
     58 H58         1.9842   55.1027   15.5555 H         1 UNK         0.0000 
     59 H59         1.6078   55.1085   17.2552 H         1 UNK         0.0000 
     60 H60        -0.1959   56.2012   15.9174 H         1 UNK         0.0000 
     61 H61         0.5029   57.3170   17.0627 H         1 UNK         0.0000 
     62 H62         1.1694   57.1461   14.0806 H         1 UNK         0.0000 
     63 H63         0.2522   58.4110   14.8486 H         1 UNK         0.0000 
     64 H64         2.1691   59.1532   16.1201 H         1 UNK         0.0000 
     65 H65         2.6152   59.1415   14.4568 H         1 UNK         0.0000 
     66 H66         4.2366   59.1107   16.8767 H         1 UNK         0.0000 
@<TRIPOS>BOND
     1    1    2 1    
     2    1   35 1    
     3    1   36 1    
     4    1   37 1    
     5    2    7 ar   
     6    2    3 ar   
     7    3    4 ar   
     8    3   38 1    
     9    4    5 ar   
    10    4   39 1    
    11    5    6 ar   
    12    5    8 1    
    13    6    7 ar   
    14    6   40 1    
    15    7   41 1    
    16    8    9 am   BACKBONE|DICT|INTERRES
    17    8   42 1    
    18    9   10 2    
    19    9   11 1    
    20   11   12 1    
    21   11   43 1    
    22   11   44 1    
    23   12   13 1    
    24   12   23 1    
    25   12   14 1    
    26   14   15 2    
    27   14   16 am   BACKBONE|DICT|INTERRES
    28   16   17 1    
    29   16   45 1    
    30   17   22 ar   
    31   17   18 ar   
    32   18   19 ar   
    33   18   46 1    
    34   19   20 ar   
    35   19   47 1    
    36   20   21 ar   
    37   20   48 1    
    38   21   22 ar   
    39   21   49 1    
    40   22   23 1    
    41   23   24 am   BACKBONE|DICT|INTERRES
    42   24   25 2    
    43   24   26 1    
    44   26   27 1    
    45   26   50 1    
    46   26   51 1    
    47   27   28 1    
    48   27   29 1    
    49   27   66 1    
    50   28   52 1    
    51   28   53 1    
    52   28   54 1    
    53   29   34 1    
    54   29   30 1    
    55   29   55 1    
    56   30   31 1    
    57   30   56 1    
    58   30   57 1    
    59   31   32 1    
    60   31   58 1    
    61   31   59 1    
    62   32   33 1    
    63   32   60 1    
    64   32   61 1    
    65   33   34 1    
    66   33   62 1    
    67   33   63 1    
    68   34   64 1    
    69   34   65 1    
@<TRIPOS>SUBSTRUCTURE
     1 UNK         1 GROUP             0       ****    0 ROOT    
