@<TRIPOS>MOLECULE
ZINC55996171_1489
44   47    1
SMALL
USER_CHARGES


@<TRIPOS>ATOM
      1 C1          1.0834   52.6149   27.1344 C.3       1 UNK         0.0000 
      2 C2          2.3654   53.3608   27.4912 C.ar      1 UNK         0.0000 
      3 C3          3.2429   53.6946   26.4577 C.ar      1 UNK         0.0000 
      4 C4          4.5092   54.2535   26.7120 C.ar      1 UNK         0.0000 
      5 C5          4.8657   54.4968   28.0454 C.ar      1 UNK         0.0000 
      6 C6          3.9818   54.2114   29.0840 C.ar      1 UNK         0.0000 
      7 C7          2.7263   53.6466   28.8193 C.ar      1 UNK         0.0000 
      8 N8          1.8526   53.3601   29.8841 N.am      1 UNK         0.0000 
      9 C9          0.5422   53.9786   30.0527 C.3       1 UNK         0.0000 
     10 C10        -0.0691   53.1898   31.1832 C.3       1 UNK         0.0000 
     11 N11         1.0920   52.4971   31.6844 N.am      1 UNK         0.0000 
     12 C12         2.1646   52.4964   30.8809 C.2       1 UNK         0.0000 
     13 O13         3.1772   51.8095   31.0114 O.2       1 UNK         0.0000 
     14 C14         5.4678   54.6036   25.5891 C.2       1 UNK         0.0000 
     15 O15         6.4883   55.2577   25.8200 O.2       1 UNK         0.0000 
     16 N16         5.0930   54.1657   24.3654 N.am      1 UNK         0.0000 
     17 C17         5.5846   54.4955   23.0942 C.ar      1 UNK         0.0000 
     18 C18         4.7870   54.1200   22.0106 C.ar      1 UNK         0.0000 
     19 C19         5.1401   54.4963   20.7171 C.ar      1 UNK         0.0000 
     20 C20         6.3048   55.2383   20.4945 C.ar      1 UNK         0.0000 
     21 C21         7.1291   55.5644   21.5741 C.ar      1 UNK         0.0000 
     22 C22         6.7690   55.2031   22.8665 C.ar      1 UNK         0.0000 
     23 C23         6.6757   55.6816   19.1196 C.2       1 UNK         0.0000 
     24 N24         7.7547   56.3235   18.7358 N.2       1 UNK         0.0000 
     25 N25         7.6168   56.5336   17.3677 N.2       1 UNK         0.0000 
     26 C26         6.4653   56.0054   17.0377 C.2       1 UNK         0.0000 
     27 O27         5.8173   55.4522   18.0927 O.3       1 UNK         0.0000 
     28 H28         1.1872   52.0700   26.1955 H         1 UNK         0.0000 
     29 H29         0.8450   51.8636   27.8897 H         1 UNK         0.0000 
     30 H30         0.2394   53.2950   27.0496 H         1 UNK         0.0000 
     31 H31         2.9239   53.4756   25.4499 H         1 UNK         0.0000 
     32 H32         5.8292   54.9240   28.2911 H         1 UNK         0.0000 
     33 H33         4.2877   54.4223   30.0977 H         1 UNK         0.0000 
     34 H34        -0.0654   53.8930   29.1537 H         1 UNK         0.0000 
     35 H35         0.6523   55.0327   30.3134 H         1 UNK         0.0000 
     36 H36        -0.4472   53.8668   31.9515 H         1 UNK         0.0000 
     37 H37        -0.8703   52.5063   30.8786 H         1 UNK         0.0000 
     38 H38         1.1495   52.2484   32.6631 H         1 UNK         0.0000 
     39 H39         4.2604   53.6011   24.3493 H         1 UNK         0.0000 
     40 H40         3.8698   53.5684   22.1590 H         1 UNK         0.0000 
     41 H41         4.4965   54.2239   19.8928 H         1 UNK         0.0000 
     42 H42         8.0542   56.1017   21.4238 H         1 UNK         0.0000 
     43 H43         7.4316   55.4927   23.6671 H         1 UNK         0.0000 
     44 H44         5.9767   55.9529   16.0766 H         1 UNK         0.0000 
@<TRIPOS>BOND
     1    1    2 1    
     2    1   28 1    
     3    1   29 1    
     4    1   30 1    
     5    2    7 ar   
     6    2    3 ar   
     7    3    4 ar   
     8    3   31 1    
     9    4    5 ar   
    10    4   14 1    
    11    5    6 ar   
    12    5   32 1    
    13    6    7 ar   
    14    6   33 1    
    15    7    8 1    
    16    8   12 am   BACKBONE|DICT|INTERRES
    17    8    9 1    
    18    9   10 1    
    19    9   34 1    
    20    9   35 1    
    21   10   11 1    
    22   10   36 1    
    23   10   37 1    
    24   11   12 am   BACKBONE|DICT|INTERRES
    25   11   38 1    
    26   12   13 2    
    27   14   15 2    
    28   14   16 am   BACKBONE|DICT|INTERRES
    29   16   17 1    
    30   16   39 1    
    31   17   22 ar   
    32   17   18 ar   
    33   18   19 ar   
    34   18   40 1    
    35   19   20 ar   
    36   19   41 1    
    37   20   21 ar   
    38   20   23 1    
    39   21   22 ar   
    40   21   42 1    
    41   22   43 1    
    42   23   27 1    
    43   23   24 2    
    44   24   25 1    
    45   25   26 2    
    46   26   27 1    
    47   26   44 1    
@<TRIPOS>SUBSTRUCTURE
     1 UNK         1 GROUP             0       ****    0 ROOT    
