@<TRIPOS>MOLECULE
ZINC66338335_4607
38   40    1
SMALL
USER_CHARGES


@<TRIPOS>ATOM
      1 C1          2.0807   53.3028   27.2813 C.ar      1 UNK         0.0000 
      2 C2          2.9103   53.6977   26.2324 C.ar      1 UNK         0.0000 
      3 C3          4.2890   53.8949   26.4219 C.ar      1 UNK         0.0000 
      4 C4          4.8213   53.6433   27.7105 C.ar      1 UNK         0.0000 
      5 C5          3.9806   53.2558   28.7555 C.ar      1 UNK         0.0000 
      6 C6          2.6164   53.0855   28.5466 C.ar      1 UNK         0.0000 
      7 Cl7         1.6016   52.5866   29.8502 Cl        1 UNK         0.0000 
      8 Cl8         6.5129   53.6971   28.0814 Cl        1 UNK         0.0000 
      9 C9          5.0858   54.3299   25.2129 C.2       1 UNK         0.0000 
     10 N10         4.7570   54.0560   23.9635 N.2       1 UNK         0.0000 
     11 C11         5.6451   54.4967   23.0801 C.2       1 UNK         0.0000 
     12 C12         6.6982   55.2217   23.6400 C.2       1 UNK         0.0000 
     13 S13         6.5224   55.2966   25.3543 S.3       1 UNK         0.0000 
     14 C14         5.5044   54.2929   21.6490 C.2       1 UNK         0.0000 
     15 O15         6.2603   54.8966   20.8789 O.2       1 UNK         0.0000 
     16 N16         4.5805   53.3846   21.2495 N.am      1 UNK         0.0000 
     17 N17         4.5740   52.8802   19.9327 N.am      1 UNK         0.0000 
     18 C18         4.2388   53.6251   18.8586 C.2       1 UNK         0.0000 
     19 O19         3.9044   54.8104   18.8843 O.2       1 UNK         0.0000 
     20 N20         4.3268   52.8967   17.7340 N.am      1 UNK         0.0000 
     21 C21         4.0963   53.3865   16.3758 C.3       1 UNK         0.0000 
     22 C22         5.2882   54.1664   15.7907 C.3       1 UNK         0.0000 
     23 C23         5.0596   55.1583   14.6786 C.3       1 UNK         0.0000 
     24 C24         5.4577   55.6402   16.0641 C.3       1 UNK         0.0000 
     25 H25         1.0233   53.1627   27.1101 H         1 UNK         0.0000 
     26 H26         2.4611   53.8646   25.2640 H         1 UNK         0.0000 
     27 H27         4.3975   53.0586   29.7317 H         1 UNK         0.0000 
     28 H28         7.5198   55.7050   23.1352 H         1 UNK         0.0000 
     29 H29         3.8494   53.0034   21.8314 H         1 UNK         0.0000 
     30 H30         5.0071   51.9709   19.8519 H         1 UNK         0.0000 
     31 H31         4.6380   51.9290   17.8092 H         1 UNK         0.0000 
     32 H32         3.2242   54.0442   16.4011 H         1 UNK         0.0000 
     33 H33         3.7798   52.5977   15.6926 H         1 UNK         0.0000 
     34 H34         6.1835   53.5472   15.7154 H         1 UNK         0.0000 
     35 H35         4.0411   55.3316   14.3292 H         1 UNK         0.0000 
     36 H36         5.7892   55.2059   13.8693 H         1 UNK         0.0000 
     37 H37         6.4659   56.0201   16.2313 H         1 UNK         0.0000 
     38 H38         4.7179   56.1485   16.6842 H         1 UNK         0.0000 
@<TRIPOS>BOND
     1    1    6 ar   
     2    1    2 ar   
     3    1   25 1    
     4    2    3 ar   
     5    2   26 1    
     6    3    4 ar   
     7    3    9 1    
     8    4    5 ar   
     9    4    8 1    
    10    5    6 ar   
    11    5   27 1    
    12    6    7 1    
    13    9   13 1    
    14    9   10 2    
    15   10   11 1    
    16   11   12 2    
    17   11   14 1    
    18   12   13 1    
    19   12   28 1    
    20   14   15 2    
    21   14   16 am   BACKBONE|DICT|INTERRES
    22   16   17 1    
    23   16   29 1    
    24   17   18 am   BACKBONE|DICT|INTERRES
    25   17   30 1    
    26   18   19 2    
    27   18   20 am   BACKBONE|DICT|INTERRES
    28   20   21 1    
    29   20   31 1    
    30   21   22 1    
    31   21   32 1    
    32   21   33 1    
    33   22   24 1    
    34   22   23 1    
    35   22   34 1    
    36   23   24 1    
    37   23   35 1    
    38   23   36 1    
    39   24   37 1    
    40   24   38 1    
@<TRIPOS>SUBSTRUCTURE
     1 UNK         1 GROUP             0       ****    0 ROOT    
