@<TRIPOS>MOLECULE
ZINC08835686_4473
57   61    1
SMALL
USER_CHARGES


@<TRIPOS>ATOM
      1 C1          7.1046   54.0198   28.0555 C.3       1 UNK         0.0000 
      2 O2          5.7013   54.1311   27.8851 O.3       1 UNK         0.0000 
      3 C3          5.1698   54.2045   26.6077 C.ar      1 UNK         0.0000 
      4 C4          5.9689   54.3533   25.4588 C.ar      1 UNK         0.0000 
      5 C5          5.3997   54.3311   24.1623 C.ar      1 UNK         0.0000 
      6 C6          6.1894   54.4573   22.9897 C.ar      1 UNK         0.0000 
      7 C7          5.5930   54.4066   21.7297 C.ar      1 UNK         0.0000 
      8 C8          4.2222   54.2089   21.6048 C.ar      1 UNK         0.0000 
      9 C9          3.4192   54.0969   22.7355 C.ar      1 UNK         0.0000 
     10 C10         3.9910   54.1703   24.0291 C.ar      1 UNK         0.0000 
     11 C11         3.1980   54.0944   25.1904 C.ar      1 UNK         0.0000 
     12 C12         3.7749   54.0974   26.4670 C.ar      1 UNK         0.0000 
     13 C13         2.8844   53.9309   27.6745 C.2       1 UNK         0.0000 
     14 O14         3.0009   54.6724   28.6534 O.2       1 UNK         0.0000 
     15 N15         1.9893   52.9214   27.5367 N.am      1 UNK         0.0000 
     16 C16         0.9773   52.4336   28.3217 C.2       1 UNK         0.0000 
     17 S17         0.6390   52.8370   29.9088 S.2       1 UNK         0.0000 
     18 N18         0.1960   51.4826   27.7251 N.pl3     1 UNK         0.0000 
     19 C19         0.2081   51.0731   26.3760 C.ar      1 UNK         0.0000 
     20 C20         0.2828   49.7099   26.0858 C.ar      1 UNK         0.0000 
     21 C21         0.3637   49.2853   24.7614 C.ar      1 UNK         0.0000 
     22 C22         0.3527   50.2205   23.7223 C.ar      1 UNK         0.0000 
     23 C23         0.2495   51.5867   24.0114 C.ar      1 UNK         0.0000 
     24 C24         0.1656   52.0077   25.3345 C.ar      1 UNK         0.0000 
     25 N25         0.4977   49.7234   22.4188 N.am      1 UNK         0.0000 
     26 C26         0.0113   50.2477   21.2717 C.2       1 UNK         0.0000 
     27 O27        -0.6617   51.2790   21.1805 O.2       1 UNK         0.0000 
     28 C28         0.3217   49.4469   20.1162 C.2       1 UNK         0.0000 
     29 C29         1.4441   48.6701   19.8078 C.2       1 UNK         0.0000 
     30 C30         1.2210   48.1464   18.4972 C.ar      1 UNK         0.0000 
     31 C31         1.9064   47.2965   17.6158 C.ar      1 UNK         0.0000 
     32 C32         1.3382   47.0215   16.3657 C.ar      1 UNK         0.0000 
     33 C33         0.1102   47.5705   15.9875 C.ar      1 UNK         0.0000 
     34 C34        -0.5967   48.4189   16.8398 C.ar      1 UNK         0.0000 
     35 C35        -0.0190   48.6905   18.0881 C.ar      1 UNK         0.0000 
     36 O36        -0.5435   49.4968   19.0578 O.3       1 UNK         0.0000 
     37 H37         7.3354   53.9278   29.1153 H         1 UNK         0.0000 
     38 H38         7.5038   53.1343   27.5543 H         1 UNK         0.0000 
     39 H39         7.6281   54.9011   27.6822 H         1 UNK         0.0000 
     40 H40         7.0413   54.4560   25.5290 H         1 UNK         0.0000 
     41 H41         7.2592   54.5901   23.0765 H         1 UNK         0.0000 
     42 H42         6.1993   54.5038   20.8392 H         1 UNK         0.0000 
     43 H43         3.7713   54.1594   20.6216 H         1 UNK         0.0000 
     44 H44         2.3490   53.9734   22.6232 H         1 UNK         0.0000 
     45 H45         2.1269   54.0112   25.0663 H         1 UNK         0.0000 
     46 H46         2.0807   52.4348   26.6558 H         1 UNK         0.0000 
     47 H47        -0.4736   51.0098   28.3158 H         1 UNK         0.0000 
     48 H48         0.3029   48.9730   26.8785 H         1 UNK         0.0000 
     49 H49         0.4521   48.2273   24.5598 H         1 UNK         0.0000 
     50 H50         0.2567   52.3326   23.2270 H         1 UNK         0.0000 
     51 H51         0.0955   53.0630   25.5470 H         1 UNK         0.0000 
     52 H52         0.9698   48.8355   22.3440 H         1 UNK         0.0000 
     53 H53         2.3097   48.5061   20.4350 H         1 UNK         0.0000 
     54 H54         2.8757   46.8970   17.8762 H         1 UNK         0.0000 
     55 H55         1.8700   46.3856   15.6713 H         1 UNK         0.0000 
     56 H56        -0.2920   47.3407   15.0109 H         1 UNK         0.0000 
     57 H57        -1.5411   48.8578   16.5527 H         1 UNK         0.0000 
@<TRIPOS>BOND
     1    1    2 1    
     2    1   37 1    
     3    1   38 1    
     4    1   39 1    
     5    2    3 1    
     6    3   12 ar   
     7    3    4 ar   
     8    4    5 ar   
     9    4   40 1    
    10    5   10 ar   
    11    5    6 ar   
    12    6    7 ar   
    13    6   41 1    
    14    7    8 ar   
    15    7   42 1    
    16    8    9 ar   
    17    8   43 1    
    18    9   10 ar   
    19    9   44 1    
    20   10   11 ar   
    21   11   12 ar   
    22   11   45 1    
    23   12   13 1    
    24   13   14 2    
    25   13   15 am   BACKBONE|DICT|INTERRES
    26   15   16 am   BACKBONE|DICT|INTERRES
    27   15   46 1    
    28   16   17 2    
    29   16   18 1    
    30   18   19 1    
    31   18   47 1    
    32   19   24 ar   
    33   19   20 ar   
    34   20   21 ar   
    35   20   48 1    
    36   21   22 ar   
    37   21   49 1    
    38   22   23 ar   
    39   22   25 1    
    40   23   24 ar   
    41   23   50 1    
    42   24   51 1    
    43   25   26 am   BACKBONE|DICT|INTERRES
    44   25   52 1    
    45   26   27 2    
    46   26   28 1    
    47   28   36 1    
    48   28   29 2    
    49   29   30 1    
    50   29   53 1    
    51   30   35 ar   
    52   30   31 ar   
    53   31   32 ar   
    54   31   54 1    
    55   32   33 ar   
    56   32   55 1    
    57   33   34 ar   
    58   33   56 1    
    59   34   35 ar   
    60   34   57 1    
    61   35   36 1    
@<TRIPOS>SUBSTRUCTURE
     1 UNK         1 GROUP             0       ****    0 ROOT    
