@<TRIPOS>MOLECULE
ZINC13192111_1986
60   62    1
SMALL
USER_CHARGES


@<TRIPOS>ATOM
      1 C1          6.5086   54.6497   26.8672 C.3       1 UNK         0.0000 
      2 C2          5.7070   54.4989   25.5842 C.ar      1 UNK         0.0000 
      3 C3          6.3303   54.6603   24.3477 C.ar      1 UNK         0.0000 
      4 C4          5.6185   54.4907   23.1556 C.ar      1 UNK         0.0000 
      5 C5          4.2623   54.0969   23.2043 C.ar      1 UNK         0.0000 
      6 C6          3.6148   54.0034   24.4524 C.ar      1 UNK         0.0000 
      7 C7          4.3466   54.1921   25.6299 C.ar      1 UNK         0.0000 
      8 C8          2.1279   53.6829   24.5579 C.3       1 UNK         0.0000 
      9 N9          3.5063   53.8444   22.0438 N.am      1 UNK         0.0000 
     10 C10         3.6945   52.8130   21.1909 C.2       1 UNK         0.0000 
     11 O11         4.6279   52.0092   21.2824 O.2       1 UNK         0.0000 
     12 C12         2.6413   52.6716   20.0667 C.3       1 UNK         0.0000 
     13 N13         2.2519   51.3029   19.8140 N.pl3     1 UNK         0.0000 
     14 C14         1.3117   50.7055   20.6711 C.ar      1 UNK         0.0000 
     15 C15         1.8607   49.8150   21.5967 C.ar      1 UNK         0.0000 
     16 C16         1.0714   49.2395   22.5813 C.ar      1 UNK         0.0000 
     17 C17        -0.2837   49.5280   22.6521 C.ar      1 UNK         0.0000 
     18 C18        -0.8537   50.3836   21.7155 C.ar      1 UNK         0.0000 
     19 C19        -0.0879   50.9741   20.6932 C.ar      1 UNK         0.0000 
     20 C20        -0.8126   51.8401   19.6950 C.2       1 UNK         0.0000 
     21 O21        -2.0202   52.1035   19.9253 O.co2     1 UNK         0.0000 
     22 S22        -1.2713   48.8425   23.9710 S.o2      1 UNK         0.0000 
     23 O23        -2.6763   48.9735   23.5634 O.2       1 UNK         0.0000 
     24 O24        -0.7098   47.5266   24.3031 O.2       1 UNK         0.0000 
     25 N25        -0.9563   49.9539   25.3141 N.pl3     1 UNK         0.0000 
     26 C26         0.2206   49.6370   26.1617 C.3       1 UNK         0.0000 
     27 C27         0.6545   50.8756   26.9769 C.3       1 UNK         0.0000 
     28 C28        -0.5229   51.5260   27.7371 C.3       1 UNK         0.0000 
     29 C29        -1.7658   51.7294   26.8429 C.3       1 UNK         0.0000 
     30 C30        -2.1362   50.4505   26.0623 C.3       1 UNK         0.0000 
     31 C31         6.3436   54.8126   21.8546 C.3       1 UNK         0.0000 
     32 H32         6.7059   55.6989   27.0764 H         1 UNK         0.0000 
     33 H33         7.4695   54.1399   26.7817 H         1 UNK         0.0000 
     34 H34         5.9921   54.2116   27.7214 H         1 UNK         0.0000 
     35 H35         7.3745   54.9359   24.3120 H         1 UNK         0.0000 
     36 H36         3.8572   54.0872   26.5882 H         1 UNK         0.0000 
     37 H37         1.9274   52.6820   24.1737 H         1 UNK         0.0000 
     38 H38         1.7651   53.7484   25.5834 H         1 UNK         0.0000 
     39 H39         1.5449   54.3844   23.9593 H         1 UNK         0.0000 
     40 H40         2.6861   54.4159   21.9007 H         1 UNK         0.0000 
     41 H41         1.7822   53.2922   20.3116 H         1 UNK         0.0000 
     42 H42         3.0914   53.1170   19.1789 H         1 UNK         0.0000 
     43 H43         3.0400   50.7138   19.5740 H         1 UNK         0.0000 
     44 H44         2.9175   49.5853   21.5793 H         1 UNK         0.0000 
     45 H45         1.5046   48.5415   23.2814 H         1 UNK         0.0000 
     46 H46        -1.9156   50.5792   21.7869 H         1 UNK         0.0000 
     47 H47        -0.0902   48.8814   26.8815 H         1 UNK         0.0000 
     48 H48         1.0402   49.2673   25.5458 H         1 UNK         0.0000 
     49 H49         1.4451   50.5980   27.6799 H         1 UNK         0.0000 
     50 H50         1.0993   51.6046   26.3004 H         1 UNK         0.0000 
     51 H51        -0.2122   52.4788   28.1659 H         1 UNK         0.0000 
     52 H52        -0.7937   50.8963   28.5827 H         1 UNK         0.0000 
     53 H53        -1.5860   52.5415   26.1372 H         1 UNK         0.0000 
     54 H54        -2.6128   52.0433   27.4532 H         1 UNK         0.0000 
     55 H55        -2.9628   50.6477   25.3796 H         1 UNK         0.0000 
     56 H56        -2.4109   49.6979   26.8037 H         1 UNK         0.0000 
     57 H57         5.9374   54.2924   20.9899 H         1 UNK         0.0000 
     58 H58         6.3009   55.8838   21.6586 H         1 UNK         0.0000 
     59 H59         7.3929   54.5313   21.9269 H         1 UNK         0.0000 
     60 O60        -0.2074   52.2649   18.6875 O.co2     1 UNK         0.0000 
@<TRIPOS>BOND
     1    1    2 1    
     2    1   32 1    
     3    1   33 1    
     4    1   34 1    
     5    2    7 ar   
     6    2    3 ar   
     7    3    4 ar   
     8    3   35 1    
     9    4    5 ar   
    10    4   31 1    
    11    5    6 ar   
    12    5    9 1    
    13    6    7 ar   
    14    6    8 1    
    15    7   36 1    
    16    8   37 1    
    17    8   38 1    
    18    8   39 1    
    19    9   10 am   BACKBONE|DICT|INTERRES
    20    9   40 1    
    21   10   11 2    
    22   10   12 1    
    23   12   13 1    
    24   12   41 1    
    25   12   42 1    
    26   13   14 1    
    27   13   43 1    
    28   14   19 ar   
    29   14   15 ar   
    30   15   16 ar   
    31   15   44 1    
    32   16   17 ar   
    33   16   45 1    
    34   17   18 ar   
    35   17   22 1    
    36   18   19 ar   
    37   18   46 1    
    38   19   20 1    
    39   20   21 2    
    40   20   60 1    
    41   22   23 2    
    42   22   24 2    
    43   22   25 1    
    44   25   30 1    
    45   25   26 1    
    46   26   27 1    
    47   26   47 1    
    48   26   48 1    
    49   27   28 1    
    50   27   49 1    
    51   27   50 1    
    52   28   29 1    
    53   28   51 1    
    54   28   52 1    
    55   29   30 1    
    56   29   53 1    
    57   29   54 1    
    58   30   55 1    
    59   30   56 1    
    60   31   57 1    
    61   31   58 1    
    62   31   59 1    
@<TRIPOS>SUBSTRUCTURE
     1 UNK         1 GROUP             0       ****    0 ROOT    
