@<TRIPOS>MOLECULE
ZINC42016669_1843
43   45    1
SMALL
USER_CHARGES


@<TRIPOS>ATOM
      1 C1         -0.0923   52.2436   30.3592 C.3       1 UNK         0.0000 
      2 C2          0.5954   53.4391   29.6709 C.3       1 UNK         0.0000 
      3 H3          0.0044   53.7088   28.7930 H         1 UNK         0.0000 
      4 C4          0.6135   54.6661   30.6061 C.3       1 UNK         0.0000 
      5 C5          1.3222   55.8925   29.9941 C.3       1 UNK         0.0000 
      6 C6          2.6718   55.5506   29.3520 C.3       1 UNK         0.0000 
      7 C7          2.6133   54.3510   28.3814 C.3       1 UNK         0.0000 
      8 H8          2.0081   54.6583   27.5313 H         1 UNK         0.0000 
      9 C9          2.0339   53.1230   29.1677 C.3       1 UNK         0.0000 
     10 H10         2.6590   53.0070   30.0562 H         1 UNK         0.0000 
     11 C11         2.1320   51.7655   28.4504 C.3       1 UNK         0.0000 
     12 N12         3.9797   54.0781   27.8725 N.pl3     1 UNK         0.0000 
     13 C13         4.4595   53.8907   26.5799 C.ar      1 UNK         0.0000 
     14 N14         5.7608   53.6980   26.6465 N.2       1 UNK         0.0000 
     15 N15         6.1155   53.7213   27.9839 N.2       1 UNK         0.0000 
     16 N16         4.9947   53.9404   28.7460 N.2       1 UNK         0.0000 
     17 C17         3.6878   53.8140   25.2749 C.ar      1 UNK         0.0000 
     18 C18         2.3836   53.2969   25.2858 C.ar      1 UNK         0.0000 
     19 C19         1.6954   53.0169   24.1107 C.ar      1 UNK         0.0000 
     20 C20         2.2962   53.2626   22.8851 C.ar      1 UNK         0.0000 
     21 C21         3.5628   53.8353   22.8345 C.ar      1 UNK         0.0000 
     22 C22         4.2658   54.0954   24.0139 C.ar      1 UNK         0.0000 
     23 N23         5.5754   54.5569   23.8815 N.pl3     1 UNK         0.0000 
     24 N24         1.6406   52.8967   21.7159 N.pl3     1 UNK         0.0000 
     25 H25         0.5076   51.8698   31.1886 H         1 UNK         0.0000 
     26 H26        -1.0580   52.5144   30.7748 H         1 UNK         0.0000 
     27 H27        -0.2701   51.4159   29.6721 H         1 UNK         0.0000 
     28 H28        -0.4060   54.9190   30.9044 H         1 UNK         0.0000 
     29 H29         1.1019   54.3868   31.5369 H         1 UNK         0.0000 
     30 H30         0.7049   56.3401   29.2197 H         1 UNK         0.0000 
     31 H31         1.4524   56.6648   30.7538 H         1 UNK         0.0000 
     32 H32         3.0017   56.4681   28.8782 H         1 UNK         0.0000 
     33 H33         3.4299   55.3220   30.0818 H         1 UNK         0.0000 
     34 H34         1.3475   51.6276   27.7070 H         1 UNK         0.0000 
     35 H35         2.0511   50.9340   29.1499 H         1 UNK         0.0000 
     36 H36         3.0959   51.6758   27.9579 H         1 UNK         0.0000 
     37 H37         1.8955   53.0278   26.2004 H         1 UNK         0.0000 
     38 H38         0.7124   52.5726   24.1627 H         1 UNK         0.0000 
     39 H39         4.0228   54.0225   21.8752 H         1 UNK         0.0000 
     40 H40         6.1535   54.5507   24.7106 H         1 UNK         0.0000 
     41 H41         5.9962   54.5683   22.9644 H         1 UNK         0.0000 
     42 H42         0.7138   52.5107   21.7983 H         1 UNK         0.0000 
     43 H43         1.8712   53.4385   20.8899 H         1 UNK         0.0000 
@<TRIPOS>BOND
     1    1    2 1    
     2    1   25 1    
     3    1   26 1    
     4    1   27 1    
     5    2    3 1    
     6    2    9 1    
     7    2    4 1    
     8    4    5 1    
     9    4   28 1    
    10    4   29 1    
    11    5    6 1    
    12    5   30 1    
    13    5   31 1    
    14    6    7 1    
    15    6   32 1    
    16    6   33 1    
    17    7    8 1    
    18    7    9 1    
    19    7   12 1    
    20    9   10 1    
    21    9   11 1    
    22   11   34 1    
    23   11   35 1    
    24   11   36 1    
    25   12   16 ar   
    26   12   13 ar   
    27   13   14 ar   
    28   13   17 1    
    29   14   15 ar   
    30   15   16 ar   
    31   17   22 ar   
    32   17   18 ar   
    33   18   19 ar   
    34   18   37 1    
    35   19   20 ar   
    36   19   38 1    
    37   20   21 ar   
    38   20   24 1    
    39   21   22 ar   
    40   21   39 1    
    41   22   23 1    
    42   23   40 1    
    43   23   41 1    
    44   24   42 1    
    45   24   43 1    
@<TRIPOS>SUBSTRUCTURE
     1 UNK         1 GROUP             0       ****    0 ROOT    
