@<TRIPOS>MOLECULE
ZINC13033128_5779
44   46    1
SMALL
USER_CHARGES


@<TRIPOS>ATOM
      1 C1          3.5571   52.1220   20.0317 C.3       1 UNK         0.0000 
      2 C2          2.1414   51.5386   19.9890 C.3       1 UNK         0.0000 
      3 O3          1.5821   51.6548   21.2879 O.3       1 UNK         0.0000 
      4 C4          0.2569   51.5605   21.5035 C.2       1 UNK         0.0000 
      5 O5         -0.5480   51.3021   20.6056 O.2       1 UNK         0.0000 
      6 C6         -0.1748   51.7643   22.9185 C.2       1 UNK         0.0000 
      7 C7          0.5884   52.2462   23.9504 C.2       1 UNK         0.0000 
      8 N8          0.0290   52.3769   25.2333 N.am      1 UNK         0.0000 
      9 C9         -1.3359   52.3340   25.4522 C.2       1 UNK         0.0000 
     10 O10        -1.9246   52.4977   26.5219 O.2       1 UNK         0.0000 
     11 N11        -2.0901   52.0494   24.3645 N.am      1 UNK         0.0000 
     12 C12        -1.5968   51.2576   23.2253 C.3       1 UNK         0.0000 
     13 H13        -2.2731   51.4812   22.3966 H         1 UNK         0.0000 
     14 C14        -1.6219   49.7515   23.4786 C.2       1 UNK         0.0000 
     15 C15        -1.3759   49.0116   24.6398 C.2       1 UNK         0.0000 
     16 C16        -1.4761   47.6282   24.4833 C.2       1 UNK         0.0000 
     17 C17        -1.8305   47.2685   23.1959 C.2       1 UNK         0.0000 
     18 S18        -2.0192   48.6557   22.1829 S.3       1 UNK         0.0000 
     19 Br19       -2.1025   45.5268   22.4804 Br        1 UNK         0.0000 
     20 C20         0.8405   52.4729   26.4028 C.ar      1 UNK         0.0000 
     21 C21         0.8875   51.4156   27.3206 C.ar      1 UNK         0.0000 
     22 C22         1.6183   51.5524   28.4973 C.ar      1 UNK         0.0000 
     23 C23         2.3372   52.7212   28.7741 C.ar      1 UNK         0.0000 
     24 C24         2.2729   53.7796   27.8634 C.ar      1 UNK         0.0000 
     25 C25         1.5230   53.6568   26.7039 C.ar      1 UNK         0.0000 
     26 C26         3.1536   52.8523   30.0232 C.2       1 UNK         0.0000 
     27 O27         3.2720   51.8445   30.7607 O.co2     1 UNK         0.0000 
     28 C28         2.0236   52.7765   23.7437 C.3       1 UNK         0.0000 
     29 H29         4.0183   52.0951   19.0431 H         1 UNK         0.0000 
     30 H30         3.5448   53.1637   20.3536 H         1 UNK         0.0000 
     31 H31         4.1999   51.5648   20.7121 H         1 UNK         0.0000 
     32 H32         2.1579   50.4901   19.6912 H         1 UNK         0.0000 
     33 H33         1.5434   52.0844   19.2600 H         1 UNK         0.0000 
     34 H34        -3.0778   51.9874   24.5604 H         1 UNK         0.0000 
     35 H35        -1.1151   49.4639   25.5848 H         1 UNK         0.0000 
     36 H36        -1.3024   46.9299   25.2901 H         1 UNK         0.0000 
     37 H37         0.3357   50.5063   27.1427 H         1 UNK         0.0000 
     38 H38         1.6175   50.7379   29.2029 H         1 UNK         0.0000 
     39 H39         2.7998   54.7074   28.0453 H         1 UNK         0.0000 
     40 H40         1.5042   54.4866   26.0189 H         1 UNK         0.0000 
     41 H41         2.0842   53.3911   22.8470 H         1 UNK         0.0000 
     42 H42         2.4533   53.4168   24.4966 H         1 UNK         0.0000 
     43 H43         2.7019   51.9369   23.6370 H         1 UNK         0.0000 
     44 O44         3.6726   53.9647   30.2644 O.co2     1 UNK         0.0000 
@<TRIPOS>BOND
     1    1    2 1    
     2    1   29 1    
     3    1   30 1    
     4    1   31 1    
     5    2    3 1    
     6    2   32 1    
     7    2   33 1    
     8    3    4 1    
     9    4    5 2    
    10    4    6 1    
    11    6   12 1    
    12    6    7 2    
    13    7    8 1    
    14    7   28 1    
    15    8    9 am   BACKBONE|DICT|INTERRES
    16    8   20 1    
    17    9   10 2    
    18    9   11 am   BACKBONE|DICT|INTERRES
    19   11   12 1    
    20   11   34 1    
    21   12   13 1    
    22   12   14 1    
    23   14   18 1    
    24   14   15 2    
    25   15   16 1    
    26   15   35 1    
    27   16   17 2    
    28   16   36 1    
    29   17   18 1    
    30   17   19 1    
    31   20   25 ar   
    32   20   21 ar   
    33   21   22 ar   
    34   21   37 1    
    35   22   23 ar   
    36   22   38 1    
    37   23   24 ar   
    38   23   26 1    
    39   24   25 ar   
    40   24   39 1    
    41   25   40 1    
    42   26   27 2    
    43   26   44 1    
    44   28   41 1    
    45   28   42 1    
    46   28   43 1    
@<TRIPOS>SUBSTRUCTURE
     1 UNK         1 GROUP             0       ****    0 ROOT    
