@<TRIPOS>MOLECULE
ZINC59582784_1967
45   47    1
SMALL
USER_CHARGES


@<TRIPOS>ATOM
      1 C1          6.3000   55.6965   24.7529 C.3       1 UNK         0.0000 
      2 C2          5.5741   54.3540   24.9929 C.3       1 UNK         0.0000 
      3 H3          6.3245   53.5613   25.0236 H         1 UNK         0.0000 
      4 C4          4.8572   54.3727   26.3565 C.ar      1 UNK         0.0000 
      5 C5          3.4506   54.3865   26.4370 C.ar      1 UNK         0.0000 
      6 C6          2.8045   54.3821   27.6672 C.ar      1 UNK         0.0000 
      7 C7          3.5489   54.4489   28.8440 C.ar      1 UNK         0.0000 
      8 C8          4.9371   54.4470   28.7846 C.ar      1 UNK         0.0000 
      9 C9          5.5896   54.3620   27.5571 C.ar      1 UNK         0.0000 
     10 Br10        7.4832   54.1880   27.5860 Br        1 UNK         0.0000 
     11 O11         2.9480   54.4219   30.0817 O.3       1 UNK         0.0000 
     12 C12         1.5354   54.6819   30.0764 C.3       1 UNK         0.0000 
     13 C13         0.8569   53.9303   28.9126 C.3       1 UNK         0.0000 
     14 O14         1.4261   54.3716   27.6791 O.3       1 UNK         0.0000 
     15 N15         4.6427   53.9827   23.9222 N.am      1 UNK         0.0000 
     16 C16         4.8415   53.8119   22.6081 C.2       1 UNK         0.0000 
     17 O17         5.8970   54.0976   22.0470 O.2       1 UNK         0.0000 
     18 C18         3.6771   53.1769   21.8727 C.ar      1 UNK         0.0000 
     19 C19         2.3883   53.1344   22.4304 C.ar      1 UNK         0.0000 
     20 C20         1.3446   52.4963   21.7669 C.ar      1 UNK         0.0000 
     21 C21         1.5342   51.8939   20.5149 C.ar      1 UNK         0.0000 
     22 C22         2.8164   51.9611   19.9588 C.ar      1 UNK         0.0000 
     23 C23         3.8733   52.5878   20.6186 C.ar      1 UNK         0.0000 
     24 N24         0.5680   51.2291   19.7962 N.2       1 UNK         0.0000 
     25 S25        -0.8990   50.9489   20.2711 S.o2      1 UNK         0.0000 
     26 O26        -1.6782   50.2408   19.2524 O.2       1 UNK         0.0000 
     27 O27        -1.5639   52.0967   20.8970 O.2       1 UNK         0.0000 
     28 C28        -0.6772   49.6879   21.6465 C.3       1 UNK         0.0000 
     29 H29         7.1070   55.8611   25.4598 H         1 UNK         0.0000 
     30 H30         6.7435   55.7653   23.7601 H         1 UNK         0.0000 
     31 H31         5.6130   56.5311   24.8817 H         1 UNK         0.0000 
     32 H32         2.8285   54.3993   25.5559 H         1 UNK         0.0000 
     33 H33         5.5236   54.4926   29.6817 H         1 UNK         0.0000 
     34 H34         1.1030   54.3783   31.0298 H         1 UNK         0.0000 
     35 H35         1.3669   55.7543   29.9604 H         1 UNK         0.0000 
     36 H36         1.0234   52.8577   29.0287 H         1 UNK         0.0000 
     37 H37        -0.2200   54.0967   28.9061 H         1 UNK         0.0000 
     38 H38         3.8094   53.5293   24.2585 H         1 UNK         0.0000 
     39 H39         2.1678   53.5879   23.3849 H         1 UNK         0.0000 
     40 H40         0.3814   52.4863   22.2492 H         1 UNK         0.0000 
     41 H41         3.0081   51.5043   18.9968 H         1 UNK         0.0000 
     42 H42         4.8461   52.5953   20.1465 H         1 UNK         0.0000 
     43 H43        -1.6625   49.3980   22.0056 H         1 UNK         0.0000 
     44 H44        -0.0982   50.1315   22.4532 H         1 UNK         0.0000 
     45 H45        -0.1552   48.8248   21.2373 H         1 UNK         0.0000 
@<TRIPOS>BOND
     1    1    2 1    
     2    1   29 1    
     3    1   30 1    
     4    1   31 1    
     5    2    3 1    
     6    2    4 1    
     7    2   15 1    
     8    4    9 ar   
     9    4    5 ar   
    10    5    6 ar   
    11    5   32 1    
    12    6   14 1    
    13    6    7 ar   
    14    7    8 ar   
    15    7   11 1    
    16    8    9 ar   
    17    8   33 1    
    18    9   10 1    
    19   11   12 1    
    20   12   13 1    
    21   12   34 1    
    22   12   35 1    
    23   13   14 1    
    24   13   36 1    
    25   13   37 1    
    26   15   16 am   BACKBONE|DICT|INTERRES
    27   15   38 1    
    28   16   17 2    
    29   16   18 1    
    30   18   23 ar   
    31   18   19 ar   
    32   19   20 ar   
    33   19   39 1    
    34   20   21 ar   
    35   20   40 1    
    36   21   22 ar   
    37   21   24 1    
    38   22   23 ar   
    39   22   41 1    
    40   23   42 1    
    41   24   25 1    
    42   25   26 2    
    43   25   27 2    
    44   25   28 1    
    45   28   43 1    
    46   28   44 1    
    47   28   45 1    
@<TRIPOS>SUBSTRUCTURE
     1 UNK         1 GROUP             0       ****    0 ROOT    
