@<TRIPOS>MOLECULE
ZINC64589709_2025
61   63    1
SMALL
USER_CHARGES


@<TRIPOS>ATOM
      1 C1         -1.3456   51.4525   29.8884 C.3       1 UNK         0.0000 
      2 C2         -0.1858   52.2234   29.3366 C.ar      1 UNK         0.0000 
      3 C3          0.4505   53.1924   30.1058 C.ar      1 UNK         0.0000 
      4 C4          1.6505   53.7290   29.6560 C.ar      1 UNK         0.0000 
      5 C5          2.1994   53.2802   28.4435 C.ar      1 UNK         0.0000 
      6 C6          1.5017   52.3815   27.6418 C.ar      1 UNK         0.0000 
      7 C7          0.3082   51.8451   28.0918 C.ar      1 UNK         0.0000 
      8 N8          3.4479   53.6502   27.9458 N.am      1 UNK         0.0000 
      9 C9          4.4357   54.3544   28.5207 C.2       1 UNK         0.0000 
     10 O10         4.4112   54.7611   29.6794 O.2       1 UNK         0.0000 
     11 C11         5.6843   54.6525   27.6713 C.3       1 UNK         0.0000 
     12 N12         5.5857   54.2748   26.2440 N.3       1 UNK         0.0000 
     13 C13         6.8781   54.5470   25.6186 C.3       1 UNK         0.0000 
     14 C14         6.9283   53.9724   24.1876 C.3       1 UNK         0.0000 
     15 N15         5.8611   54.4971   23.3299 N.pl3     1 UNK         0.0000 
     16 C16         4.5521   54.4201   23.9954 C.3       1 UNK         0.0000 
     17 C17         4.5879   54.9950   25.4364 C.3       1 UNK         0.0000 
     18 C18         6.0482   54.8617   22.0048 C.ar      1 UNK         0.0000 
     19 C19         7.1558   55.6248   21.6404 C.ar      1 UNK         0.0000 
     20 C20         7.3123   56.0656   20.3332 C.ar      1 UNK         0.0000 
     21 C21         6.3595   55.7640   19.3489 C.ar      1 UNK         0.0000 
     22 C22         5.2820   54.8927   19.6698 C.ar      1 UNK         0.0000 
     23 C23         5.1410   54.4840   21.0107 C.ar      1 UNK         0.0000 
     24 C24         4.2804   54.3899   18.6507 C.2       1 UNK         0.0000 
     25 O25         3.5049   53.4714   19.0005 O.co2     1 UNK         0.0000 
     26 O26         4.2705   54.9038   17.5063 O.co2     1 UNK         0.0000 
     27 N27         6.4503   56.3077   18.0482 N.am      1 UNK         0.0000 
     28 C28         7.1631   57.3526   17.5745 C.2       1 UNK         0.0000 
     29 O29         7.9152   58.0578   18.2504 O.2       1 UNK         0.0000 
     30 C30         6.9700   57.6689   16.0770 C.3       1 UNK         0.0000 
     31 C31         6.4422   59.1049   15.8665 C.3       1 UNK         0.0000 
     32 C32         8.2730   57.4279   15.2867 C.3       1 UNK         0.0000 
     33 H33        -1.6943   51.6967   30.8817 H         1 UNK         0.0000 
     34 H34        -2.1792   51.3593   29.1914 H         1 UNK         0.0000 
     35 H35        -0.8957   50.4967   30.0374 H         1 UNK         0.0000 
     36 H36         0.0550   53.4755   31.0714 H         1 UNK         0.0000 
     37 H37         2.1417   54.4565   30.2798 H         1 UNK         0.0000 
     38 H38         1.8993   52.0569   26.6916 H         1 UNK         0.0000 
     39 H39        -0.1974   51.0889   27.5068 H         1 UNK         0.0000 
     40 H40         3.6655   53.3206   27.0157 H         1 UNK         0.0000 
     41 H41         6.4913   54.0833   28.1374 H         1 UNK         0.0000 
     42 H42         5.9387   55.6972   27.7762 H         1 UNK         0.0000 
     43 H43         7.6344   54.0938   26.2452 H         1 UNK         0.0000 
     44 H44         7.0926   55.6178   25.5956 H         1 UNK         0.0000 
     45 H45         6.7983   52.8972   24.2240 H         1 UNK         0.0000 
     46 H46         7.9042   54.0977   23.7341 H         1 UNK         0.0000 
     47 H47         3.7948   54.9340   23.4037 H         1 UNK         0.0000 
     48 H48         4.2395   53.3753   24.0208 H         1 UNK         0.0000 
     49 H49         4.8197   56.0609   25.4255 H         1 UNK         0.0000 
     50 H50         3.5850   54.8966   25.8450 H         1 UNK         0.0000 
     51 H51         7.8933   55.9103   22.3769 H         1 UNK         0.0000 
     52 H52         8.1936   56.6415   20.1037 H         1 UNK         0.0000 
     53 H53         4.3071   53.8551   21.2909 H         1 UNK         0.0000 
     54 H54         5.7595   55.8935   17.4241 H         1 UNK         0.0000 
     55 H55         6.2149   56.9898   15.6733 H         1 UNK         0.0000 
     56 H56         5.5085   59.2784   16.4059 H         1 UNK         0.0000 
     57 H57         6.2442   59.3054   14.8134 H         1 UNK         0.0000 
     58 H58         7.1542   59.8552   16.2149 H         1 UNK         0.0000 
     59 H59         8.6208   56.3991   15.3931 H         1 UNK         0.0000 
     60 H60         8.1273   57.6112   14.2220 H         1 UNK         0.0000 
     61 H61         9.0782   58.0812   15.6269 H         1 UNK         0.0000 
@<TRIPOS>BOND
     1    1    2 1    
     2    1   33 1    
     3    1   34 1    
     4    1   35 1    
     5    2    7 ar   
     6    2    3 ar   
     7    3    4 ar   
     8    3   36 1    
     9    4    5 ar   
    10    4   37 1    
    11    5    6 ar   
    12    5    8 1    
    13    6    7 ar   
    14    6   38 1    
    15    7   39 1    
    16    8    9 am   BACKBONE|DICT|INTERRES
    17    8   40 1    
    18    9   10 2    
    19    9   11 1    
    20   11   12 1    
    21   11   41 1    
    22   11   42 1    
    23   12   17 1    
    24   12   13 1    
    25   13   14 1    
    26   13   43 1    
    27   13   44 1    
    28   14   15 1    
    29   14   45 1    
    30   14   46 1    
    31   15   16 1    
    32   15   18 1    
    33   16   17 1    
    34   16   47 1    
    35   16   48 1    
    36   17   49 1    
    37   17   50 1    
    38   18   23 ar   
    39   18   19 ar   
    40   19   20 ar   
    41   19   51 1    
    42   20   21 ar   
    43   20   52 1    
    44   21   22 ar   
    45   21   27 1    
    46   22   23 ar   
    47   22   24 1    
    48   23   53 1    
    49   24   25 2    
    50   24   26 1    
    51   27   28 am   BACKBONE|DICT|INTERRES
    52   27   54 1    
    53   28   29 2    
    54   28   30 1    
    55   30   31 1    
    56   30   32 1    
    57   30   55 1    
    58   31   56 1    
    59   31   57 1    
    60   31   58 1    
    61   32   59 1    
    62   32   60 1    
    63   32   61 1    
@<TRIPOS>SUBSTRUCTURE
     1 UNK         1 GROUP             0       ****    0 ROOT    
