@<TRIPOS>MOLECULE
ZINC38547071_4892
62   65    1
SMALL
USER_CHARGES


@<TRIPOS>ATOM
      1 C1         -4.2757   49.1220   20.1001 C.3       1 UNK         0.0000 
      2 C2         -4.2281   50.3237   19.1418 C.3       1 UNK         0.0000 
      3 C3         -2.8591   50.9680   19.0297 C.2       1 UNK         0.0000 
      4 C4         -1.6314   50.5955   19.5743 C.2       1 UNK         0.0000 
      5 C5         -0.5401   51.4395   19.2937 C.2       1 UNK         0.0000 
      6 C6         -0.9420   52.4971   18.4793 C.2       1 UNK         0.0000 
      7 S7         -2.6401   52.4001   18.0805 S.3       1 UNK         0.0000 
      8 N8         -0.0943   53.4959   18.0024 N.am      1 UNK         0.0000 
      9 C9         -0.4089   54.5989   17.2817 C.2       1 UNK         0.0000 
     10 O10        -1.5613   54.9500   17.0184 O.2       1 UNK         0.0000 
     11 C11         0.7622   55.4699   16.8692 C.ar      1 UNK         0.0000 
     12 C12         2.0840   54.9877   16.8776 C.ar      1 UNK         0.0000 
     13 C13         3.1413   55.8149   16.5063 C.ar      1 UNK         0.0000 
     14 C14         2.8902   57.1264   16.1143 C.ar      1 UNK         0.0000 
     15 C15         1.5884   57.6157   16.0816 C.ar      1 UNK         0.0000 
     16 C16         0.5309   56.7930   16.4616 C.ar      1 UNK         0.0000 
     17 C17         0.8949   51.2085   19.7787 C.3       1 UNK         0.0000 
     18 H18         1.5751   51.6786   19.0675 H         1 UNK         0.0000 
     19 C19         1.1676   51.8037   21.1667 C.ar      1 UNK         0.0000 
     20 C20         0.2407   51.6391   22.2047 C.ar      1 UNK         0.0000 
     21 C21         0.4838   52.1705   23.4670 C.ar      1 UNK         0.0000 
     22 C22         1.6590   52.8732   23.7120 C.ar      1 UNK         0.0000 
     23 C23         2.6132   53.0484   22.6965 C.ar      1 UNK         0.0000 
     24 C24         2.3643   52.4965   21.4264 C.ar      1 UNK         0.0000 
     25 O25         3.2764   52.6752   20.4126 O.3       1 UNK         0.0000 
     26 C26         4.4098   51.8195   20.4745 C.3       1 UNK         0.0000 
     27 O27         3.8001   53.7376   22.8758 O.3       1 UNK         0.0000 
     28 C28         4.1150   54.2699   24.1579 C.3       1 UNK         0.0000 
     29 N29         1.2973   49.7927   19.7420 N.pl3     1 UNK         0.0000 
     30 C30         1.3554   49.0323   18.5383 C.ar      1 UNK         0.0000 
     31 C31         1.6430   47.6655   18.5810 C.ar      1 UNK         0.0000 
     32 C32         1.6529   46.9224   17.3948 C.ar      1 UNK         0.0000 
     33 C33         1.3778   47.5565   16.1802 C.ar      1 UNK         0.0000 
     34 C34         1.1040   48.9259   16.1716 C.ar      1 UNK         0.0000 
     35 N35         1.1042   49.6024   17.3377 N.pl3     1 UNK         0.0000 
     36 H36        -5.2817   48.7046   20.1519 H         1 UNK         0.0000 
     37 H37        -3.6059   48.3247   19.7743 H         1 UNK         0.0000 
     38 H38        -3.9855   49.4076   21.1121 H         1 UNK         0.0000 
     39 H39        -4.9584   51.0632   19.4750 H         1 UNK         0.0000 
     40 H40        -4.5666   50.0017   18.1554 H         1 UNK         0.0000 
     41 H41        -1.5235   49.7132   20.1881 H         1 UNK         0.0000 
     42 H42         0.8597   53.4556   18.3284 H         1 UNK         0.0000 
     43 H43         2.3174   53.9747   17.1726 H         1 UNK         0.0000 
     44 H44         4.1546   55.4407   16.5263 H         1 UNK         0.0000 
     45 H45         3.7102   57.7733   15.8342 H         1 UNK         0.0000 
     46 H46         1.4021   58.6385   15.7873 H         1 UNK         0.0000 
     47 H47        -0.4701   57.2007   16.4427 H         1 UNK         0.0000 
     48 H48        -0.6770   51.0933   22.0463 H         1 UNK         0.0000 
     49 H49        -0.2396   52.0351   24.2584 H         1 UNK         0.0000 
     50 H50         1.8130   53.2726   24.7022 H         1 UNK         0.0000 
     51 H51         5.1058   52.0974   19.6827 H         1 UNK         0.0000 
     52 H52         4.9435   51.8994   21.4230 H         1 UNK         0.0000 
     53 H53         4.1236   50.7777   20.3225 H         1 UNK         0.0000 
     54 H54         5.0756   54.7832   24.1088 H         1 UNK         0.0000 
     55 H55         3.3686   54.9950   24.4847 H         1 UNK         0.0000 
     56 H56         4.2004   53.4824   24.9085 H         1 UNK         0.0000 
     57 H57         1.4583   49.3287   20.6243 H         1 UNK         0.0000 
     58 H58         1.8569   47.1810   19.5220 H         1 UNK         0.0000 
     59 H59         1.8709   45.8650   17.4117 H         1 UNK         0.0000 
     60 H60         1.3944   46.9963   15.2566 H         1 UNK         0.0000 
     61 H61         0.9042   49.5050   15.2806 H         1 UNK         0.0000 
     62 H62         0.9169   50.5938   17.3185 H         1 UNK         0.0000 
@<TRIPOS>BOND
     1    1    2 1    
     2    1   36 1    
     3    1   37 1    
     4    1   38 1    
     5    2    3 1    
     6    2   39 1    
     7    2   40 1    
     8    3    7 1    
     9    3    4 2    
    10    4    5 1    
    11    4   41 1    
    12    5    6 2    
    13    5   17 1    
    14    6    7 1    
    15    6    8 am   BACKBONE|DICT|INTERRES
    16    8    9 am   BACKBONE|DICT|INTERRES
    17    8   42 1    
    18    9   10 2    
    19    9   11 1    
    20   11   16 ar   
    21   11   12 ar   
    22   12   13 ar   
    23   12   43 1    
    24   13   14 ar   
    25   13   44 1    
    26   14   15 ar   
    27   14   45 1    
    28   15   16 ar   
    29   15   46 1    
    30   16   47 1    
    31   17   18 1    
    32   17   19 1    
    33   17   29 1    
    34   19   24 ar   
    35   19   20 ar   
    36   20   21 ar   
    37   20   48 1    
    38   21   22 ar   
    39   21   49 1    
    40   22   23 ar   
    41   22   50 1    
    42   23   24 ar   
    43   23   27 1    
    44   24   25 1    
    45   25   26 1    
    46   26   51 1    
    47   26   52 1    
    48   26   53 1    
    49   27   28 1    
    50   28   54 1    
    51   28   55 1    
    52   28   56 1    
    53   29   30 1    
    54   29   57 1    
    55   30   35 ar   
    56   30   31 ar   
    57   31   32 ar   
    58   31   58 1    
    59   32   33 ar   
    60   32   59 1    
    61   33   34 ar   
    62   33   60 1    
    63   34   35 ar   
    64   34   61 1    
    65   35   62 1    
@<TRIPOS>SUBSTRUCTURE
     1 UNK         1 GROUP             0       ****    0 ROOT    
