ZINC00070915_6132
                    3D
 Schrodinger Suite 2024-2.
 37 39  0  0  1  0            999 V2000
    7.1462   53.8940   27.9411 C   0  0  0  0  0  0
    5.6431   53.7973   27.8119 C   0  0  0  0  0  0
    4.9880   54.4806   26.7903 C   0  0  0  0  0  0
    3.6087   54.3645   26.6623 C   0  0  0  0  0  0
    2.8745   53.5687   27.5517 C   0  0  0  0  0  0
    3.5425   52.8980   28.5813 C   0  0  0  0  0  0
    4.9185   53.0213   28.7134 C   0  0  0  0  0  0
    1.3522   53.4402   27.3998 C   0  0  2  0  0  0
    1.1046   54.4347   27.0353 H   0  0  0  0  0  0
    0.5997   53.2220   28.7251 C   0  0  0  0  0  0
   -0.0503   52.0657   28.9683 C   0  0  0  0  0  0
   -0.1479   51.0668   28.0643 O   0  0  0  0  0  0
    0.2274   51.2673   26.7772 C   0  0  0  0  0  0
    0.9129   52.3688   26.3653 C   0  0  0  0  0  0
    1.2017   52.5694   24.9304 C   0  0  0  0  0  0
    1.4866   53.6703   24.4619 O   0  0  0  0  0  0
    0.9799   51.3617   24.0041 C   0  0  0  0  0  0
   -0.2541   50.5337   24.4144 C   0  0  0  0  0  0
   -0.2171   50.1064   25.8954 C   0  0  0  0  0  0
   -0.7576   51.6968   30.0817 N   0  0  0  0  0  0
    0.6532   54.2497   29.7088 C   0  0  0  0  0  0
    0.7079   55.1040   30.4841 N   0  0  0  0  0  0
    7.4753   53.7141   28.9654 H   0  0  0  0  0  0
    7.4980   54.8890   27.6697 H   0  0  0  0  0  0
    7.6151   53.1634   27.2833 H   0  0  0  0  0  0
    5.5421   55.0898   26.0915 H   0  0  0  0  0  0
    3.1174   54.8979   25.8640 H   0  0  0  0  0  0
    3.0038   52.2714   29.2758 H   0  0  0  0  0  0
    5.4214   52.4975   29.5075 H   0  0  0  0  0  0
    1.8727   50.7409   24.0825 H   0  0  0  0  0  0
    0.9277   51.7019   22.9697 H   0  0  0  0  0  0
   -0.3404   49.6514   23.7788 H   0  0  0  0  0  0
   -1.1548   51.1236   24.2313 H   0  0  0  0  0  0
    0.4153   49.2362   26.0790 H   0  0  0  0  0  0
   -1.2194   49.7849   26.1849 H   0  0  0  0  0  0
   -0.6957   52.1881   30.9646 H   0  0  0  0  0  0
   -1.2959   50.8378   30.0771 H   0  0  0  0  0  0
  1  2  1  0  0  0
  1 23  1  0  0  0
  1 24  1  0  0  0
  1 25  1  0  0  0
  2  7  2  0  0  0
  2  3  1  0  0  0
  3  4  2  0  0  0
  3 26  1  0  0  0
  4  5  1  0  0  0
  4 27  1  0  0  0
  5  6  2  0  0  0
  5  8  1  0  0  0
  6  7  1  0  0  0
  6 28  1  0  0  0
  7 29  1  0  0  0
  8  9  1  0  0  0
  8 14  1  0  0  0
  8 10  1  0  0  0
 10 11  2  0  0  0
 10 21  1  0  0  0
 11 12  1  0  0  0
 11 20  1  0  0  0
 12 13  1  0  0  0
 13 19  1  0  0  0
 13 14  2  0  0  0
 14 15  1  0  0  0
 15 16  2  0  0  0
 15 17  1  0  0  0
 17 18  1  0  0  0
 17 30  1  0  0  0
 17 31  1  0  0  0
 18 19  1  0  0  0
 18 32  1  0  0  0
 18 33  1  0  0  0
 19 34  1  0  0  0
 19 35  1  0  0  0
 20 36  1  0  0  0
 20 37  1  0  0  0
 21 22  3  0  0  0
M  END
> <i_i_glide_confnum>
1

> <i_i_glide_lignum>
6133

> <i_i_glide_posenum>
150

> <i_i_glide_rotatable_bonds>
2

> <i_m_Source_File_Index>
301

> <b_m_subgroup_collapsed>
0

> <r_i_docking_score>
-5.97568

> <r_i_glide_ecoul>
-2.14763

> <r_i_glide_eff_state_penalty>
0

> <r_i_glide_einternal>
2.75141

> <r_i_glide_emodel>
-44.1396

> <r_i_glide_energy>
-33.528

> <r_i_glide_erotb>
0.229805

> <r_i_glide_esite>
-0.0633735

> <r_i_glide_evdw>
-31.3803

> <r_i_glide_gscore>
-5.97568

> <r_i_glide_hbond>
-0.0230515

> <r_i_glide_ligand_efficiency>
-0.284556

> <r_i_glide_ligand_efficiency_ln>
-1.47748

> <r_i_glide_ligand_efficiency_sa>
-0.785069

> <r_i_glide_lipo>
-2.17723

> <r_i_glide_metal>
0

> <r_i_glide_rewards>
-2.05068

> <s_i_glide_gridfile>
wee1_glide-grid

> <s_m_Source_File>
wee1_decoys_glide_SP.sdf

> <s_m_Source_Path>
/Users/zhangxujun/Desktop

> <s_m_entry_id>
576

> <s_m_entry_name>
wee1_decoys_glide_SP.301

> <s_m_subgroup_title>
wee1_decoys_glide_SP

> <s_m_subgroupid>
wee1_decoys_glide_SP


$$$$
