@<TRIPOS>MOLECULE
ZINC16568093_3414
62   65    1
SMALL
USER_CHARGES


@<TRIPOS>ATOM
      1 C1         -0.6214   49.6103   26.0821 C.3       1 UNK         0.0000 
      2 C2         -0.8278   50.8027   25.1313 C.3       1 UNK         0.0000 
      3 H3         -0.8920   50.3729   24.1296 H         1 UNK         0.0000 
      4 C4         -2.1477   51.5791   25.3096 C.ar      1 UNK         0.0000 
      5 C5         -3.0218   51.3320   26.3792 C.ar      1 UNK         0.0000 
      6 C6         -4.2101   52.0494   26.4946 C.ar      1 UNK         0.0000 
      7 C7         -4.5316   53.0193   25.5471 C.ar      1 UNK         0.0000 
      8 C8         -3.6737   53.2748   24.4812 C.ar      1 UNK         0.0000 
      9 C9         -2.4869   52.5544   24.3622 C.ar      1 UNK         0.0000 
     10 N10         0.3692   51.6497   25.1309 N.am      1 UNK         0.0000 
     11 C11         0.7674   52.4960   26.1059 C.2       1 UNK         0.0000 
     12 O12         0.1098   52.6870   27.1287 O.2       1 UNK         0.0000 
     13 C13         2.0859   53.2153   25.8528 C.ar      1 UNK         0.0000 
     14 C14         2.4872   53.4360   24.5204 C.ar      1 UNK         0.0000 
     15 C15         3.7062   54.0322   24.2061 C.ar      1 UNK         0.0000 
     16 C16         4.5220   54.4969   25.2420 C.ar      1 UNK         0.0000 
     17 C17         4.1241   54.3399   26.5645 C.ar      1 UNK         0.0000 
     18 C18         2.9190   53.6992   26.9013 C.ar      1 UNK         0.0000 
     19 N19         2.5908   53.5552   28.2737 N.pl3     1 UNK         0.0000 
     20 C20         2.9151   54.6516   29.1840 C.3       1 UNK         0.0000 
     21 C21         2.8299   52.2184   28.8077 C.3       1 UNK         0.0000 
     22 N22         4.0268   54.1497   22.8431 N.am      1 UNK         0.0000 
     23 C23         5.2500   54.2748   22.2950 C.2       1 UNK         0.0000 
     24 O24         6.3061   54.0735   22.8948 O.2       1 UNK         0.0000 
     25 N25         5.1330   54.7311   21.0333 N.am      1 UNK         0.0000 
     26 C26         6.1007   55.2915   20.1696 C.ar      1 UNK         0.0000 
     27 C27         7.4333   55.5188   20.5522 C.ar      1 UNK         0.0000 
     28 C28         8.3461   56.0963   19.6808 C.ar      1 UNK         0.0000 
     29 C29         7.9550   56.5052   18.4143 C.ar      1 UNK         0.0000 
     30 C30         6.6209   56.3249   17.9837 C.ar      1 UNK         0.0000 
     31 C31         5.6744   55.6996   18.8592 C.ar      1 UNK         0.0000 
     32 C32         4.3399   55.5255   18.3794 C.ar      1 UNK         0.0000 
     33 C33         3.9686   55.9718   17.1147 C.ar      1 UNK         0.0000 
     34 C34         4.8933   56.5874   16.2826 C.ar      1 UNK         0.0000 
     35 C35         6.2089   56.7628   16.6996 C.ar      1 UNK         0.0000 
     36 H36        -1.4631   48.9161   26.0634 H         1 UNK         0.0000 
     37 H37         0.2722   49.0400   25.8249 H         1 UNK         0.0000 
     38 H38        -0.4945   49.9577   27.1081 H         1 UNK         0.0000 
     39 H39        -2.7919   50.5907   27.1318 H         1 UNK         0.0000 
     40 H40        -4.8812   51.8531   27.3189 H         1 UNK         0.0000 
     41 H41        -5.4534   53.5749   25.6371 H         1 UNK         0.0000 
     42 H42        -3.9241   54.0299   23.7493 H         1 UNK         0.0000 
     43 H43        -1.8232   52.7568   23.5335 H         1 UNK         0.0000 
     44 H44         1.0223   51.4703   24.3851 H         1 UNK         0.0000 
     45 H45         1.8594   53.1201   23.6977 H         1 UNK         0.0000 
     46 H46         5.4644   54.9841   25.0385 H         1 UNK         0.0000 
     47 H47         4.7855   54.7075   27.3348 H         1 UNK         0.0000 
     48 H48         2.6826   55.6180   28.7291 H         1 UNK         0.0000 
     49 H49         2.3121   54.5732   30.0885 H         1 UNK         0.0000 
     50 H50         3.9704   54.6489   29.4618 H         1 UNK         0.0000 
     51 H51         2.4186   51.4447   28.1569 H         1 UNK         0.0000 
     52 H52         3.8987   52.0317   28.9073 H         1 UNK         0.0000 
     53 H53         2.3577   52.1044   29.7845 H         1 UNK         0.0000 
     54 H54         3.2407   54.1216   22.2128 H         1 UNK         0.0000 
     55 H55         4.1955   54.7745   20.6681 H         1 UNK         0.0000 
     56 H56         7.8000   55.2502   21.5307 H         1 UNK         0.0000 
     57 H57         9.3695   56.2426   19.9993 H         1 UNK         0.0000 
     58 H58         8.6718   56.9704   17.7530 H         1 UNK         0.0000 
     59 H59         3.5912   55.0508   18.9959 H         1 UNK         0.0000 
     60 H60         2.9502   55.8387   16.7768 H         1 UNK         0.0000 
     61 H61         4.5900   56.9338   15.3050 H         1 UNK         0.0000 
     62 H62         6.9222   57.2451   16.0455 H         1 UNK         0.0000 
@<TRIPOS>BOND
     1    1    2 1    
     2    1   36 1    
     3    1   37 1    
     4    1   38 1    
     5    2    3 1    
     6    2    4 1    
     7    2   10 1    
     8    4    9 ar   
     9    4    5 ar   
    10    5    6 ar   
    11    5   39 1    
    12    6    7 ar   
    13    6   40 1    
    14    7    8 ar   
    15    7   41 1    
    16    8    9 ar   
    17    8   42 1    
    18    9   43 1    
    19   10   11 am   BACKBONE|DICT|INTERRES
    20   10   44 1    
    21   11   12 2    
    22   11   13 1    
    23   13   18 ar   
    24   13   14 ar   
    25   14   15 ar   
    26   14   45 1    
    27   15   16 ar   
    28   15   22 1    
    29   16   17 ar   
    30   16   46 1    
    31   17   18 ar   
    32   17   47 1    
    33   18   19 1    
    34   19   20 1    
    35   19   21 1    
    36   20   48 1    
    37   20   49 1    
    38   20   50 1    
    39   21   51 1    
    40   21   52 1    
    41   21   53 1    
    42   22   23 am   BACKBONE|DICT|INTERRES
    43   22   54 1    
    44   23   24 2    
    45   23   25 am   BACKBONE|DICT|INTERRES
    46   25   26 1    
    47   25   55 1    
    48   26   31 ar   
    49   26   27 ar   
    50   27   28 ar   
    51   27   56 1    
    52   28   29 ar   
    53   28   57 1    
    54   29   30 ar   
    55   29   58 1    
    56   30   35 ar   
    57   30   31 ar   
    58   31   32 ar   
    59   32   33 ar   
    60   32   59 1    
    61   33   34 ar   
    62   33   60 1    
    63   34   35 ar   
    64   34   61 1    
    65   35   62 1    
@<TRIPOS>SUBSTRUCTURE
     1 UNK         1 GROUP             0       ****    0 ROOT    
