ZINC17444922_2007
                    3D
 Schrodinger Suite 2024-2.
 57 60  0  0  1  0            999 V2000
    4.3547   53.9548   19.5710 C   0  0  0  0  0  0
    3.4203   52.8973   20.1354 C   0  0  0  0  0  0
    2.5793   52.0382   19.4576 C   0  0  0  0  0  0
    1.8668   51.2643   20.3808 C   0  0  0  0  0  0
    2.2829   51.6714   21.6529 C   0  0  0  0  0  0
    3.2550   52.6592   21.4926 N   0  0  0  0  0  0
    3.9755   53.3104   22.5227 C   0  0  0  0  0  0
    5.3741   53.3049   22.4890 C   0  0  0  0  0  0
    6.1007   53.9171   23.5076 C   0  0  0  0  0  0
    5.4285   54.4975   24.5797 C   0  0  0  0  0  0
    4.0349   54.4963   24.6260 C   0  0  0  0  0  0
    3.3050   53.9324   23.5822 C   0  0  0  0  0  0
    6.1334   55.0762   25.5798 F   0  0  0  0  0  0
    1.8377   51.1308   23.0110 C   0  0  0  0  0  0
    0.8292   50.3046   20.0841 C   0  0  0  0  0  0
   -0.0903   50.0882   20.8789 O   0  0  0  0  0  0
    0.9623   49.7012   18.8805 N   0  0  0  0  0  0
    0.0552   48.7100   18.4824 N   0  0  0  0  0  0
    0.2050   47.4388   18.9131 C   0  0  0  0  0  0
    1.0992   47.0743   19.6809 O   0  0  0  0  0  0
   -0.8099   46.4225   18.3714 C   0  0  0  0  0  0
   -0.3628   45.0183   18.4160 N   0  0  0  0  0  0
    0.4870   44.3923   17.5170 C   0  0  0  0  0  0
    0.6450   43.1299   17.8290 N   0  0  0  0  0  0
   -0.1081   42.8922   18.9728 N   0  0  0  0  0  0
   -0.7172   44.0071   19.2992 C   0  0  0  0  0  0
   -1.8454   44.0971   20.6588 S   0  5  0  0  0  0
    1.1111   45.0360   16.3234 C   0  0  0  0  0  0
    0.8113   44.5696   15.0423 C   0  0  0  0  0  0
    1.3454   45.2086   13.9243 C   0  0  0  0  0  0
    2.1772   46.3190   14.0721 C   0  0  0  0  0  0
    2.4841   46.7719   15.3593 C   0  0  0  0  0  0
    1.9768   46.1210   16.4755 C   0  0  0  0  0  0
    2.6633   46.8991   12.9166 O   0  0  0  0  0  0
    3.5383   48.0186   13.0165 C   0  0  0  0  0  0
    4.0992   54.1957   18.5390 H   0  0  0  0  0  0
    4.3097   54.8958   20.1227 H   0  0  0  0  0  0
    5.3936   53.6232   19.5623 H   0  0  0  0  0  0
    2.4864   51.9959   18.3813 H   0  0  0  0  0  0
    5.8939   52.8074   21.6861 H   0  0  0  0  0  0
    7.1810   53.9209   23.4804 H   0  0  0  0  0  0
    3.5234   54.9575   25.4566 H   0  0  0  0  0  0
    2.2239   53.9575   23.6102 H   0  0  0  0  0  0
    2.0351   50.0572   23.0842 H   0  0  0  0  0  0
    2.3045   51.5819   23.8835 H   0  0  0  0  0  0
    0.7622   51.2538   23.1458 H   0  0  0  0  0  0
    1.7495   49.8093   18.2571 H   0  0  0  0  0  0
   -0.6841   49.0499   17.8845 H   0  0  0  0  0  0
   -1.0405   46.6514   17.3302 H   0  0  0  0  0  0
   -1.7442   46.5291   18.9203 H   0  0  0  0  0  0
    0.1514   43.7243   14.9134 H   0  0  0  0  0  0
    1.1106   44.8459   12.9353 H   0  0  0  0  0  0
    3.1035   47.6378   15.5166 H   0  0  0  0  0  0
    2.2562   46.4800   17.4541 H   0  0  0  0  0  0
    3.8330   48.3334   12.0156 H   0  0  0  0  0  0
    4.4493   47.7680   13.5622 H   0  0  0  0  0  0
    3.0529   48.8657   13.5014 H   0  0  0  0  0  0
  1  2  1  0  0  0
  1 36  1  0  0  0
  1 37  1  0  0  0
  1 38  1  0  0  0
  2  6  1  0  0  0
  2  3  2  0  0  0
  3  4  1  0  0  0
  3 39  1  0  0  0
  4  5  2  0  0  0
  4 15  1  0  0  0
  5  6  1  0  0  0
  5 14  1  0  0  0
  6  7  1  0  0  0
  7 12  2  0  0  0
  7  8  1  0  0  0
  8  9  2  0  0  0
  8 40  1  0  0  0
  9 10  1  0  0  0
  9 41  1  0  0  0
 10 11  2  0  0  0
 10 13  1  0  0  0
 11 12  1  0  0  0
 11 42  1  0  0  0
 12 43  1  0  0  0
 14 44  1  0  0  0
 14 45  1  0  0  0
 14 46  1  0  0  0
 15 16  2  0  0  0
 15 17  1  0  0  0
 17 18  1  0  0  0
 17 47  1  0  0  0
 18 19  1  0  0  0
 18 48  1  0  0  0
 19 20  2  0  0  0
 19 21  1  0  0  0
 21 49  1  0  0  0
 21 50  1  0  0  0
 21 22  1  0  0  0
 22 26  1  0  0  0
 22 23  1  0  0  0
 23 28  1  0  0  0
 23 24  2  0  0  0
 24 25  1  0  0  0
 25 26  2  0  0  0
 26 27  1  0  0  0
 28 33  2  0  0  0
 28 29  1  0  0  0
 29 30  2  0  0  0
 29 51  1  0  0  0
 30 31  1  0  0  0
 30 52  1  0  0  0
 31 32  2  0  0  0
 31 34  1  0  0  0
 32 33  1  0  0  0
 32 53  1  0  0  0
 33 54  1  0  0  0
 34 35  1  0  0  0
 35 55  1  0  0  0
 35 56  1  0  0  0
 35 57  1  0  0  0
M  CHG  1  27  -1
M  END
> <i_i_glide_confnum>
28

> <i_i_glide_lignum>
2008

> <i_i_glide_posenum>
49

> <i_i_glide_rotatable_bonds>
9

> <i_m_Source_File_Index>
79

> <b_m_subgroup_collapsed>
0

> <r_i_docking_score>
-4.49992

> <r_i_glide_ecoul>
-5.78861

> <r_i_glide_eff_state_penalty>
0

> <r_i_glide_einternal>
5.6615

> <r_i_glide_emodel>
-51.7352

> <r_i_glide_energy>
-38.564

> <r_i_glide_erotb>
0.669103

> <r_i_glide_esite>
-0.169714

> <r_i_glide_evdw>
-32.7754

> <r_i_glide_gscore>
-4.49992

> <r_i_glide_hbond>
-0.32

> <r_i_glide_ligand_efficiency>
-0.128569

> <r_i_glide_ligand_efficiency_ln>
-0.987832

> <r_i_glide_ligand_efficiency_sa>
-0.420558

> <r_i_glide_lipo>
-1.57835

> <r_i_glide_metal>
0

> <r_i_glide_rewards>
-0.593899

> <s_i_glide_gridfile>
wee1_glide-grid

> <s_m_Source_File>
wee1_decoys_glide_SP.sdf

> <s_m_Source_Path>
/Users/zhangxujun/Desktop

> <s_m_entry_id>
354

> <s_m_entry_name>
wee1_decoys_glide_SP.79

> <s_m_subgroup_title>
wee1_decoys_glide_SP

> <s_m_subgroupid>
wee1_decoys_glide_SP


$$$$
