@<TRIPOS>MOLECULE
ZINC13154799_1346
42   44    1
SMALL
USER_CHARGES


@<TRIPOS>ATOM
      1 C1          3.1835   55.7739   16.4855 C.3       1 UNK         0.0000 
      2 C2          3.7956   54.3634   16.4520 C.2       1 UNK         0.0000 
      3 N3          4.2734   53.7269   17.4551 N.2       1 UNK         0.0000 
      4 N4          4.3022   54.3687   18.6607 N.pl3     1 UNK         0.0000 
      5 C5          4.7114   53.7739   19.7851 C.2       1 UNK         0.0000 
      6 N6          5.0905   52.4967   19.8663 N.pl3     1 UNK         0.0000 
      7 S7          4.7047   54.7992   21.2014 S.3       1 UNK         0.0000 
      8 C8          5.4284   53.8830   22.6057 C.3       1 UNK         0.0000 
      9 H9          5.6153   52.8468   22.3327 H         1 UNK         0.0000 
     10 C10         6.6691   54.5309   23.1372 C.3       1 UNK         0.0000 
     11 C11         6.3375   54.9012   24.5661 C.2       1 UNK         0.0000 
     12 O12         7.1043   55.5474   25.2792 O.2       1 UNK         0.0000 
     13 N13         5.0998   54.4186   24.8881 N.am      1 UNK         0.0000 
     14 C14         4.4672   53.9065   23.7832 C.2       1 UNK         0.0000 
     15 O15         3.3199   53.4660   23.6966 O.2       1 UNK         0.0000 
     16 C16         4.5561   54.4413   26.2236 C.ar      1 UNK         0.0000 
     17 C17         5.3997   54.4202   27.3554 C.ar      1 UNK         0.0000 
     18 C18         4.8813   54.4733   28.6454 C.ar      1 UNK         0.0000 
     19 C19         3.5056   54.5050   28.8366 C.ar      1 UNK         0.0000 
     20 C20         2.6472   54.4956   27.7448 C.ar      1 UNK         0.0000 
     21 C21         3.1684   54.4665   26.4543 C.ar      1 UNK         0.0000 
     22 C22         3.8023   53.7165   15.1271 C.2       1 UNK         0.0000 
     23 C23         3.3445   54.2384   13.9111 C.2       1 UNK         0.0000 
     24 C24         3.4923   53.3644   12.8284 C.2       1 UNK         0.0000 
     25 C25         4.0680   52.1583   13.1916 C.2       1 UNK         0.0000 
     26 S26         4.4324   52.1007   14.8819 S.3       1 UNK         0.0000 
     27 H27         3.7592   56.4560   15.8594 H         1 UNK         0.0000 
     28 H28         2.1735   55.7570   16.0746 H         1 UNK         0.0000 
     29 H29         3.1037   56.2153   17.4772 H         1 UNK         0.0000 
     30 H30         5.1044   51.9079   19.0251 H         1 UNK         0.0000 
     31 H31         7.5087   53.8345   23.1542 H         1 UNK         0.0000 
     32 H32         6.9846   55.4155   22.5816 H         1 UNK         0.0000 
     33 H33         6.4737   54.3624   27.2660 H         1 UNK         0.0000 
     34 H34         5.5505   54.4986   29.4920 H         1 UNK         0.0000 
     35 H35         3.0990   54.5460   29.8350 H         1 UNK         0.0000 
     36 H36         1.5776   54.5240   27.8950 H         1 UNK         0.0000 
     37 H37         2.4593   54.4894   25.6424 H         1 UNK         0.0000 
     38 H38         2.9141   55.2233   13.8012 H         1 UNK         0.0000 
     39 H39         3.1904   53.6056   11.8192 H         1 UNK         0.0000 
     40 H40         4.2940   51.3100   12.5623 H         1 UNK         0.0000 
     41 H41         5.2580   52.0698   20.7611 H         1 UNK         0.0000 
     42 H42         3.9877   55.3275   18.6905 H         1 UNK         0.0000 
@<TRIPOS>BOND
     1    1    2 1    
     2    1   27 1    
     3    1   28 1    
     4    1   29 1    
     5    2    3 2    
     6    2   22 1    
     7    3    4 1    
     8    4    5 2    
     9    4   42 1    
    10    5    6 1    
    11    5    7 1    
    12    6   30 1    
    13    6   41 1    
    14    7    8 1    
    15    8    9 1    
    16    8   14 1    
    17    8   10 1    
    18   10   11 1    
    19   10   31 1    
    20   10   32 1    
    21   11   12 2    
    22   11   13 am   BACKBONE|DICT|INTERRES
    23   13   14 am   BACKBONE|DICT|INTERRES
    24   13   16 1    
    25   14   15 2    
    26   16   21 ar   
    27   16   17 ar   
    28   17   18 ar   
    29   17   33 1    
    30   18   19 ar   
    31   18   34 1    
    32   19   20 ar   
    33   19   35 1    
    34   20   21 ar   
    35   20   36 1    
    36   21   37 1    
    37   22   26 1    
    38   22   23 2    
    39   23   24 1    
    40   23   38 1    
    41   24   25 2    
    42   24   39 1    
    43   25   26 1    
    44   25   40 1    
@<TRIPOS>SUBSTRUCTURE
     1 UNK         1 GROUP             0       ****    0 ROOT    
