ZINC35565779_982
                    3D
 Schrodinger Suite 2024-2.
 59 62  0  0  1  0            999 V2000
    5.2224   54.7215   16.7849 C   0  0  0  0  0  0
    5.7163   55.6504   17.8813 C   0  0  0  0  0  0
    5.6191   55.5172   19.2810 C   0  0  0  0  0  0
    6.3898   56.8970   19.9888 S   0  0  0  0  0  0
    6.7260   57.5280   18.4173 C   0  0  0  0  0  0
    6.3234   56.7432   17.4512 N   0  0  0  0  0  0
    7.4294   58.8464   18.1817 C   0  0  0  0  0  0
    4.9587   54.4931   20.0993 C   0  0  0  0  0  0
    4.2321   53.6827   19.5313 O   0  0  0  0  0  0
    5.0959   54.4464   21.5801 C   0  0  0  0  0  0
    6.1538   54.6348   22.3852 C   0  0  0  0  0  0
    5.8285   54.4944   23.7964 C   0  0  0  0  0  0
    6.5945   54.6320   24.7591 O   0  0  0  0  0  0
    4.5003   54.1725   23.8450 N   0  0  0  0  0  0
    3.9238   54.1313   22.4821 C   0  0  2  0  0  0
    3.2085   54.9535   22.4227 H   0  0  0  0  0  0
    3.1125   52.8704   22.1167 C   0  0  0  0  0  0
    1.7171   52.9346   22.1168 C   0  0  0  0  0  0
    0.9568   51.8403   21.7226 C   0  0  0  0  0  0
    1.5796   50.6622   21.3056 C   0  0  0  0  0  0
    2.9780   50.6030   21.2826 C   0  0  0  0  0  0
    3.7374   51.6978   21.6802 C   0  0  0  0  0  0
    0.7016   49.4805   20.8753 C   0  0  0  0  0  0
    1.4347   48.3777   20.0777 C   0  0  0  0  0  0
   -0.0657   48.8981   22.0778 C   0  0  0  0  0  0
    3.7364   53.9592   25.0170 C   0  0  0  0  0  0
    2.4975   53.5324   25.0069 N   0  0  0  0  0  0
    1.9988   53.2868   26.2058 C   0  0  0  0  0  0
    2.8324   53.6183   27.2894 C   0  0  0  0  0  0
    4.3533   54.1778   26.6410 S   0  0  0  0  0  0
    2.6663   53.5156   28.7433 C   0  0  0  0  0  0
    3.4764   53.9586   29.5632 O   0  0  0  0  0  0
    1.5240   52.8735   29.0661 O   0  0  0  0  0  0
    1.1589   52.6735   30.4258 C   0  0  0  0  0  0
    0.6236   52.6415   26.1971 C   0  0  0  0  0  0
    7.3775   54.8971   22.0814 O   0  5  0  0  0  0
    4.3249   54.1723   17.0719 H   0  0  0  0  0  0
    4.9680   55.2498   15.8627 H   0  0  0  0  0  0
    5.9798   53.9774   16.5300 H   0  0  0  0  0  0
    7.2317   59.2473   17.1871 H   0  0  0  0  0  0
    7.1098   59.6123   18.8896 H   0  0  0  0  0  0
    8.5098   58.7463   18.2799 H   0  0  0  0  0  0
    1.2178   53.8439   22.4156 H   0  0  0  0  0  0
   -0.1204   51.9133   21.7348 H   0  0  0  0  0  0
    3.4947   49.7177   20.9498 H   0  0  0  0  0  0
    4.8150   51.6443   21.6346 H   0  0  0  0  0  0
   -0.0373   49.8957   20.1874 H   0  0  0  0  0  0
    1.9423   48.7926   19.2058 H   0  0  0  0  0  0
    0.7346   47.6253   19.7136 H   0  0  0  0  0  0
    2.1859   47.8633   20.6769 H   0  0  0  0  0  0
   -0.7083   49.6469   22.5424 H   0  0  0  0  0  0
   -0.7067   48.0677   21.7791 H   0  0  0  0  0  0
    0.6170   48.5396   22.8491 H   0  0  0  0  0  0
    0.2147   52.1304   30.4810 H   0  0  0  0  0  0
    1.9161   52.0945   30.9569 H   0  0  0  0  0  0
    1.0296   53.6277   30.9394 H   0  0  0  0  0  0
    0.7055   51.5552   26.1933 H   0  0  0  0  0  0
    0.0212   52.9063   27.0640 H   0  0  0  0  0  0
    0.0312   52.9070   25.3207 H   0  0  0  0  0  0
  1  2  1  0  0  0
  1 37  1  0  0  0
  1 38  1  0  0  0
  1 39  1  0  0  0
  2  6  1  0  0  0
  2  3  2  0  0  0
  3  4  1  0  0  0
  3  8  1  0  0  0
  4  5  1  0  0  0
  5  6  2  0  0  0
  5  7  1  0  0  0
  7 40  1  0  0  0
  7 41  1  0  0  0
  7 42  1  0  0  0
  8  9  2  0  0  0
  8 10  1  0  0  0
 10 15  1  0  0  0
 10 11  2  0  0  0
 11 12  1  0  0  0
 11 36  1  0  0  0
 12 13  2  0  0  0
 12 14  1  0  0  0
 14 15  1  0  0  0
 14 26  1  0  0  0
 15 16  1  0  0  0
 15 17  1  0  0  0
 17 22  2  0  0  0
 17 18  1  0  0  0
 18 19  2  0  0  0
 18 43  1  0  0  0
 19 20  1  0  0  0
 19 44  1  0  0  0
 20 21  2  0  0  0
 20 23  1  0  0  0
 21 22  1  0  0  0
 21 45  1  0  0  0
 22 46  1  0  0  0
 23 24  1  0  0  0
 23 25  1  0  0  0
 23 47  1  0  0  0
 24 48  1  0  0  0
 24 49  1  0  0  0
 24 50  1  0  0  0
 25 51  1  0  0  0
 25 52  1  0  0  0
 25 53  1  0  0  0
 26 30  1  0  0  0
 26 27  2  0  0  0
 27 28  1  0  0  0
 28 29  2  0  0  0
 28 35  1  0  0  0
 29 30  1  0  0  0
 29 31  1  0  0  0
 31 32  2  0  0  0
 31 33  1  0  0  0
 33 34  1  0  0  0
 34 54  1  0  0  0
 34 55  1  0  0  0
 34 56  1  0  0  0
 35 57  1  0  0  0
 35 58  1  0  0  0
 35 59  1  0  0  0
M  CHG  1  36  -1
M  END
> <i_i_glide_confnum>
65

> <i_i_glide_lignum>
983

> <i_i_glide_posenum>
286

> <i_i_glide_rotatable_bonds>
7

> <i_m_Source_File_Index>
4373

> <b_m_subgroup_collapsed>
0

> <r_i_docking_score>
-4.70205

> <r_i_glide_ecoul>
0.40501

> <r_i_glide_eff_state_penalty>
0

> <r_i_glide_einternal>
17.2316

> <r_i_glide_emodel>
-52.4935

> <r_i_glide_energy>
-47.0738

> <r_i_glide_erotb>
0.392905

> <r_i_glide_esite>
0

> <r_i_glide_evdw>
-47.4788

> <r_i_glide_gscore>
-4.70205

> <r_i_glide_hbond>
-0.0720286

> <r_i_glide_ligand_efficiency>
-0.134344

> <r_i_glide_ligand_efficiency_ln>
-1.0322

> <r_i_glide_ligand_efficiency_sa>
-0.439449

> <r_i_glide_lipo>
-1.78587

> <r_i_glide_metal>
0

> <r_i_glide_rewards>
-0.923871

> <s_i_glide_gridfile>
wee1_glide-grid

> <s_m_Source_File>
wee1_decoys_glide_SP.sdf

> <s_m_Source_Path>
/Users/zhangxujun/Desktop

> <s_m_entry_id>
4648

> <s_m_entry_name>
wee1_decoys_glide_SP.4373

> <s_m_subgroup_title>
wee1_decoys_glide_SP

> <s_m_subgroupid>
wee1_decoys_glide_SP


$$$$
