@<TRIPOS>MOLECULE
ZINC20776552_115
59   63    1
SMALL
USER_CHARGES


@<TRIPOS>ATOM
      1 C1         -4.1920   49.8598   28.1403 C.3       1 UNK         0.0000 
      2 C2         -3.8300   49.3284   26.7367 C.3       1 UNK         0.0000 
      3 C3         -5.0782   49.0698   25.8672 C.3       1 UNK         0.0000 
      4 N4         -2.9131   50.2559   26.0621 N.pl3     1 UNK         0.0000 
      5 C5         -1.6179   50.0207   25.6812 C.ar      1 UNK         0.0000 
      6 C6         -1.1117   51.2170   25.1980 C.ar      1 UNK         0.0000 
      7 C7         -2.2241   52.0722   25.2697 C.ar      1 UNK         0.0000 
      8 N8         -3.2944   51.5086   25.7790 N.2       1 UNK         0.0000 
      9 C9          0.3169   51.5249   24.7859 C.3       1 UNK         0.0000 
     10 H10         0.8379   50.6154   24.4759 H         1 UNK         0.0000 
     11 C11         1.1045   52.2043   25.9014 C.ar      1 UNK         0.0000 
     12 C12         2.0029   53.2497   25.7660 C.ar      1 UNK         0.0000 
     13 C13         2.6465   53.4110   27.0406 C.ar      1 UNK         0.0000 
     14 C14         3.6872   54.2254   27.5166 C.ar      1 UNK         0.0000 
     15 C15         4.1034   54.0913   28.8419 C.ar      1 UNK         0.0000 
     16 C16         3.4865   53.1860   29.6991 C.ar      1 UNK         0.0000 
     17 C17         2.4204   52.3866   29.2833 C.ar      1 UNK         0.0000 
     18 C18         2.0321   52.4946   27.9434 C.ar      1 UNK         0.0000 
     19 N19         1.0892   51.7987   27.2162 N.pl3     1 UNK         0.0000 
     20 H20         0.4893   51.0520   27.5393 H         1 UNK         0.0000 
     21 C21         2.1831   53.9926   24.4587 C.3       1 UNK         0.0000 
     22 C22         1.7685   53.0818   23.2795 C.3       1 UNK         0.0000 
     23 N23         0.3745   52.4394   23.5244 N.4       1 UNK         0.0000 
     24 C24        -0.2257   51.7308   22.2624 C.3       1 UNK         0.0000 
     25 C25         0.7689   51.1686   21.2443 C.2       1 UNK         0.0000 
     26 C26         1.6562   51.8336   20.3922 C.2       1 UNK         0.0000 
     27 C27         2.3169   51.0324   19.4656 C.2       1 UNK         0.0000 
     28 C28         1.9128   49.7167   19.5140 C.2       1 UNK         0.0000 
     29 S29         0.8189   49.4621   20.8579 S.3       1 UNK         0.0000 
     30 N30         2.3043   48.7633   18.5877 N.am      1 UNK         0.0000 
     31 C31         1.8636   47.5041   18.4527 C.2       1 UNK         0.0000 
     32 O32         1.0849   46.9227   19.2079 O.2       1 UNK         0.0000 
     33 C33         2.4124   46.7799   17.2294 C.3       1 UNK         0.0000 
     34 H34        -3.2955   50.0260   28.7420 H         1 UNK         0.0000 
     35 H35        -4.8110   49.1449   28.6827 H         1 UNK         0.0000 
     36 H36        -4.7421   50.7990   28.0934 H         1 UNK         0.0000 
     37 H37        -3.2961   48.3867   26.8717 H         1 UNK         0.0000 
     38 H38        -4.8043   48.6889   24.8827 H         1 UNK         0.0000 
     39 H39        -5.6617   49.9797   25.7183 H         1 UNK         0.0000 
     40 H40        -5.7359   48.3338   26.3311 H         1 UNK         0.0000 
     41 H41        -1.1568   49.0589   25.8648 H         1 UNK         0.0000 
     42 H42        -2.2423   53.1088   24.9768 H         1 UNK         0.0000 
     43 H43         4.1860   54.9156   26.8550 H         1 UNK         0.0000 
     44 H44         4.9263   54.6927   29.2056 H         1 UNK         0.0000 
     45 H45         3.8494   53.0918   30.7115 H         1 UNK         0.0000 
     46 H46         1.9381   51.6969   29.9589 H         1 UNK         0.0000 
     47 H47         1.5798   54.9028   24.4801 H         1 UNK         0.0000 
     48 H48         3.2188   54.3111   24.3269 H         1 UNK         0.0000 
     49 H49         1.6729   53.7056   22.3906 H         1 UNK         0.0000 
     50 H50         2.4707   52.2612   23.1089 H         1 UNK         0.0000 
     51 H51        -0.9274   50.9718   22.6169 H         1 UNK         0.0000 
     52 H52        -0.8360   52.5093   21.8108 H         1 UNK         0.0000 
     53 H53         1.8093   52.8968   20.4092 H         1 UNK         0.0000 
     54 H54         3.0174   51.4142   18.7335 H         1 UNK         0.0000 
     55 H55         2.9842   49.0691   17.8896 H         1 UNK         0.0000 
     56 H56         1.9618   45.7927   17.1303 H         1 UNK         0.0000 
     57 H57         3.4985   46.6736   17.2961 H         1 UNK         0.0000 
     58 H58         2.1899   47.3466   16.3243 H         1 UNK         0.0000 
     59 H59        -0.2420   53.2130   23.7278 H         1 UNK         0.0000 
@<TRIPOS>BOND
     1    1    2 1    
     2    1   34 1    
     3    1   35 1    
     4    1   36 1    
     5    2    3 1    
     6    2    4 1    
     7    2   37 1    
     8    3   38 1    
     9    3   39 1    
    10    3   40 1    
    11    4    8 ar   
    12    4    5 ar   
    13    5    6 ar   
    14    5   41 1    
    15    6    7 ar   
    16    6    9 1    
    17    7    8 ar   
    18    7   42 1    
    19    9   10 1    
    20    9   23 1    
    21    9   11 1    
    22   11   19 ar   
    23   11   12 ar   
    24   12   13 ar   
    25   12   21 1    
    26   13   18 ar   
    27   13   14 ar   
    28   14   15 ar   
    29   14   43 1    
    30   15   16 ar   
    31   15   44 1    
    32   16   17 ar   
    33   16   45 1    
    34   17   18 ar   
    35   17   46 1    
    36   18   19 ar   
    37   19   20 1    
    38   21   22 1    
    39   21   47 1    
    40   21   48 1    
    41   22   23 1    
    42   22   49 1    
    43   22   50 1    
    44   23   24 1    
    45   23   59 1    
    46   24   25 1    
    47   24   51 1    
    48   24   52 1    
    49   25   29 1    
    50   25   26 2    
    51   26   27 1    
    52   26   53 1    
    53   27   28 2    
    54   27   54 1    
    55   28   29 1    
    56   28   30 am   BACKBONE|DICT|INTERRES
    57   30   31 am   BACKBONE|DICT|INTERRES
    58   30   55 1    
    59   31   32 2    
    60   31   33 1    
    61   33   56 1    
    62   33   57 1    
    63   33   58 1    
@<TRIPOS>SUBSTRUCTURE
     1 UNK         1 GROUP             0       ****    0 ROOT    
