@<TRIPOS>MOLECULE
ZINC39934001_902
69   73    1
SMALL
USER_CHARGES


@<TRIPOS>ATOM
      1 C1          6.1307   54.2926   27.3903 C.3       1 UNK         0.0000 
      2 C2          4.9950   54.2377   26.3533 C.3       1 UNK         0.0000 
      3 C3          3.5767   54.4333   26.9337 C.3       1 UNK         0.0000 
      4 C4          2.9903   53.2459   27.6762 C.2       1 UNK         0.0000 
      5 C5          1.9043   52.4973   27.4386 C.2       1 UNK         0.0000 
      6 C6          0.7462   52.5402   26.4498 C.3       1 UNK         0.0000 
      7 H7          0.7044   53.5696   26.1123 H         1 UNK         0.0000 
      8 C8         -0.5313   52.2064   27.2299 C.2       1 UNK         0.0000 
      9 C9         -0.5111   51.7300   28.4989 C.2       1 UNK         0.0000 
     10 O10         0.5963   51.5459   29.2722 O.3       1 UNK         0.0000 
     11 C11         1.8465   51.5176   28.5645 C.3       1 UNK         0.0000 
     12 H12         1.9994   50.4957   28.2236 H         1 UNK         0.0000 
     13 N13         2.9445   51.9088   29.3901 N.2       1 UNK         0.0000 
     14 N14         3.5682   52.8720   28.8439 N.2       1 UNK         0.0000 
     15 N15        -1.5930   51.2967   29.2207 N.pl3     1 UNK         0.0000 
     16 C16        -1.7734   52.3425   26.5402 C.1       1 UNK         0.0000 
     17 N17        -2.7768   52.4955   25.9827 N.1       1 UNK         0.0000 
     18 C18         0.9049   51.7072   25.1708 C.ar      1 UNK         0.0000 
     19 C19         0.6249   50.3348   25.1682 C.ar      1 UNK         0.0000 
     20 C20         0.7055   49.6007   23.9876 C.ar      1 UNK         0.0000 
     21 C21         1.0749   50.2196   22.7924 C.ar      1 UNK         0.0000 
     22 C22         1.3527   51.5974   22.7757 C.ar      1 UNK         0.0000 
     23 C23         1.2595   52.3289   23.9657 C.ar      1 UNK         0.0000 
     24 C24         1.6471   52.3152   21.4634 C.3       1 UNK         0.0000 
     25 N25         3.1518   52.5525   21.1699 N.4       1 UNK         0.0000 
     26 C26         3.3738   52.7483   19.6534 C.3       1 UNK         0.0000 
     27 C27         4.8529   53.0635   19.3670 C.3       1 UNK         0.0000 
     28 N28         5.3733   54.2160   20.1238 N.pl3     1 UNK         0.0000 
     29 C29         5.1498   54.0765   21.5723 C.3       1 UNK         0.0000 
     30 C30         3.6860   53.7734   21.9541 C.3       1 UNK         0.0000 
     31 C31         6.3600   55.0285   19.5795 C.ar      1 UNK         0.0000 
     32 C32         6.1744   55.5820   18.3058 C.ar      1 UNK         0.0000 
     33 C33         7.1519   56.3871   17.7292 C.ar      1 UNK         0.0000 
     34 C34         8.3331   56.6389   18.4195 C.ar      1 UNK         0.0000 
     35 C35         8.5387   56.0962   19.6832 C.ar      1 UNK         0.0000 
     36 C36         7.5512   55.3049   20.2671 C.ar      1 UNK         0.0000 
     37 F37         9.2834   57.4227   17.8627 F         1 UNK         0.0000 
     38 O38         1.0846   49.4758   21.6399 O.3       1 UNK         0.0000 
     39 C39         2.3463   48.9172   21.3055 C.3       1 UNK         0.0000 
     40 H40         7.1048   54.2541   26.8994 H         1 UNK         0.0000 
     41 H41         6.0859   53.4537   28.0847 H         1 UNK         0.0000 
     42 H42         6.0924   55.2164   27.9722 H         1 UNK         0.0000 
     43 H43         5.1748   55.0225   25.6178 H         1 UNK         0.0000 
     44 H44         5.0431   53.2981   25.8001 H         1 UNK         0.0000 
     45 H45         3.5516   55.2963   27.5982 H         1 UNK         0.0000 
     46 H46         2.9027   54.6611   26.1091 H         1 UNK         0.0000 
     47 H47        -2.4757   51.1810   28.7452 H         1 UNK         0.0000 
     48 H48        -1.4453   50.6405   29.9785 H         1 UNK         0.0000 
     49 H49         0.3288   49.8309   26.0803 H         1 UNK         0.0000 
     50 H50         0.4797   48.5433   23.9984 H         1 UNK         0.0000 
     51 H51         1.4382   53.3943   23.9497 H         1 UNK         0.0000 
     52 H52         1.2563   51.7418   20.6211 H         1 UNK         0.0000 
     53 H53         1.1696   53.2960   21.4241 H         1 UNK         0.0000 
     54 H54         3.1116   51.7980   19.1832 H         1 UNK         0.0000 
     55 H55         2.7058   53.5375   19.3035 H         1 UNK         0.0000 
     56 H56         5.4575   52.2116   19.6815 H         1 UNK         0.0000 
     57 H57         5.0226   53.1613   18.2944 H         1 UNK         0.0000 
     58 H58         5.5094   54.9514   22.1141 H         1 UNK         0.0000 
     59 H59         5.7663   53.2322   21.8823 H         1 UNK         0.0000 
     60 H60         3.0344   54.6231   21.7466 H         1 UNK         0.0000 
     61 H61         3.6286   53.4982   23.0071 H         1 UNK         0.0000 
     62 H62         5.2616   55.3950   17.7608 H         1 UNK         0.0000 
     63 H63         6.9955   56.8185   16.7507 H         1 UNK         0.0000 
     64 H64         9.4620   56.2957   20.2064 H         1 UNK         0.0000 
     65 H65         7.7299   54.8970   21.2501 H         1 UNK         0.0000 
     66 H66         2.2581   48.3423   20.3834 H         1 UNK         0.0000 
     67 H67         3.1028   49.6870   21.1420 H         1 UNK         0.0000 
     68 H68         2.7065   48.2412   22.0813 H         1 UNK         0.0000 
     69 H69         3.6878   51.7441   21.4479 H         1 UNK         0.0000 
@<TRIPOS>BOND
     1    1    2 1    
     2    1   40 1    
     3    1   41 1    
     4    1   42 1    
     5    2    3 1    
     6    2   43 1    
     7    2   44 1    
     8    3    4 1    
     9    3   45 1    
    10    3   46 1    
    11    4   14 1    
    12    4    5 2    
    13    5   11 1    
    14    5    6 1    
    15    6    7 1    
    16    6    8 1    
    17    6   18 1    
    18    8    9 2    
    19    8   16 1    
    20    9   10 1    
    21    9   15 1    
    22   10   11 1    
    23   11   12 1    
    24   11   13 1    
    25   13   14 2    
    26   15   47 1    
    27   15   48 1    
    28   16   17 3    
    29   18   23 ar   
    30   18   19 ar   
    31   19   20 ar   
    32   19   49 1    
    33   20   21 ar   
    34   20   50 1    
    35   21   22 ar   
    36   21   38 1    
    37   22   23 ar   
    38   22   24 1    
    39   23   51 1    
    40   24   25 1    
    41   24   52 1    
    42   24   53 1    
    43   25   30 1    
    44   25   26 1    
    45   25   69 1    
    46   26   27 1    
    47   26   54 1    
    48   26   55 1    
    49   27   28 1    
    50   27   56 1    
    51   27   57 1    
    52   28   29 1    
    53   28   31 1    
    54   29   30 1    
    55   29   58 1    
    56   29   59 1    
    57   30   60 1    
    58   30   61 1    
    59   31   36 ar   
    60   31   32 ar   
    61   32   33 ar   
    62   32   62 1    
    63   33   34 ar   
    64   33   63 1    
    65   34   35 ar   
    66   34   37 1    
    67   35   36 ar   
    68   35   64 1    
    69   36   65 1    
    70   38   39 1    
    71   39   66 1    
    72   39   67 1    
    73   39   68 1    
@<TRIPOS>SUBSTRUCTURE
     1 UNK         1 GROUP             0       ****    0 ROOT    
