ZINC20814955_3655
                    3D
 Schrodinger Suite 2024-2.
 54 55  0  0  1  0            999 V2000
    2.2124   52.5754   17.9742 C   0  0  0  0  0  0
    3.5535   53.2043   17.5620 C   0  0  0  0  0  0
    4.6873   52.8968   18.5796 N   0  3  1  0  0  0
    6.0909   53.2122   17.9817 C   0  0  0  0  0  0
    6.6387   54.5858   18.3257 C   0  0  0  0  0  0
    7.8780   54.8999   18.8853 C   0  0  0  0  0  0
    8.0783   56.2599   19.1208 C   0  0  0  0  0  0
    6.9924   57.0211   18.7334 C   0  0  0  0  0  0
    5.7446   56.0545   18.0317 S   0  0  0  0  0  0
    6.7639   58.8976   18.8822 Br  0  0  0  0  0  0
    4.4376   53.4878   19.9499 C   0  0  0  0  0  0
    3.7331   52.4555   20.8375 C   0  0  0  0  0  0
    4.1429   51.2961   20.8821 O   0  0  0  0  0  0
    2.6787   52.8966   21.5396 N   0  0  0  0  0  0
    1.8970   52.0867   22.4749 C   0  0  0  0  0  0
    1.6331   52.8947   23.7560 C   0  0  0  0  0  0
    1.5039   54.1208   23.7099 O   0  0  0  0  0  0
    1.5041   52.1637   24.8815 N   0  0  0  0  0  0
    1.3122   52.6415   26.1950 C   0  0  0  0  0  0
    0.2525   52.0946   26.9472 C   0  0  0  0  0  0
    0.0260   52.5384   28.2531 C   0  0  0  0  0  0
    0.8462   53.5063   28.8303 C   0  0  0  0  0  0
    1.9214   54.0167   28.1039 C   0  0  0  0  0  0
    2.1805   53.5810   26.8005 C   0  0  0  0  0  0
    3.4516   54.0886   26.1257 C   0  0  0  0  0  0
    0.5682   53.9929   30.2414 C   0  0  0  0  0  0
   -0.6654   51.0159   26.3798 C   0  0  0  0  0  0
    1.4829   52.6701   17.1696 H   0  0  0  0  0  0
    2.3222   51.5108   18.1902 H   0  0  0  0  0  0
    1.7827   53.0640   18.8483 H   0  0  0  0  0  0
    3.5010   54.2882   17.4490 H   0  0  0  0  0  0
    3.8824   52.7618   16.6194 H   0  0  0  0  0  0
    6.7045   52.4179   18.4079 H   0  0  0  0  0  0
    6.0541   53.0097   16.9105 H   0  0  0  0  0  0
    8.6214   54.1538   19.1282 H   0  0  0  0  0  0
    8.9792   56.6669   19.5592 H   0  0  0  0  0  0
    3.9160   54.4404   19.8405 H   0  0  0  0  0  0
    5.4111   53.6680   20.4057 H   0  0  0  0  0  0
    2.3831   53.8611   21.4436 H   0  0  0  0  0  0
    2.4049   51.1501   22.7134 H   0  0  0  0  0  0
    0.9432   51.8321   22.0132 H   0  0  0  0  0  0
    1.4977   51.1601   24.7839 H   0  0  0  0  0  0
   -0.7915   52.1242   28.8269 H   0  0  0  0  0  0
    2.5753   54.7438   28.5634 H   0  0  0  0  0  0
    3.2397   54.9316   25.4700 H   0  0  0  0  0  0
    4.1979   54.3960   26.8591 H   0  0  0  0  0  0
    3.9200   53.2998   25.5371 H   0  0  0  0  0  0
    0.8332   53.2270   30.9713 H   0  0  0  0  0  0
   -0.4940   54.2055   30.3594 H   0  0  0  0  0  0
    1.1057   54.9137   30.4715 H   0  0  0  0  0  0
   -1.2056   51.3942   25.5118 H   0  0  0  0  0  0
   -0.0813   50.1535   26.0567 H   0  0  0  0  0  0
   -1.3917   50.6578   27.1116 H   0  0  0  0  0  0
    4.7343   51.8741   18.6525 H   0  0  0  0  0  0
  1  2  1  0  0  0
  1 28  1  0  0  0
  1 29  1  0  0  0
  1 30  1  0  0  0
  2  3  1  0  0  0
  2 31  1  0  0  0
  2 32  1  0  0  0
  3  4  1  0  0  0
  3 11  1  0  0  0
  3 54  1  0  0  0
  4  5  1  0  0  0
  4 33  1  0  0  0
  4 34  1  0  0  0
  5  9  1  0  0  0
  5  6  2  0  0  0
  6  7  1  0  0  0
  6 35  1  0  0  0
  7  8  2  0  0  0
  7 36  1  0  0  0
  8  9  1  0  0  0
  8 10  1  0  0  0
 11 12  1  0  0  0
 11 37  1  0  0  0
 11 38  1  0  0  0
 12 13  2  0  0  0
 12 14  1  0  0  0
 14 15  1  0  0  0
 14 39  1  0  0  0
 15 16  1  0  0  0
 15 40  1  0  0  0
 15 41  1  0  0  0
 16 17  2  0  0  0
 16 18  1  0  0  0
 18 19  1  0  0  0
 18 42  1  0  0  0
 19 24  2  0  0  0
 19 20  1  0  0  0
 20 21  2  0  0  0
 20 27  1  0  0  0
 21 22  1  0  0  0
 21 43  1  0  0  0
 22 23  2  0  0  0
 22 26  1  0  0  0
 23 24  1  0  0  0
 23 44  1  0  0  0
 24 25  1  0  0  0
 25 45  1  0  0  0
 25 46  1  0  0  0
 25 47  1  0  0  0
 26 48  1  0  0  0
 26 49  1  0  0  0
 26 50  1  0  0  0
 27 51  1  0  0  0
 27 52  1  0  0  0
 27 53  1  0  0  0
M  CHG  1   3   1
M  END
> <i_i_glide_confnum>
203

> <i_i_glide_lignum>
3656

> <i_i_glide_posenum>
297

> <i_i_glide_rotatable_bonds>
10

> <i_m_Source_File_Index>
838

> <b_m_subgroup_collapsed>
0

> <r_i_docking_score>
-4.90719

> <r_i_glide_ecoul>
-8.01041

> <r_i_glide_eff_state_penalty>
0

> <r_i_glide_einternal>
10.6477

> <r_i_glide_emodel>
-55.5494

> <r_i_glide_energy>
-44.6124

> <r_i_glide_erotb>
0.781098

> <r_i_glide_esite>
-0.100512

> <r_i_glide_evdw>
-36.602

> <r_i_glide_gscore>
-4.90719

> <r_i_glide_hbond>
-0.397639

> <r_i_glide_ligand_efficiency>
-0.181748

> <r_i_glide_ligand_efficiency_ln>
-1.14231

> <r_i_glide_ligand_efficiency_sa>
-0.545243

> <r_i_glide_lipo>
-1.58717

> <r_i_glide_metal>
0

> <r_i_glide_rewards>
-0.5713

> <s_i_glide_gridfile>
wee1_glide-grid

> <s_m_Source_File>
wee1_decoys_glide_SP.sdf

> <s_m_Source_Path>
/Users/zhangxujun/Desktop

> <s_m_entry_id>
1113

> <s_m_entry_name>
wee1_decoys_glide_SP.838

> <s_m_subgroup_title>
wee1_decoys_glide_SP

> <s_m_subgroupid>
wee1_decoys_glide_SP


$$$$
