@<TRIPOS>MOLECULE
ZINC30830808_937
60   63    1
SMALL
USER_CHARGES


@<TRIPOS>ATOM
      1 C1          1.6459   52.4967   31.0000 C.ar      1 UNK         0.0000 
      2 C2          2.8346   52.5150   30.2755 C.ar      1 UNK         0.0000 
      3 C3          2.7921   52.5404   28.8842 C.ar      1 UNK         0.0000 
      4 C4          1.5658   52.5337   28.2093 C.ar      1 UNK         0.0000 
      5 C5          0.3773   52.5148   28.9544 C.ar      1 UNK         0.0000 
      6 C6          0.4181   52.4984   30.3464 C.ar      1 UNK         0.0000 
      7 C7          1.5769   52.4850   26.7291 C.2       1 UNK         0.0000 
      8 C8          0.4966   52.4065   25.9195 C.2       1 UNK         0.0000 
      9 C9          0.5481   52.2382   24.4805 C.2       1 UNK         0.0000 
     10 O10        -0.2241   51.4220   23.9758 O.2       1 UNK         0.0000 
     11 N11         1.4308   52.9514   23.7219 N.am      1 UNK         0.0000 
     12 C12         1.5821   52.6409   22.2922 C.3       1 UNK         0.0000 
     13 C13         3.0852   52.5743   21.9452 C.3       1 UNK         0.0000 
     14 N14         3.8940   53.7313   22.3778 N.pl3     1 UNK         0.0000 
     15 C15         3.6126   54.0965   23.7786 C.3       1 UNK         0.0000 
     16 C16         2.1168   54.1732   24.1554 C.3       1 UNK         0.0000 
     17 C17         5.0228   54.1767   21.6791 C.ar      1 UNK         0.0000 
     18 C18         6.0778   54.8463   22.3258 C.ar      1 UNK         0.0000 
     19 C19         7.1258   55.4147   21.6033 C.ar      1 UNK         0.0000 
     20 C20         7.1530   55.2981   20.2154 C.ar      1 UNK         0.0000 
     21 C21         6.1691   54.5483   19.5661 C.ar      1 UNK         0.0000 
     22 C22         5.1021   54.0258   20.2864 C.ar      1 UNK         0.0000 
     23 N23         8.1849   55.9312   19.4978 N.pl3     1 UNK         0.0000 
     24 C24         8.0943   56.6851   18.3604 C.2       1 UNK         0.0000 
     25 S25         9.5283   57.2627   17.7272 S.2       1 UNK         0.0000 
     26 N26         6.8216   56.8969   17.8851 N.am      1 UNK         0.0000 
     27 C27         6.3261   57.5112   16.7835 C.2       1 UNK         0.0000 
     28 O28         6.9805   58.1447   15.9528 O.2       1 UNK         0.0000 
     29 C29         4.8268   57.3981   16.6428 C.ar      1 UNK         0.0000 
     30 C30         4.0950   58.4943   16.1754 C.ar      1 UNK         0.0000 
     31 C31         2.7083   58.4278   16.0781 C.ar      1 UNK         0.0000 
     32 C32         2.0442   57.2556   16.4325 C.ar      1 UNK         0.0000 
     33 C33         2.7602   56.1447   16.8708 C.ar      1 UNK         0.0000 
     34 C34         4.1464   56.2146   16.9727 C.ar      1 UNK         0.0000 
     35 Cl35        0.3214   57.1843   16.3489 Cl        1 UNK         0.0000 
     36 H36         1.6702   52.4692   32.0807 H         1 UNK         0.0000 
     37 H37         3.7848   52.5019   30.7891 H         1 UNK         0.0000 
     38 H38         3.7212   52.5413   28.3316 H         1 UNK         0.0000 
     39 H39        -0.5872   52.4893   28.4712 H         1 UNK         0.0000 
     40 H40        -0.4968   52.4648   30.9215 H         1 UNK         0.0000 
     41 H41         2.5605   52.4935   26.2791 H         1 UNK         0.0000 
     42 H42        -0.5074   52.4080   26.3143 H         1 UNK         0.0000 
     43 H43         1.1117   51.6973   22.0088 H         1 UNK         0.0000 
     44 H44         1.1175   53.4276   21.6963 H         1 UNK         0.0000 
     45 H45         3.1936   52.3369   20.8898 H         1 UNK         0.0000 
     46 H46         3.5041   51.7204   22.4755 H         1 UNK         0.0000 
     47 H47         4.0825   55.0403   24.0471 H         1 UNK         0.0000 
     48 H48         4.0757   53.3161   24.3860 H         1 UNK         0.0000 
     49 H49         1.6742   55.0104   23.6169 H         1 UNK         0.0000 
     50 H50         1.9943   54.4081   25.2098 H         1 UNK         0.0000 
     51 H51         6.0884   54.9620   23.3982 H         1 UNK         0.0000 
     52 H52         7.9036   55.9537   22.1264 H         1 UNK         0.0000 
     53 H53         6.2168   54.3794   18.5007 H         1 UNK         0.0000 
     54 H54         4.3313   53.5241   19.7238 H         1 UNK         0.0000 
     55 H55         9.1113   55.8402   19.8922 H         1 UNK         0.0000 
     56 H56         6.1031   56.4809   18.4569 H         1 UNK         0.0000 
     57 H57         4.5940   59.4189   15.9136 H         1 UNK         0.0000 
     58 H58         2.1526   59.2946   15.7507 H         1 UNK         0.0000 
     59 H59         2.2433   55.2351   17.1408 H         1 UNK         0.0000 
     60 H60         4.6756   55.3346   17.3005 H         1 UNK         0.0000 
@<TRIPOS>BOND
     1    1    6 ar   
     2    1    2 ar   
     3    1   36 1    
     4    2    3 ar   
     5    2   37 1    
     6    3    4 ar   
     7    3   38 1    
     8    4    5 ar   
     9    4    7 1    
    10    5    6 ar   
    11    5   39 1    
    12    6   40 1    
    13    7    8 2    
    14    7   41 1    
    15    8    9 1    
    16    8   42 1    
    17    9   10 2    
    18    9   11 am   BACKBONE|DICT|INTERRES
    19   11   16 1    
    20   11   12 1    
    21   12   13 1    
    22   12   43 1    
    23   12   44 1    
    24   13   14 1    
    25   13   45 1    
    26   13   46 1    
    27   14   15 1    
    28   14   17 1    
    29   15   16 1    
    30   15   47 1    
    31   15   48 1    
    32   16   49 1    
    33   16   50 1    
    34   17   22 ar   
    35   17   18 ar   
    36   18   19 ar   
    37   18   51 1    
    38   19   20 ar   
    39   19   52 1    
    40   20   21 ar   
    41   20   23 1    
    42   21   22 ar   
    43   21   53 1    
    44   22   54 1    
    45   23   24 1    
    46   23   55 1    
    47   24   25 2    
    48   24   26 am   BACKBONE|DICT|INTERRES
    49   26   27 am   BACKBONE|DICT|INTERRES
    50   26   56 1    
    51   27   28 2    
    52   27   29 1    
    53   29   34 ar   
    54   29   30 ar   
    55   30   31 ar   
    56   30   57 1    
    57   31   32 ar   
    58   31   58 1    
    59   32   33 ar   
    60   32   35 1    
    61   33   34 ar   
    62   33   59 1    
    63   34   60 1    
@<TRIPOS>SUBSTRUCTURE
     1 UNK         1 GROUP             0       ****    0 ROOT    
