@<TRIPOS>MOLECULE
ZINC15867893_3802
31   33    1
SMALL
USER_CHARGES


@<TRIPOS>ATOM
      1 C1          4.1532   52.5207   29.3395 C.3       1 UNK         0.0000 
      2 C2          4.1362   53.8402   28.5388 C.3       1 UNK         0.0000 
      3 N3          5.4766   54.3763   28.4816 N.am      1 UNK         0.0000 
      4 C4          5.9882   54.4870   27.2477 C.2       1 UNK         0.0000 
      5 O5          7.1026   54.9122   26.9602 O.2       1 UNK         0.0000 
      6 N6          4.9425   54.1799   26.4363 N.am      1 UNK         0.0000 
      7 N7          3.9138   53.5451   27.1481 N.3       1 UNK         0.0000 
      8 C8          4.8944   54.2391   25.0106 C.ar      1 UNK         0.0000 
      9 C9          6.0559   54.3979   24.2276 C.ar      1 UNK         0.0000 
     10 C10         5.9911   54.3781   22.8394 C.ar      1 UNK         0.0000 
     11 C11         4.7667   54.1972   22.2064 C.ar      1 UNK         0.0000 
     12 C12         3.5975   54.0864   22.9541 C.ar      1 UNK         0.0000 
     13 C13         3.6616   54.0991   24.3473 C.ar      1 UNK         0.0000 
     14 Br14        4.7026   54.0969   20.3081 Br        1 UNK         0.0000 
     15 C15         3.1621   54.8952   29.1519 C.3       1 UNK         0.0000 
     16 C16         1.8677   55.2987   28.4791 C.3       1 UNK         0.0000 
     17 C17         1.8252   54.4841   29.7436 C.3       1 UNK         0.0000 
     18 H18         4.9488   51.8538   29.0071 H         1 UNK         0.0000 
     19 H19         4.3046   52.7013   30.4047 H         1 UNK         0.0000 
     20 H20         3.2159   51.9722   29.2327 H         1 UNK         0.0000 
     21 H21         6.1037   54.1910   29.2499 H         1 UNK         0.0000 
     22 H22         4.0794   52.5615   26.9835 H         1 UNK         0.0000 
     23 H23         7.0375   54.5059   24.6595 H         1 UNK         0.0000 
     24 H24         6.8917   54.4954   22.2555 H         1 UNK         0.0000 
     25 H25         2.6474   53.9632   22.4538 H         1 UNK         0.0000 
     26 H26         2.7437   53.9877   24.9047 H         1 UNK         0.0000 
     27 H27         3.6953   55.6877   29.6744 H         1 UNK         0.0000 
     28 H28         1.5805   54.8236   27.5413 H         1 UNK         0.0000 
     29 H29         1.5784   56.3494   28.5103 H         1 UNK         0.0000 
     30 H30         1.4877   54.9687   30.6606 H         1 UNK         0.0000 
     31 H31         1.4927   53.4491   29.6804 H         1 UNK         0.0000 
@<TRIPOS>BOND
     1    1    2 1    
     2    1   18 1    
     3    1   19 1    
     4    1   20 1    
     5    2    7 1    
     6    2    3 1    
     7    2   15 1    
     8    3    4 am   BACKBONE|DICT|INTERRES
     9    3   21 1    
    10    4    5 2    
    11    4    6 am   BACKBONE|DICT|INTERRES
    12    6    7 1    
    13    6    8 1    
    14    7   22 1    
    15    8   13 ar   
    16    8    9 ar   
    17    9   10 ar   
    18    9   23 1    
    19   10   11 ar   
    20   10   24 1    
    21   11   12 ar   
    22   11   14 1    
    23   12   13 ar   
    24   12   25 1    
    25   13   26 1    
    26   15   17 1    
    27   15   16 1    
    28   15   27 1    
    29   16   17 1    
    30   16   28 1    
    31   16   29 1    
    32   17   30 1    
    33   17   31 1    
@<TRIPOS>SUBSTRUCTURE
     1 UNK         1 GROUP             0       ****    0 ROOT    
