@<TRIPOS>MOLECULE
ZINC33343660_1005
55   58    1
SMALL
USER_CHARGES


@<TRIPOS>ATOM
      1 C1         -0.3873   48.3977   24.5134 C.3       1 UNK         0.0000 
      2 C2         -0.8079   49.4707   25.5026 C.ar      1 UNK         0.0000 
      3 C3         -0.0699   50.1051   26.4810 C.ar      1 UNK         0.0000 
      4 C4         -0.8454   51.0638   27.1434 C.ar      1 UNK         0.0000 
      5 C5         -2.1182   50.9549   26.5831 C.ar      1 UNK         0.0000 
      6 N6         -2.0878   49.9913   25.5800 N.pl3     1 UNK         0.0000 
      7 C7         -3.1839   49.5980   24.7812 C.ar      1 UNK         0.0000 
      8 C8         -3.8318   50.5323   23.9742 C.ar      1 UNK         0.0000 
      9 C9         -4.9207   50.1388   23.2010 C.ar      1 UNK         0.0000 
     10 C10        -5.3816   48.8104   23.2137 C.ar      1 UNK         0.0000 
     11 C11        -4.7036   47.8865   24.0285 C.ar      1 UNK         0.0000 
     12 C12        -3.6191   48.2737   24.8100 C.ar      1 UNK         0.0000 
     13 N13        -6.4925   48.4144   22.4141 N.pl3     1 UNK         0.0000 
     14 C14        -7.4300   49.4333   21.9374 C.3       1 UNK         0.0000 
     15 C15        -7.0306   47.0564   22.5298 C.3       1 UNK         0.0000 
     16 C16        -3.3948   51.7002   26.9429 C.3       1 UNK         0.0000 
     17 C17        -0.4365   51.9316   28.2478 C.2       1 UNK         0.0000 
     18 C18         0.6448   52.7570   28.4031 C.2       1 UNK         0.0000 
     19 C19         0.8200   53.5021   29.6595 C.2       1 UNK         0.0000 
     20 O20        -0.0907   53.4869   30.4858 O.2       1 UNK         0.0000 
     21 N21         1.9423   54.1695   29.8429 N.2       1 UNK         0.0000 
     22 C22         2.9060   54.2911   28.9425 C.2       1 UNK         0.0000 
     23 O23         3.9430   54.8964   29.2073 O.2       1 UNK         0.0000 
     24 N24         2.7401   53.7344   27.6759 N.am      1 UNK         0.0000 
     25 C25         1.6486   52.9417   27.3416 C.2       1 UNK         0.0000 
     26 O26         1.5029   52.4478   26.2210 O.2       1 UNK         0.0000 
     27 C27         3.7081   54.0050   26.6310 C.ar      1 UNK         0.0000 
     28 C28         5.0966   53.8632   26.8403 C.ar      1 UNK         0.0000 
     29 C29         6.0011   54.0961   25.8021 C.ar      1 UNK         0.0000 
     30 C30         5.5230   54.3827   24.5252 C.ar      1 UNK         0.0000 
     31 C31         4.1636   54.4968   24.2892 C.ar      1 UNK         0.0000 
     32 C32         3.2744   54.3713   25.3419 C.ar      1 UNK         0.0000 
     33 Br33        6.7049   54.6091   23.0609 Br        1 UNK         0.0000 
     34 H34         0.6982   48.2951   24.4729 H         1 UNK         0.0000 
     35 H35        -0.7849   47.4201   24.7843 H         1 UNK         0.0000 
     36 H36        -0.7214   48.6180   23.4991 H         1 UNK         0.0000 
     37 H37         0.9668   49.8962   26.6982 H         1 UNK         0.0000 
     38 H38        -3.4948   51.5587   23.9442 H         1 UNK         0.0000 
     39 H39        -5.3939   50.8907   22.5903 H         1 UNK         0.0000 
     40 H40        -5.0131   46.8541   24.0840 H         1 UNK         0.0000 
     41 H41        -3.1293   47.5515   25.4483 H         1 UNK         0.0000 
     42 H42        -7.8694   49.9637   22.7846 H         1 UNK         0.0000 
     43 H43        -8.2467   48.9991   21.3588 H         1 UNK         0.0000 
     44 H44        -6.9334   50.1710   21.3069 H         1 UNK         0.0000 
     45 H45        -6.2505   46.3068   22.3860 H         1 UNK         0.0000 
     46 H46        -7.4582   46.9003   23.5227 H         1 UNK         0.0000 
     47 H47        -7.8114   46.8639   21.7925 H         1 UNK         0.0000 
     48 H48        -3.3577   52.0963   27.9551 H         1 UNK         0.0000 
     49 H49        -3.5791   52.5388   26.2716 H         1 UNK         0.0000 
     50 H50        -4.2737   51.0547   26.9093 H         1 UNK         0.0000 
     51 H51        -1.1614   51.8628   29.0507 H         1 UNK         0.0000 
     52 H52         5.4807   53.5653   27.8054 H         1 UNK         0.0000 
     53 H53         7.0618   53.9911   25.9751 H         1 UNK         0.0000 
     54 H54         3.8000   54.7198   23.2960 H         1 UNK         0.0000 
     55 H55         2.2234   54.4965   25.1231 H         1 UNK         0.0000 
@<TRIPOS>BOND
     1    1    2 1    
     2    1   34 1    
     3    1   35 1    
     4    1   36 1    
     5    2    6 ar   
     6    2    3 ar   
     7    3    4 ar   
     8    3   37 1    
     9    4    5 ar   
    10    4   17 1    
    11    5    6 ar   
    12    5   16 1    
    13    6    7 1    
    14    7   12 ar   
    15    7    8 ar   
    16    8    9 ar   
    17    8   38 1    
    18    9   10 ar   
    19    9   39 1    
    20   10   11 ar   
    21   10   13 1    
    22   11   12 ar   
    23   11   40 1    
    24   12   41 1    
    25   13   14 1    
    26   13   15 1    
    27   14   42 1    
    28   14   43 1    
    29   14   44 1    
    30   15   45 1    
    31   15   46 1    
    32   15   47 1    
    33   16   48 1    
    34   16   49 1    
    35   16   50 1    
    36   17   18 2    
    37   17   51 1    
    38   18   25 1    
    39   18   19 1    
    40   19   20 2    
    41   19   21 1    
    42   21   22 1    
    43   22   23 2    
    44   22   24 am   BACKBONE|DICT|INTERRES
    45   24   25 am   BACKBONE|DICT|INTERRES
    46   24   27 1    
    47   25   26 2    
    48   27   32 ar   
    49   27   28 ar   
    50   28   29 ar   
    51   28   52 1    
    52   29   30 ar   
    53   29   53 1    
    54   30   31 ar   
    55   30   33 1    
    56   31   32 ar   
    57   31   54 1    
    58   32   55 1    
@<TRIPOS>SUBSTRUCTURE
     1 UNK         1 GROUP             0       ****    0 ROOT    
