@<TRIPOS>MOLECULE
ZINC39575061_4700
38   41    1
SMALL
USER_CHARGES


@<TRIPOS>ATOM
      1 C1         -2.9372   52.7429   24.4323 C.3       1 UNK         0.0000 
      2 C2         -3.0187   51.2300   24.5922 C.2       1 UNK         0.0000 
      3 C3         -4.1309   50.4780   24.4244 C.2       1 UNK         0.0000 
      4 S4         -3.8395   48.7374   24.6472 S.3       1 UNK         0.0000 
      5 C5         -2.2539   49.0493   25.4283 C.3       1 UNK         0.0000 
      6 C6         -1.7717   50.3852   24.8489 C.3       1 UNK         0.0000 
      7 C7         -0.7215   51.0755   25.7239 C.ar      1 UNK         0.0000 
      8 N8         -0.5865   50.8965   27.0867 N.pl3     1 UNK         0.0000 
      9 H9         -1.1356   50.2323   27.6253 H         1 UNK         0.0000 
     10 C10         0.4271   51.7263   27.5141 C.ar      1 UNK         0.0000 
     11 C11         1.0100   51.9875   28.7592 C.ar      1 UNK         0.0000 
     12 C12         2.0739   52.8931   28.7688 C.ar      1 UNK         0.0000 
     13 C13         2.5050   53.5495   27.5994 C.ar      1 UNK         0.0000 
     14 C14         1.9085   53.2974   26.3661 C.ar      1 UNK         0.0000 
     15 C15         0.8584   52.3698   26.3244 C.ar      1 UNK         0.0000 
     16 N16         0.1325   51.9491   25.2445 N.2       1 UNK         0.0000 
     17 O17         3.5863   54.4089   27.5922 O.3       1 UNK         0.0000 
     18 C18         3.9961   54.8589   28.8872 C.3       1 UNK         0.0000 
     19 C19         3.9740   53.6927   29.9006 C.3       1 UNK         0.0000 
     20 O20         2.6544   53.1502   29.9958 O.3       1 UNK         0.0000 
     21 N21        -1.2952   47.9692   25.2820 N.3       1 UNK         0.0000 
     22 C22        -5.5419   50.9496   24.1227 C.3       1 UNK         0.0000 
     23 H23        -2.1275   53.0007   23.7494 H         1 UNK         0.0000 
     24 H24        -3.8497   53.1840   24.0352 H         1 UNK         0.0000 
     25 H25        -2.7280   53.2090   25.3959 H         1 UNK         0.0000 
     26 H26        -2.4975   49.1751   26.4831 H         1 UNK         0.0000 
     27 H27        -1.2940   50.2117   23.8826 H         1 UNK         0.0000 
     28 H28         0.6648   51.5173   29.6664 H         1 UNK         0.0000 
     29 H29         2.2604   53.7851   25.4702 H         1 UNK         0.0000 
     30 H30         4.9963   55.2885   28.8229 H         1 UNK         0.0000 
     31 H31         3.3175   55.6439   29.2251 H         1 UNK         0.0000 
     32 H32         4.6622   52.9141   29.5654 H         1 UNK         0.0000 
     33 H33         4.3045   54.0260   30.8822 H         1 UNK         0.0000 
     34 H34        -0.3901   48.2915   25.5987 H         1 UNK         0.0000 
     35 H35        -1.5428   47.2542   25.9528 H         1 UNK         0.0000 
     36 H36        -5.7909   50.7462   23.0792 H         1 UNK         0.0000 
     37 H37        -6.2571   50.4187   24.7539 H         1 UNK         0.0000 
     38 H38        -5.6768   52.0158   24.3064 H         1 UNK         0.0000 
@<TRIPOS>BOND
     1    1    2 1    
     2    1   23 1    
     3    1   24 1    
     4    1   25 1    
     5    2    6 1    
     6    2    3 2    
     7    3    4 1    
     8    3   22 1    
     9    4    5 1    
    10    5    6 1    
    11    5   21 1    
    12    5   26 1    
    13    6    7 1    
    14    6   27 1    
    15    7   16 ar   
    16    7    8 ar   
    17    8    9 1    
    18    8   10 ar   
    19   10   15 ar   
    20   10   11 ar   
    21   11   12 ar   
    22   11   28 1    
    23   12   20 1    
    24   12   13 ar   
    25   13   14 ar   
    26   13   17 1    
    27   14   15 ar   
    28   14   29 1    
    29   15   16 ar   
    30   17   18 1    
    31   18   19 1    
    32   18   30 1    
    33   18   31 1    
    34   19   20 1    
    35   19   32 1    
    36   19   33 1    
    37   21   34 1    
    38   21   35 1    
    39   22   36 1    
    40   22   37 1    
    41   22   38 1    
@<TRIPOS>SUBSTRUCTURE
     1 UNK         1 GROUP             0       ****    0 ROOT    
