@<TRIPOS>MOLECULE
ZINC16293207_2434
44   47    1
SMALL
USER_CHARGES


@<TRIPOS>ATOM
      1 C1          1.2037   47.9397   17.1038 C.3       1 UNK         0.0000 
      2 O2          1.5044   49.0230   17.9704 O.3       1 UNK         0.0000 
      3 C3          1.8326   48.8061   19.2667 C.2       1 UNK         0.0000 
      4 O4          1.7688   47.6983   19.8096 O.2       1 UNK         0.0000 
      5 C5          2.2077   50.0608   19.9951 C.ar      1 UNK         0.0000 
      6 C6          2.3045   50.0431   21.3903 C.ar      1 UNK         0.0000 
      7 C7          2.6841   51.1876   22.0822 C.ar      1 UNK         0.0000 
      8 C8          2.9923   52.3749   21.4079 C.ar      1 UNK         0.0000 
      9 C9          2.8620   52.3948   20.0148 C.ar      1 UNK         0.0000 
     10 C10         2.4888   51.2528   19.3133 C.ar      1 UNK         0.0000 
     11 C11         3.4394   53.6605   22.1411 C.3       1 UNK         0.0000 
     12 H12         2.7687   54.4166   21.7318 H         1 UNK         0.0000 
     13 C13         3.2916   53.7176   23.6829 C.ar      1 UNK         0.0000 
     14 C14         2.3060   53.3965   24.6677 C.ar      1 UNK         0.0000 
     15 N15         2.7413   53.6641   25.8936 N.2       1 UNK         0.0000 
     16 N16         3.9939   54.0951   25.7616 N.pl3     1 UNK         0.0000 
     17 H17         4.5795   54.3414   26.5454 H         1 UNK         0.0000 
     18 C18         4.3678   54.1119   24.4595 C.ar      1 UNK         0.0000 
     19 O19         5.6257   54.4885   24.0713 O.3       1 UNK         0.0000 
     20 C20         5.7983   54.4961   22.7231 C.2       1 UNK         0.0000 
     21 C21         4.8785   54.1378   21.7869 C.2       1 UNK         0.0000 
     22 C22         5.2360   54.2955   20.4129 C.1       1 UNK         0.0000 
     23 N23         5.5679   54.4664   19.3187 N.1       1 UNK         0.0000 
     24 N24         7.0752   54.9377   22.4823 N.pl3     1 UNK         0.0000 
     25 C25         0.9395   52.7903   24.4995 C.ar      1 UNK         0.0000 
     26 C26         0.2619   52.8964   23.2827 C.ar      1 UNK         0.0000 
     27 C27        -1.0016   52.3352   23.1212 C.ar      1 UNK         0.0000 
     28 C28        -1.6027   51.6670   24.1825 C.ar      1 UNK         0.0000 
     29 C29        -0.9413   51.5412   25.4006 C.ar      1 UNK         0.0000 
     30 C30         0.3249   52.0987   25.5564 C.ar      1 UNK         0.0000 
     31 Br31       -3.3414   50.9258   23.9619 Br        1 UNK         0.0000 
     32 H32         0.9718   48.3172   16.1082 H         1 UNK         0.0000 
     33 H33         0.3444   47.3718   17.4642 H         1 UNK         0.0000 
     34 H34         2.0575   47.2652   17.0177 H         1 UNK         0.0000 
     35 H35         2.0887   49.1450   21.9530 H         1 UNK         0.0000 
     36 H36         2.7045   51.1328   23.1582 H         1 UNK         0.0000 
     37 H37         3.0553   53.2990   19.4571 H         1 UNK         0.0000 
     38 H38         2.4453   51.3054   18.2335 H         1 UNK         0.0000 
     39 H39         7.3923   55.0859   21.5348 H         1 UNK         0.0000 
     40 H40         7.7839   54.8991   23.2043 H         1 UNK         0.0000 
     41 H41         0.7080   53.4167   22.4501 H         1 UNK         0.0000 
     42 H42        -1.5146   52.4208   22.1753 H         1 UNK         0.0000 
     43 H43        -1.4057   51.0109   26.2205 H         1 UNK         0.0000 
     44 H44         0.8259   51.9853   26.5071 H         1 UNK         0.0000 
@<TRIPOS>BOND
     1    1    2 1    
     2    1   32 1    
     3    1   33 1    
     4    1   34 1    
     5    2    3 1    
     6    3    4 2    
     7    3    5 1    
     8    5   10 ar   
     9    5    6 ar   
    10    6    7 ar   
    11    6   35 1    
    12    7    8 ar   
    13    7   36 1    
    14    8    9 ar   
    15    8   11 1    
    16    9   10 ar   
    17    9   37 1    
    18   10   38 1    
    19   11   12 1    
    20   11   21 1    
    21   11   13 1    
    22   13   18 ar   
    23   13   14 ar   
    24   14   15 ar   
    25   14   25 1    
    26   15   16 ar   
    27   16   17 1    
    28   16   18 ar   
    29   18   19 1    
    30   19   20 1    
    31   20   21 2    
    32   20   24 1    
    33   21   22 1    
    34   22   23 3    
    35   24   39 1    
    36   24   40 1    
    37   25   30 ar   
    38   25   26 ar   
    39   26   27 ar   
    40   26   41 1    
    41   27   28 ar   
    42   27   42 1    
    43   28   29 ar   
    44   28   31 1    
    45   29   30 ar   
    46   29   43 1    
    47   30   44 1    
@<TRIPOS>SUBSTRUCTURE
     1 UNK         1 GROUP             0       ****    0 ROOT    
