@<TRIPOS>MOLECULE
ZINC16098442_17
54   56    1
SMALL
USER_CHARGES


@<TRIPOS>ATOM
      1 C1          1.1495   56.6770   31.0949 C.3       1 UNK         0.0000 
      2 C2          1.4852   55.6456   30.0486 C.ar      1 UNK         0.0000 
      3 C3          2.5614   55.8592   29.2054 C.ar      1 UNK         0.0000 
      4 C4          2.9299   54.9004   28.2685 C.ar      1 UNK         0.0000 
      5 C5          2.2065   53.7169   28.1538 C.ar      1 UNK         0.0000 
      6 C6          1.1003   53.4986   28.9966 C.ar      1 UNK         0.0000 
      7 C7          0.7499   54.4692   29.9438 C.ar      1 UNK         0.0000 
      8 S8          0.1644   51.9703   28.9951 S.o2      1 UNK         0.0000 
      9 O9          1.0977   50.8967   28.6572 O.2       1 UNK         0.0000 
     10 O10        -0.5769   51.9394   30.2576 O.2       1 UNK         0.0000 
     11 N11        -1.0632   52.0921   27.7197 N.pl3     1 UNK         0.0000 
     12 C12        -0.9269   51.6363   26.4032 C.ar      1 UNK         0.0000 
     13 C13        -0.2965   50.4298   26.0807 C.ar      1 UNK         0.0000 
     14 C14        -0.2021   50.0204   24.7536 C.ar      1 UNK         0.0000 
     15 C15        -0.7607   50.8121   23.7454 C.ar      1 UNK         0.0000 
     16 C16        -1.4554   51.9792   24.0716 C.ar      1 UNK         0.0000 
     17 C17        -1.5365   52.3848   25.3984 C.ar      1 UNK         0.0000 
     18 S18        -0.6058   50.3397   22.0229 S.o2      1 UNK         0.0000 
     19 O19        -0.4378   48.8835   22.0783 O.2       1 UNK         0.0000 
     20 O20        -1.8965   50.7685   21.4686 O.2       1 UNK         0.0000 
     21 N21         0.7891   51.2431   21.3736 N.2       1 UNK         0.0000 
     22 C22         1.6655   51.9797   21.9395 C.2       1 UNK         0.0000 
     23 C23         1.9683   52.3498   23.4052 C.3       1 UNK         0.0000 
     24 C24         2.3966   53.7981   23.7136 C.3       1 UNK         0.0000 
     25 C25         3.8842   54.0550   23.4822 C.3       1 UNK         0.0000 
     26 C26         4.2537   54.1333   22.0012 C.3       1 UNK         0.0000 
     27 C27         3.9948   52.8516   21.1849 C.3       1 UNK         0.0000 
     28 N28         2.5837   52.4981   21.0424 N.pl3     1 UNK         0.0000 
     29 C29         2.6884   52.6985   27.1430 C.3       1 UNK         0.0000 
     30 H30         0.1883   57.1312   30.8816 H         1 UNK         0.0000 
     31 H31         1.1043   56.2022   32.0725 H         1 UNK         0.0000 
     32 H32         1.9028   57.4650   31.1573 H         1 UNK         0.0000 
     33 H33         3.1050   56.7841   29.2871 H         1 UNK         0.0000 
     34 H34         3.7867   55.0850   27.6357 H         1 UNK         0.0000 
     35 H35        -0.0815   54.3096   30.6167 H         1 UNK         0.0000 
     36 H36        -1.9247   52.5495   27.9718 H         1 UNK         0.0000 
     37 H37         0.0943   49.7845   26.8538 H         1 UNK         0.0000 
     38 H38         0.3047   49.0947   24.5170 H         1 UNK         0.0000 
     39 H39        -1.9132   52.5795   23.2999 H         1 UNK         0.0000 
     40 H40        -2.0767   53.2862   25.6427 H         1 UNK         0.0000 
     41 H41         1.1106   52.2228   24.0322 H         1 UNK         0.0000 
     42 H42         2.7043   51.6563   23.8066 H         1 UNK         0.0000 
     43 H43         1.7945   54.5018   23.1326 H         1 UNK         0.0000 
     44 H44         2.1549   54.0302   24.7515 H         1 UNK         0.0000 
     45 H45         4.4859   53.2953   23.9774 H         1 UNK         0.0000 
     46 H46         4.1653   54.9730   23.9815 H         1 UNK         0.0000 
     47 H47         5.2963   54.4385   21.8994 H         1 UNK         0.0000 
     48 H48         3.6670   54.9345   21.5616 H         1 UNK         0.0000 
     49 H49         4.4791   52.0081   21.6773 H         1 UNK         0.0000 
     50 H50         4.4596   52.9263   20.1993 H         1 UNK         0.0000 
     51 H51         2.3755   52.1979   20.1042 H         1 UNK         0.0000 
     52 H52         1.8663   52.3394   26.5261 H         1 UNK         0.0000 
     53 H53         3.4539   53.0947   26.4760 H         1 UNK         0.0000 
     54 H54         3.1134   51.8536   27.6802 H         1 UNK         0.0000 
@<TRIPOS>BOND
     1    1    2 1    
     2    1   30 1    
     3    1   31 1    
     4    1   32 1    
     5    2    7 ar   
     6    2    3 ar   
     7    3    4 ar   
     8    3   33 1    
     9    4    5 ar   
    10    4   34 1    
    11    5    6 ar   
    12    5   29 1    
    13    6    7 ar   
    14    6    8 1    
    15    7   35 1    
    16    8    9 2    
    17    8   10 2    
    18    8   11 1    
    19   11   12 1    
    20   11   36 1    
    21   12   17 ar   
    22   12   13 ar   
    23   13   14 ar   
    24   13   37 1    
    25   14   15 ar   
    26   14   38 1    
    27   15   16 ar   
    28   15   18 1    
    29   16   17 ar   
    30   16   39 1    
    31   17   40 1    
    32   18   19 2    
    33   18   20 2    
    34   18   21 1    
    35   21   22 2    
    36   22   28 1    
    37   22   23 1    
    38   23   24 1    
    39   23   41 1    
    40   23   42 1    
    41   24   25 1    
    42   24   43 1    
    43   24   44 1    
    44   25   26 1    
    45   25   45 1    
    46   25   46 1    
    47   26   27 1    
    48   26   47 1    
    49   26   48 1    
    50   27   28 1    
    51   27   49 1    
    52   27   50 1    
    53   28   51 1    
    54   29   52 1    
    55   29   53 1    
    56   29   54 1    
@<TRIPOS>SUBSTRUCTURE
     1 UNK         1 GROUP             0       ****    0 ROOT    
