ZINC08920348_358
                    3D
 Schrodinger Suite 2024-2.
 67 70  0  0  1  0            999 V2000
    6.6986   53.6970   28.3532 C   0  0  0  0  0  0
    5.7922   54.8954   27.9964 C   0  0  0  0  0  0
    4.3598   53.5858   26.3508 C   0  0  0  0  0  0
    3.6136   53.6982   24.9989 C   0  0  0  0  0  0
    4.5508   54.1182   23.8531 C   0  0  0  0  0  0
    5.7933   54.6984   24.1453 C   0  0  0  0  0  0
    6.7044   55.0889   22.7434 S   0  0  0  0  0  0
    5.4417   54.4894   21.7097 C   0  0  0  0  0  0
    4.3601   53.9487   22.4428 C   0  0  0  0  0  0
    3.2569   53.2461   21.7951 C   0  0  0  0  0  0
    3.3885   52.7574   20.6711 O   0  0  0  0  0  0
    2.1071   53.1721   22.4844 N   0  0  0  0  0  0
    0.9186   52.4878   21.9912 C   0  0  0  0  0  0
    5.5940   54.4961   20.3223 N   0  0  0  0  0  0
    6.3620   55.3302   19.5863 C   0  0  0  0  0  0
    6.9170   56.3383   20.0337 O   0  0  0  0  0  0
    6.4613   54.9993   18.1145 C   0  0  0  0  0  0
    6.3976   53.6714   17.6580 C   0  0  0  0  0  0
    6.5837   53.3769   16.3095 C   0  0  0  0  0  0
    6.8304   54.4097   15.4021 C   0  0  0  0  0  0
    6.8671   55.7331   15.8398 C   0  0  0  0  0  0
    6.6841   56.0261   17.1876 C   0  0  0  0  0  0
    7.1792   54.0882   13.6724 S   0  0  0  0  0  0
    6.2093   54.8800   12.9081 O   0  0  0  0  0  0
    8.6126   54.3646   13.5323 O   0  0  0  0  0  0
    6.8168   52.3554   13.3761 N   0  0  0  0  0  0
    5.3682   52.0225   13.3326 C   0  0  0  0  0  0
    5.1205   50.5775   13.8082 C   0  0  0  0  0  0
    6.0246   49.5517   13.0898 C   0  0  0  0  0  0
    7.5063   49.9885   13.0597 C   0  0  0  0  0  0
    7.6520   51.4310   12.5283 C   0  0  2  0  0  0
    7.2523   51.4709   11.5129 H   0  0  0  0  0  0
    9.1334   51.8436   12.4370 C   0  0  0  0  0  0
    6.3928   54.8940   25.5177 C   0  0  0  0  0  0
    7.2155   53.8956   29.2818 H   0  0  0  0  0  0
    7.4975   53.4992   27.6440 H   0  0  0  0  0  0
    6.1231   52.7810   28.4799 H   0  0  0  0  0  0
    4.9190   54.9477   28.6491 H   0  0  0  0  0  0
    6.3048   55.8505   28.0790 H   0  0  0  0  0  0
    5.0296   52.7309   26.4269 H   0  0  0  0  0  0
    3.6427   53.5544   27.1743 H   0  0  0  0  0  0
    3.1059   52.7528   24.8071 H   0  0  0  0  0  0
    2.8270   54.4486   25.0878 H   0  0  0  0  0  0
    2.0158   53.6918   23.3425 H   0  0  0  0  0  0
    0.0947   52.6014   22.6954 H   0  0  0  0  0  0
    0.6080   52.8964   21.0285 H   0  0  0  0  0  0
    1.1159   51.4216   21.8668 H   0  0  0  0  0  0
    4.9217   53.9310   19.8184 H   0  0  0  0  0  0
    6.2359   52.8443   18.3379 H   0  0  0  0  0  0
    6.5633   52.3439   15.9950 H   0  0  0  0  0  0
    7.0617   56.5341   15.1398 H   0  0  0  0  0  0
    6.7413   57.0589   17.5056 H   0  0  0  0  0  0
    4.7989   52.7406   13.9248 H   0  0  0  0  0  0
    5.0403   52.0859   12.2939 H   0  0  0  0  0  0
    5.2921   50.5278   14.8817 H   0  0  0  0  0  0
    4.0713   50.3145   13.6699 H   0  0  0  0  0  0
    5.9335   48.5752   13.5688 H   0  0  0  0  0  0
    5.6693   49.4209   12.0668 H   0  0  0  0  0  0
    7.9055   49.9313   14.0737 H   0  0  0  0  0  0
    8.0721   49.2937   12.4389 H   0  0  0  0  0  0
    9.7205   51.0696   11.9386 H   0  0  0  0  0  0
    9.2677   52.7452   11.8393 H   0  0  0  0  0  0
    9.5777   51.9932   13.4222 H   0  0  0  0  0  0
    6.8605   55.8715   25.6452 H   0  0  0  0  0  0
    7.1038   54.0934   25.7063 H   0  0  0  0  0  0
    5.2399   54.8351   26.5482 N   0  3  2  0  0  0
    4.6477   55.6457   26.4200 H   0  0  0  0  0  0
  1  2  1  0  0  0
  1 35  1  0  0  0
  1 36  1  0  0  0
  1 37  1  0  0  0
  2 38  1  0  0  0
  2 39  1  0  0  0
  2 66  1  0  0  0
  3  4  1  0  0  0
  3 40  1  0  0  0
  3 41  1  0  0  0
  3 66  1  0  0  0
  4  5  1  0  0  0
  4 42  1  0  0  0
  4 43  1  0  0  0
  5  9  1  0  0  0
  5  6  2  0  0  0
  6  7  1  0  0  0
  6 34  1  0  0  0
  7  8  1  0  0  0
  8  9  2  0  0  0
  8 14  1  0  0  0
  9 10  1  0  0  0
 10 11  2  0  0  0
 10 12  1  0  0  0
 12 13  1  0  0  0
 12 44  1  0  0  0
 13 45  1  0  0  0
 13 46  1  0  0  0
 13 47  1  0  0  0
 14 15  1  0  0  0
 14 48  1  0  0  0
 15 16  2  0  0  0
 15 17  1  0  0  0
 17 22  2  0  0  0
 17 18  1  0  0  0
 18 19  2  0  0  0
 18 49  1  0  0  0
 19 20  1  0  0  0
 19 50  1  0  0  0
 20 21  2  0  0  0
 20 23  1  0  0  0
 21 22  1  0  0  0
 21 51  1  0  0  0
 22 52  1  0  0  0
 23 24  2  0  0  0
 23 25  2  0  0  0
 23 26  1  0  0  0
 26 31  1  0  0  0
 26 27  1  0  0  0
 27 28  1  0  0  0
 27 53  1  0  0  0
 27 54  1  0  0  0
 28 29  1  0  0  0
 28 55  1  0  0  0
 28 56  1  0  0  0
 29 30  1  0  0  0
 29 57  1  0  0  0
 29 58  1  0  0  0
 30 31  1  0  0  0
 30 59  1  0  0  0
 30 60  1  0  0  0
 31 32  1  0  0  0
 31 33  1  0  0  0
 33 61  1  0  0  0
 33 62  1  0  0  0
 33 63  1  0  0  0
 34 64  1  0  0  0
 34 65  1  0  0  0
 34 66  1  0  0  0
 66 67  1  0  0  0
M  CHG  1  66   1
M  END
> <i_i_glide_confnum>
171

> <i_i_glide_lignum>
359

> <i_i_glide_posenum>
322

> <i_i_glide_rotatable_bonds>
8

> <i_m_Source_File_Index>
4520

> <b_m_subgroup_collapsed>
0

> <r_i_docking_score>
-1.76172

> <r_i_glide_ecoul>
-0.848891

> <r_i_glide_eff_state_penalty>
0

> <r_i_glide_einternal>
13.3919

> <r_i_glide_emodel>
-29.0184

> <r_i_glide_energy>
-38.0499

> <r_i_glide_erotb>
0.479961

> <r_i_glide_esite>
0

> <r_i_glide_evdw>
-37.201

> <r_i_glide_gscore>
-1.76172

> <r_i_glide_hbond>
-0.0255268

> <r_i_glide_ligand_efficiency>
-0.0518151

> <r_i_glide_ligand_efficiency_ln>
-0.389212

> <r_i_glide_ligand_efficiency_sa>
-0.167861

> <r_i_glide_lipo>
-2.36939

> <r_i_glide_metal>
0

> <r_i_glide_rewards>
2.14062

> <s_i_glide_gridfile>
wee1_glide-grid

> <s_m_Source_File>
wee1_decoys_glide_SP.sdf

> <s_m_Source_Path>
/Users/zhangxujun/Desktop

> <s_m_entry_id>
4795

> <s_m_entry_name>
wee1_decoys_glide_SP.4520

> <s_m_subgroup_title>
wee1_decoys_glide_SP

> <s_m_subgroupid>
wee1_decoys_glide_SP


$$$$
