ZINC62648116_1344
                    3D
 Schrodinger Suite 2024-2.
 58 60  0  0  1  0            999 V2000
    2.8426   53.5240   23.3218 C   0  0  0  0  0  0
    4.2202   54.0279   22.9060 C   0  0  0  0  0  0
    4.3985   54.4212   21.5770 C   0  0  0  0  0  0
    5.6297   54.8960   21.1038 C   0  0  0  0  0  0
    6.7038   54.9411   22.0052 C   0  0  0  0  0  0
    6.5529   54.5294   23.3279 C   0  0  0  0  0  0
    5.3138   54.0974   23.7954 C   0  0  0  0  0  0
    5.2253   53.7405   25.1538 N   0  0  0  0  0  0
    4.4042   54.3259   26.0379 C   0  0  0  0  0  0
    3.7074   55.2964   25.7675 O   0  0  0  0  0  0
    4.4303   53.7598   27.2519 N   0  0  0  0  0  0
    3.6914   54.2626   28.4207 C   0  0  2  0  0  0
    4.5107   53.9966   29.6820 C   0  0  0  0  0  0
    2.2836   53.6835   28.5624 C   0  0  0  0  0  0
    1.7423   52.5325   27.9651 C   0  0  0  0  0  0
    0.4472   52.3680   28.4168 C   0  0  0  0  0  0
    0.1407   53.3841   29.2541 O   0  0  0  0  0  0
    1.2340   54.1846   29.3421 C   0  0  0  0  0  0
    1.0891   55.3661   30.2767 C   0  0  0  0  0  0
   -0.6343   51.3425   28.1809 C   0  0  0  0  0  0
    5.7561   55.3397   19.7860 N   0  0  0  0  0  0
    6.7706   56.3131   19.3382 C   0  0  0  0  0  0
    6.2195   57.4042   18.3936 C   0  0  0  0  0  0
    5.4918   56.7557   17.2021 N   0  3  0  0  0  0
    4.3845   55.8111   17.7128 C   0  0  0  0  0  0
    5.0087   54.7575   18.6546 C   0  0  0  0  0  0
    4.8964   57.8526   16.2890 C   0  0  0  0  0  0
    2.3093   53.0840   22.4779 H   0  0  0  0  0  0
    2.9107   52.7408   24.0772 H   0  0  0  0  0  0
    2.2430   54.3403   23.7262 H   0  0  0  0  0  0
    3.5417   54.3935   20.9184 H   0  0  0  0  0  0
    7.6783   55.2806   21.6897 H   0  0  0  0  0  0
    7.4058   54.5788   23.9909 H   0  0  0  0  0  0
    5.8846   53.0564   25.4910 H   0  0  0  0  0  0
    4.7295   52.7973   27.3032 H   0  0  0  0  0  0
    3.5983   55.3479   28.3376 H   0  0  0  0  0  0
    3.9973   54.3693   30.5619 H   0  0  0  0  0  0
    4.6808   52.9288   29.8182 H   0  0  0  0  0  0
    5.4789   54.4978   29.6515 H   0  0  0  0  0  0
    2.2555   51.8729   27.2837 H   0  0  0  0  0  0
    1.5795   56.2613   29.8933 H   0  0  0  0  0  0
    0.0501   55.6172   30.4816 H   0  0  0  0  0  0
    1.5042   55.1572   31.2545 H   0  0  0  0  0  0
   -0.2726   50.4944   27.5993 H   0  0  0  0  0  0
   -1.4788   51.7639   27.6360 H   0  0  0  0  0  0
   -1.0229   50.9421   29.1171 H   0  0  0  0  0  0
    7.2700   56.7839   20.1818 H   0  0  0  0  0  0
    7.5301   55.7196   18.8217 H   0  0  0  0  0  0
    7.0379   57.9866   17.9649 H   0  0  0  0  0  0
    5.5045   58.0668   18.8830 H   0  0  0  0  0  0
    3.9729   55.3263   16.8246 H   0  0  0  0  0  0
    3.6158   56.4114   18.2063 H   0  0  0  0  0  0
    5.7365   54.1573   18.1030 H   0  0  0  0  0  0
    4.2475   54.0416   18.9740 H   0  0  0  0  0  0
    4.1658   58.4282   16.8626 H   0  0  0  0  0  0
    5.7172   58.4906   15.9594 H   0  0  0  0  0  0
    4.4300   57.3575   15.4375 H   0  0  0  0  0  0
    6.1623   56.2011   16.6833 H   0  0  0  0  0  0
  1  2  1  0  0  0
  1 28  1  0  0  0
  1 29  1  0  0  0
  1 30  1  0  0  0
  2  7  2  0  0  0
  2  3  1  0  0  0
  3  4  2  0  0  0
  3 31  1  0  0  0
  4  5  1  0  0  0
  4 21  1  0  0  0
  5  6  2  0  0  0
  5 32  1  0  0  0
  6  7  1  0  0  0
  6 33  1  0  0  0
  7  8  1  0  0  0
  8  9  1  0  0  0
  8 34  1  0  0  0
  9 10  2  0  0  0
  9 11  1  0  0  0
 11 12  1  0  0  0
 11 35  1  0  0  0
 12 13  1  0  0  0
 12 14  1  0  0  0
 12 36  1  0  0  0
 13 37  1  0  0  0
 13 38  1  0  0  0
 13 39  1  0  0  0
 14 18  2  0  0  0
 14 15  1  0  0  0
 15 16  2  0  0  0
 15 40  1  0  0  0
 16 17  1  0  0  0
 16 20  1  0  0  0
 17 18  1  0  0  0
 18 19  1  0  0  0
 19 41  1  0  0  0
 19 42  1  0  0  0
 19 43  1  0  0  0
 20 44  1  0  0  0
 20 45  1  0  0  0
 20 46  1  0  0  0
 21 26  1  0  0  0
 21 22  1  0  0  0
 22 23  1  0  0  0
 22 47  1  0  0  0
 22 48  1  0  0  0
 23 24  1  0  0  0
 23 49  1  0  0  0
 23 50  1  0  0  0
 24 25  1  0  0  0
 24 27  1  0  0  0
 24 58  1  0  0  0
 25 26  1  0  0  0
 25 51  1  0  0  0
 25 52  1  0  0  0
 26 53  1  0  0  0
 26 54  1  0  0  0
 27 55  1  0  0  0
 27 56  1  0  0  0
 27 57  1  0  0  0
M  CHG  1  24   1
M  END
> <i_i_glide_confnum>
33

> <i_i_glide_lignum>
1345

> <i_i_glide_posenum>
163

> <i_i_glide_rotatable_bonds>
6

> <i_m_Source_File_Index>
813

> <b_m_subgroup_collapsed>
0

> <r_i_docking_score>
-5.57673

> <r_i_glide_ecoul>
-3.7903

> <r_i_glide_eff_state_penalty>
0

> <r_i_glide_einternal>
6.37299

> <r_i_glide_emodel>
-51.5053

> <r_i_glide_energy>
-36.6397

> <r_i_glide_erotb>
0.839236

> <r_i_glide_esite>
0

> <r_i_glide_evdw>
-32.8494

> <r_i_glide_gscore>
-5.57673

> <r_i_glide_hbond>
0

> <r_i_glide_ligand_efficiency>
-0.206546

> <r_i_glide_ligand_efficiency_ln>
-1.29817

> <r_i_glide_ligand_efficiency_sa>
-0.619637

> <r_i_glide_lipo>
-2.89863

> <r_i_glide_metal>
0

> <r_i_glide_rewards>
-1.30633

> <s_i_glide_gridfile>
wee1_glide-grid

> <s_m_Source_File>
wee1_decoys_glide_SP.sdf

> <s_m_Source_Path>
/Users/zhangxujun/Desktop

> <s_m_entry_id>
1088

> <s_m_entry_name>
wee1_decoys_glide_SP.813

> <s_m_subgroup_title>
wee1_decoys_glide_SP

> <s_m_subgroupid>
wee1_decoys_glide_SP


$$$$
