ZINC59818992_504
                    3D
 Schrodinger Suite 2024-2.
 41 42  0  0  1  0            999 V2000
    5.3265   53.4225   28.2337 C   0  0  0  0  0  0
    4.9697   54.2242   27.0574 N   0  0  0  0  0  0
    3.5328   54.1892   26.7698 C   0  0  0  0  0  0
    5.9194   54.8631   26.3225 C   0  0  0  0  0  0
    7.1043   54.8664   26.6577 O   0  0  0  0  0  0
    5.5616   55.6508   25.0429 C   0  0  0  0  0  0
    6.5541   55.4362   23.8828 C   0  0  0  0  0  0
    6.7284   53.7328   23.2817 S   0  0  0  0  0  0
    5.3439   53.5221   22.2102 C   0  0  0  0  0  0
    5.1042   52.3286   21.6817 N   0  0  0  0  0  0
    3.9890   52.5155   21.0350 C   0  0  0  0  0  0
    3.6189   53.8219   21.1263 N   0  0  0  0  0  0
    4.4949   54.4811   21.8868 N   0  0  0  0  0  0
    3.1853   51.5363   20.4842 N   0  0  0  0  0  0
    2.1846   50.7797   21.1661 N   0  0  0  0  0  0
    1.8747   51.0623   22.3737 C   0  0  0  0  0  0
    0.8915   50.3503   23.1922 C   0  0  0  0  0  0
    0.6713   50.7818   24.5045 C   0  0  0  0  0  0
   -0.2303   50.1264   25.3411 C   0  0  0  0  0  0
   -0.9319   49.0093   24.8717 C   0  0  0  0  0  0
   -0.7407   48.5811   23.5523 C   0  0  0  0  0  0
    0.1630   49.2496   22.7230 C   0  0  0  0  0  0
   -1.6956   47.0807   22.8588 Br  0  0  0  0  0  0
   -1.8110   48.3359   25.6817 O   0  0  0  0  0  0
   -0.4872   50.8134   27.1015 Br  0  0  0  0  0  0
    6.3929   53.4369   28.4629 H   0  0  0  0  0  0
    5.0385   52.3829   28.0809 H   0  0  0  0  0  0
    4.7998   53.7914   29.1139 H   0  0  0  0  0  0
    3.1951   54.9297   26.0493 H   0  0  0  0  0  0
    3.2507   53.2020   26.4009 H   0  0  0  0  0  0
    2.9663   54.3745   27.6840 H   0  0  0  0  0  0
    4.6029   55.2956   24.6771 H   0  0  0  0  0  0
    5.5021   56.7098   25.2815 H   0  0  0  0  0  0
    6.3044   56.0608   23.0287 H   0  0  0  0  0  0
    7.5284   55.8010   24.1896 H   0  0  0  0  0  0
    3.3784   51.1914   19.5491 H   0  0  0  0  0  0
    2.3505   51.8879   22.8972 H   0  0  0  0  0  0
    1.2046   51.6368   24.8969 H   0  0  0  0  0  0
    0.3032   48.8961   21.7111 H   0  0  0  0  0  0
   -1.6956   48.4967   26.6371 H   0  0  0  0  0  0
    2.7891   54.2430   20.7208 H   0  0  0  0  0  0
  1  2  1  0  0  0
  1 26  1  0  0  0
  1 27  1  0  0  0
  1 28  1  0  0  0
  2  3  1  0  0  0
  2  4  1  0  0  0
  3 29  1  0  0  0
  3 30  1  0  0  0
  3 31  1  0  0  0
  4  5  2  0  0  0
  4  6  1  0  0  0
  6  7  1  0  0  0
  6 32  1  0  0  0
  6 33  1  0  0  0
  7  8  1  0  0  0
  7 34  1  0  0  0
  7 35  1  0  0  0
  8  9  1  0  0  0
  9 13  2  0  0  0
  9 10  1  0  0  0
 10 11  2  0  0  0
 11 12  1  0  0  0
 11 14  1  0  0  0
 12 13  1  0  0  0
 12 41  1  0  0  0
 14 15  1  0  0  0
 14 36  1  0  0  0
 15 16  2  0  0  0
 16 17  1  0  0  0
 16 37  1  0  0  0
 17 22  2  0  0  0
 17 18  1  0  0  0
 18 19  2  0  0  0
 18 38  1  0  0  0
 19 20  1  0  0  0
 19 25  1  0  0  0
 20 21  2  0  0  0
 20 24  1  0  0  0
 21 22  1  0  0  0
 21 23  1  0  0  0
 22 39  1  0  0  0
 24 40  1  0  0  0
M  END
> <i_i_glide_confnum>
62

> <i_i_glide_lignum>
505

> <i_i_glide_posenum>
151

> <i_i_glide_rotatable_bonds>
9

> <i_m_Source_File_Index>
2940

> <b_m_subgroup_collapsed>
0

> <r_i_docking_score>
-6.0841

> <r_i_glide_ecoul>
-11.6863

> <r_i_glide_eff_state_penalty>
0

> <r_i_glide_einternal>
7.25539

> <r_i_glide_emodel>
-61.2758

> <r_i_glide_energy>
-46.0613

> <r_i_glide_erotb>
0.588397

> <r_i_glide_esite>
-0.0528151

> <r_i_glide_evdw>
-34.3751

> <r_i_glide_gscore>
-6.0841

> <r_i_glide_hbond>
-0.70642

> <r_i_glide_ligand_efficiency>
-0.243364

> <r_i_glide_ligand_efficiency_ln>
-1.44211

> <r_i_glide_ligand_efficiency_sa>
-0.711601

> <r_i_glide_lipo>
-1.36297

> <r_i_glide_metal>
0

> <r_i_glide_rewards>
-1.0786

> <s_i_glide_gridfile>
wee1_glide-grid

> <s_m_Source_File>
wee1_decoys_glide_SP.sdf

> <s_m_Source_Path>
/Users/zhangxujun/Desktop

> <s_m_entry_id>
3215

> <s_m_entry_name>
wee1_decoys_glide_SP.2940

> <s_m_subgroup_title>
wee1_decoys_glide_SP

> <s_m_subgroupid>
wee1_decoys_glide_SP


$$$$
