ZINC11813971_2137
                    3D
 Schrodinger Suite 2024-2.
 56 58  0  0  1  0            999 V2000
   -7.2620   54.4549   26.3220 C   0  0  0  0  0  0
   -6.0336   53.7248   25.8364 C   0  0  0  0  0  0
   -4.6976   54.0689   25.9721 C   0  0  0  0  0  0
   -3.8119   53.1555   25.3994 C   0  0  0  0  0  0
   -4.4259   52.0655   24.7900 C   0  0  0  0  0  0
   -6.1495   52.2299   24.9614 S   0  0  0  0  0  0
   -3.8359   50.8700   24.0579 C   0  0  0  0  0  0
   -2.3703   50.8566   24.0053 N   0  0  0  0  0  0
   -1.6277   51.6337   23.1999 C   0  0  0  0  0  0
   -2.1093   52.4967   22.4672 O   0  0  0  0  0  0
   -0.1097   51.4141   23.2347 C   0  0  0  0  0  0
    0.6152   51.8150   21.9066 C   0  0  2  0  0  0
    0.1826   52.6927   21.4177 H   0  0  0  0  0  0
    0.5201   50.6416   20.8756 C   0  0  0  0  0  0
   -0.5390   50.0896   20.5793 O   0  0  0  0  0  0
    1.6503   50.2459   20.2620 N   0  0  0  0  0  0
    3.0045   50.7684   20.4691 C   0  0  0  0  0  0
    2.9786   52.2034   21.0164 C   0  0  0  0  0  0
    2.1069   53.6709   22.8978 C   0  0  0  0  0  0
    3.2944   53.9102   23.8126 C   0  0  0  0  0  0
    3.1457   53.8423   25.1980 C   0  0  0  0  0  0
    4.2336   54.0949   26.0363 C   0  0  0  0  0  0
    5.4960   54.4108   25.5020 C   0  0  0  0  0  0
    5.6309   54.4922   24.1081 C   0  0  0  0  0  0
    4.5364   54.2532   23.2761 C   0  0  0  0  0  0
    6.9741   54.8242   23.4828 C   0  0  0  0  0  0
    6.6270   54.6420   26.2666 O   0  0  0  0  0  0
    6.5761   54.3889   27.6665 C   0  0  0  0  0  0
   -7.0084   55.3528   26.8869 H   0  0  0  0  0  0
   -7.8698   53.8247   26.9739 H   0  0  0  0  0  0
   -7.8935   54.7648   25.4880 H   0  0  0  0  0  0
   -4.3680   54.9602   26.4817 H   0  0  0  0  0  0
   -2.7401   53.2875   25.4276 H   0  0  0  0  0  0
   -4.1642   49.9426   24.5316 H   0  0  0  0  0  0
   -4.2357   50.8226   23.0421 H   0  0  0  0  0  0
   -1.9068   50.1566   24.5657 H   0  0  0  0  0  0
    0.2427   51.9964   24.0831 H   0  0  0  0  0  0
    0.1155   50.3798   23.5056 H   0  0  0  0  0  0
    1.5388   49.5089   19.5770 H   0  0  0  0  0  0
    3.5646   50.0971   21.1215 H   0  0  0  0  0  0
    3.5049   50.7721   19.4956 H   0  0  0  0  0  0
    3.9859   52.4517   21.3513 H   0  0  0  0  0  0
    2.6442   52.9443   20.2819 H   0  0  0  0  0  0
    2.0992   54.3921   22.0816 H   0  0  0  0  0  0
    1.1733   53.8249   23.4408 H   0  0  0  0  0  0
    2.1887   53.5983   25.6355 H   0  0  0  0  0  0
    4.0801   54.0282   27.1030 H   0  0  0  0  0  0
    4.6565   54.3547   22.2077 H   0  0  0  0  0  0
    7.4167   55.6938   23.9683 H   0  0  0  0  0  0
    7.6527   53.9811   23.6131 H   0  0  0  0  0  0
    6.8975   55.0525   22.4187 H   0  0  0  0  0  0
    7.5782   54.4968   28.0826 H   0  0  0  0  0  0
    5.9183   55.0982   28.1761 H   0  0  0  0  0  0
    6.2486   53.3684   27.8831 H   0  0  0  0  0  0
    2.0670   52.2503   22.2622 N   0  3  1  0  0  0
    2.4322   51.5795   22.9268 H   0  0  0  0  0  0
  1  2  1  0  0  0
  1 29  1  0  0  0
  1 30  1  0  0  0
  1 31  1  0  0  0
  2  6  1  0  0  0
  2  3  2  0  0  0
  3  4  1  0  0  0
  3 32  1  0  0  0
  4  5  2  0  0  0
  4 33  1  0  0  0
  5  6  1  0  0  0
  5  7  1  0  0  0
  7  8  1  0  0  0
  7 34  1  0  0  0
  7 35  1  0  0  0
  8  9  1  0  0  0
  8 36  1  0  0  0
  9 10  2  0  0  0
  9 11  1  0  0  0
 11 12  1  0  0  0
 11 37  1  0  0  0
 11 38  1  0  0  0
 12 13  1  0  0  0
 12 14  1  0  0  0
 12 55  1  0  0  0
 14 15  2  0  0  0
 14 16  1  0  0  0
 16 17  1  0  0  0
 16 39  1  0  0  0
 17 18  1  0  0  0
 17 40  1  0  0  0
 17 41  1  0  0  0
 18 42  1  0  0  0
 18 43  1  0  0  0
 18 55  1  0  0  0
 19 20  1  0  0  0
 19 44  1  0  0  0
 19 45  1  0  0  0
 19 55  1  0  0  0
 20 25  2  0  0  0
 20 21  1  0  0  0
 21 22  2  0  0  0
 21 46  1  0  0  0
 22 23  1  0  0  0
 22 47  1  0  0  0
 23 24  2  0  0  0
 23 27  1  0  0  0
 24 25  1  0  0  0
 24 26  1  0  0  0
 25 48  1  0  0  0
 26 49  1  0  0  0
 26 50  1  0  0  0
 26 51  1  0  0  0
 27 28  1  0  0  0
 28 52  1  0  0  0
 28 53  1  0  0  0
 28 54  1  0  0  0
 55 56  1  0  0  0
M  CHG  1  55   1
M  END
> <i_i_glide_confnum>
63

> <i_i_glide_lignum>
2138

> <i_i_glide_posenum>
195

> <i_i_glide_rotatable_bonds>
8

> <i_m_Source_File_Index>
2031

> <b_m_subgroup_collapsed>
0

> <r_i_docking_score>
-4.92772

> <r_i_glide_ecoul>
-5.02728

> <r_i_glide_eff_state_penalty>
0

> <r_i_glide_einternal>
4.93887

> <r_i_glide_emodel>
-54.178

> <r_i_glide_energy>
-40.6053

> <r_i_glide_erotb>
0.847815

> <r_i_glide_esite>
-0.0154231

> <r_i_glide_evdw>
-35.578

> <r_i_glide_gscore>
-4.92772

> <r_i_glide_hbond>
-0.10679

> <r_i_glide_ligand_efficiency>
-0.17599

> <r_i_glide_ligand_efficiency_ln>
-1.13746

> <r_i_glide_ligand_efficiency_sa>
-0.534409

> <r_i_glide_lipo>
-2.39257

> <r_i_glide_metal>
0

> <r_i_glide_rewards>
-0.72776

> <s_i_glide_gridfile>
wee1_glide-grid

> <s_m_Source_File>
wee1_decoys_glide_SP.sdf

> <s_m_Source_Path>
/Users/zhangxujun/Desktop

> <s_m_entry_id>
2306

> <s_m_entry_name>
wee1_decoys_glide_SP.2031

> <s_m_subgroup_title>
wee1_decoys_glide_SP

> <s_m_subgroupid>
wee1_decoys_glide_SP


$$$$
