@<TRIPOS>MOLECULE
ZINC13719730_2753
38   41    1
SMALL
USER_CHARGES


@<TRIPOS>ATOM
      1 C1          0.6743   51.4017   28.0078 C.ar      1 UNK         0.0000 
      2 C2          1.9714   51.6966   28.4058 C.ar      1 UNK         0.0000 
      3 C3          2.3214   53.0046   28.7532 C.ar      1 UNK         0.0000 
      4 C4          1.3516   54.0070   28.7729 C.ar      1 UNK         0.0000 
      5 C5          0.0431   53.6943   28.4185 C.ar      1 UNK         0.0000 
      6 C6         -0.2876   52.3990   28.0197 C.ar      1 UNK         0.0000 
      7 F7         -1.5458   52.0967   27.6286 F         1 UNK         0.0000 
      8 S8          4.0124   53.3871   29.2144 S.o2      1 UNK         0.0000 
      9 O9          4.7044   52.0967   29.2755 O.2       1 UNK         0.0000 
     10 O10         3.8324   54.0850   30.4817 O.2       1 UNK         0.0000 
     11 N11         4.5684   54.3698   28.1241 N.2       1 UNK         0.0000 
     12 C12         4.5957   54.2475   26.7899 C.2       1 UNK         0.0000 
     13 N13         5.5853   54.6910   26.0660 N.2       1 UNK         0.0000 
     14 C14         5.3719   54.4968   24.7422 C.ar      1 UNK         0.0000 
     15 C15         6.3043   54.7687   23.7349 C.ar      1 UNK         0.0000 
     16 C16         5.9488   54.4968   22.4125 C.ar      1 UNK         0.0000 
     17 C17         4.6876   53.9787   22.0767 C.ar      1 UNK         0.0000 
     18 C18         3.7453   53.7193   23.0785 C.ar      1 UNK         0.0000 
     19 C19         4.1026   53.9758   24.4042 C.ar      1 UNK         0.0000 
     20 S20         3.1998   53.6967   25.8734 S.3       1 UNK         0.0000 
     21 C21         4.3257   53.6572   20.6499 C.2       1 UNK         0.0000 
     22 O22         3.5739   52.7104   20.4075 O.2       1 UNK         0.0000 
     23 N23         4.8314   54.4965   19.7213 N.am      1 UNK         0.0000 
     24 C24         4.6142   54.4024   18.3570 C.2       1 UNK         0.0000 
     25 N25         4.3880   53.3064   17.6663 N.2       1 UNK         0.0000 
     26 C26         4.2262   53.5703   16.3850 C.2       1 UNK         0.0000 
     27 C27         4.3200   54.9105   16.0152 C.2       1 UNK         0.0000 
     28 S28         4.6407   55.8680   17.4320 S.3       1 UNK         0.0000 
     29 H29         0.4022   50.4086   27.6824 H         1 UNK         0.0000 
     30 H30         2.7039   50.9072   28.4149 H         1 UNK         0.0000 
     31 H31         1.6160   55.0169   29.0536 H         1 UNK         0.0000 
     32 H32        -0.7039   54.4677   28.4049 H         1 UNK         0.0000 
     33 H33         7.2813   55.1596   23.9770 H         1 UNK         0.0000 
     34 H34         6.6836   54.6866   21.6423 H         1 UNK         0.0000 
     35 H35         2.7728   53.3082   22.8403 H         1 UNK         0.0000 
     36 H36         5.2166   55.3645   20.0556 H         1 UNK         0.0000 
     37 H37         4.0365   52.7452   15.7132 H         1 UNK         0.0000 
     38 H38         4.2240   55.3584   15.0373 H         1 UNK         0.0000 
@<TRIPOS>BOND
     1    1    6 ar   
     2    1    2 ar   
     3    1   29 1    
     4    2    3 ar   
     5    2   30 1    
     6    3    4 ar   
     7    3    8 1    
     8    4    5 ar   
     9    4   31 1    
    10    5    6 ar   
    11    5   32 1    
    12    6    7 1    
    13    8    9 2    
    14    8   10 2    
    15    8   11 1    
    16   11   12 1    
    17   12   20 1    
    18   12   13 2    
    19   13   14 1    
    20   14   19 ar   
    21   14   15 ar   
    22   15   16 ar   
    23   15   33 1    
    24   16   17 ar   
    25   16   34 1    
    26   17   18 ar   
    27   17   21 1    
    28   18   19 ar   
    29   18   35 1    
    30   19   20 1    
    31   21   22 2    
    32   21   23 am   BACKBONE|DICT|INTERRES
    33   23   24 am   BACKBONE|DICT|INTERRES
    34   23   36 1    
    35   24   28 1    
    36   24   25 2    
    37   25   26 1    
    38   26   27 2    
    39   26   37 1    
    40   27   28 1    
    41   27   38 1    
@<TRIPOS>SUBSTRUCTURE
     1 UNK         1 GROUP             0       ****    0 ROOT    
