@<TRIPOS>MOLECULE
ZINC35363689_6044
64   68    1
SMALL
USER_CHARGES


@<TRIPOS>ATOM
      1 C1          1.0824   53.4716   29.9063 C.ar      1 UNK         0.0000 
      2 C2          1.5078   54.7878   29.7391 C.ar      1 UNK         0.0000 
      3 C3          2.7780   55.0411   29.2289 C.ar      1 UNK         0.0000 
      4 C4          3.6171   53.9770   28.8810 C.ar      1 UNK         0.0000 
      5 C5          3.1907   52.6594   29.0675 C.ar      1 UNK         0.0000 
      6 C6          1.9161   52.4068   29.5698 C.ar      1 UNK         0.0000 
      7 C7          4.9969   54.2565   28.2945 C.3       1 UNK         0.0000 
      8 N8          5.1294   53.9896   26.7698 N.4       1 UNK         0.0000 
      9 C9          4.0290   54.7238   25.9701 C.3       1 UNK         0.0000 
     10 C10         4.1383   54.3404   24.4992 C.3       1 UNK         0.0000 
     11 C11         5.5289   54.6151   23.9079 C.3       1 UNK         0.0000 
     12 C12         6.7034   54.1347   24.7898 C.3       1 UNK         0.0000 
     13 C13         6.5362   54.4314   26.2944 C.3       1 UNK         0.0000 
     14 N14         5.5833   54.2731   22.4849 N.am      1 UNK         0.0000 
     15 C15         6.3039   54.9003   21.5401 C.2       1 UNK         0.0000 
     16 O16         7.1051   55.7979   21.7949 O.2       1 UNK         0.0000 
     17 C17         6.0444   54.4421   20.0910 C.3       1 UNK         0.0000 
     18 C18         7.1301   54.8406   19.0415 C.3       1 UNK         0.0000 
     19 H19         8.0906   54.5688   19.4848 H         1 UNK         0.0000 
     20 C20         7.0002   54.0290   17.7445 C.ar      1 UNK         0.0000 
     21 C21         8.0829   53.2657   17.2822 C.ar      1 UNK         0.0000 
     22 C22         7.9739   52.5020   16.1202 C.ar      1 UNK         0.0000 
     23 C23         6.7850   52.5068   15.3931 C.ar      1 UNK         0.0000 
     24 C24         5.7109   53.2834   15.8246 C.ar      1 UNK         0.0000 
     25 C25         5.8135   54.0409   16.9917 C.ar      1 UNK         0.0000 
     26 F26         4.7510   54.7818   17.3827 F         1 UNK         0.0000 
     27 C27         7.1339   56.3343   18.7414 C.ar      1 UNK         0.0000 
     28 C28         6.1264   57.2955   18.7894 C.ar      1 UNK         0.0000 
     29 N29         6.4996   58.4959   18.4206 N.2       1 UNK         0.0000 
     30 C30         7.8003   58.3516   18.0814 C.ar      1 UNK         0.0000 
     31 N31         8.2383   57.0265   18.2883 N.pl3     1 UNK         0.0000 
     32 C32         9.5348   56.6519   18.0445 C.ar      1 UNK         0.0000 
     33 C33        10.4423   57.5963   17.5736 C.ar      1 UNK         0.0000 
     34 C34        10.0288   58.9075   17.3413 C.ar      1 UNK         0.0000 
     35 C35         8.7117   59.3029   17.5887 C.ar      1 UNK         0.0000 
     36 Cl36       12.0801   57.1395   17.2790 Cl        1 UNK         0.0000 
     37 H37         0.0967   53.2704   30.3014 H         1 UNK         0.0000 
     38 H38         0.8560   55.6073   30.0054 H         1 UNK         0.0000 
     39 H39         3.1019   56.0635   29.0970 H         1 UNK         0.0000 
     40 H40         3.8352   51.8325   28.8094 H         1 UNK         0.0000 
     41 H41         1.5687   51.3919   29.6938 H         1 UNK         0.0000 
     42 H42         5.7564   53.6245   28.7632 H         1 UNK         0.0000 
     43 H43         5.2908   55.2965   28.4442 H         1 UNK         0.0000 
     44 H44         4.1699   55.7948   26.0817 H         1 UNK         0.0000 
     45 H45         3.0564   54.4200   26.3583 H         1 UNK         0.0000 
     46 H46         3.3847   54.8970   23.9399 H         1 UNK         0.0000 
     47 H47         3.8838   53.2896   24.3912 H         1 UNK         0.0000 
     48 H48         5.6186   55.6964   24.0023 H         1 UNK         0.0000 
     49 H49         6.8596   53.0736   24.6608 H         1 UNK         0.0000 
     50 H50         7.6153   54.6165   24.4484 H         1 UNK         0.0000 
     51 H51         6.6436   55.4951   26.5203 H         1 UNK         0.0000 
     52 H52         7.2636   53.8627   26.8776 H         1 UNK         0.0000 
     53 H53         4.8850   53.6185   22.1650 H         1 UNK         0.0000 
     54 H54         5.0721   54.8346   19.7929 H         1 UNK         0.0000 
     55 H55         5.9042   53.3586   20.0846 H         1 UNK         0.0000 
     56 H56         9.0122   53.2431   17.8335 H         1 UNK         0.0000 
     57 H57         8.8086   51.9031   15.7869 H         1 UNK         0.0000 
     58 H58         6.6955   51.9079   14.4977 H         1 UNK         0.0000 
     59 H59         4.7898   53.2898   15.2623 H         1 UNK         0.0000 
     60 H60         5.1057   57.1089   19.0844 H         1 UNK         0.0000 
     61 H61         9.8029   55.6265   18.2424 H         1 UNK         0.0000 
     62 H62        10.7402   59.6259   16.9610 H         1 UNK         0.0000 
     63 H63         8.3788   60.3163   17.3993 H         1 UNK         0.0000 
     64 H64         5.0203   52.9918   26.6195 H         1 UNK         0.0000 
@<TRIPOS>BOND
     1    1    6 ar   
     2    1    2 ar   
     3    1   37 1    
     4    2    3 ar   
     5    2   38 1    
     6    3    4 ar   
     7    3   39 1    
     8    4    5 ar   
     9    4    7 1    
    10    5    6 ar   
    11    5   40 1    
    12    6   41 1    
    13    7    8 1    
    14    7   42 1    
    15    7   43 1    
    16    8   13 1    
    17    8    9 1    
    18    8   64 1    
    19    9   10 1    
    20    9   44 1    
    21    9   45 1    
    22   10   11 1    
    23   10   46 1    
    24   10   47 1    
    25   11   12 1    
    26   11   14 1    
    27   11   48 1    
    28   12   13 1    
    29   12   49 1    
    30   12   50 1    
    31   13   51 1    
    32   13   52 1    
    33   14   15 am   BACKBONE|DICT|INTERRES
    34   14   53 1    
    35   15   16 2    
    36   15   17 1    
    37   17   18 1    
    38   17   54 1    
    39   17   55 1    
    40   18   19 1    
    41   18   20 1    
    42   18   27 1    
    43   20   25 ar   
    44   20   21 ar   
    45   21   22 ar   
    46   21   56 1    
    47   22   23 ar   
    48   22   57 1    
    49   23   24 ar   
    50   23   58 1    
    51   24   25 ar   
    52   24   59 1    
    53   25   26 1    
    54   27   31 ar   
    55   27   28 ar   
    56   28   29 ar   
    57   28   60 1    
    58   29   30 ar   
    59   30   35 ar   
    60   30   31 ar   
    61   31   32 ar   
    62   32   33 ar   
    63   32   61 1    
    64   33   34 ar   
    65   33   36 1    
    66   34   35 ar   
    67   34   62 1    
    68   35   63 1    
@<TRIPOS>SUBSTRUCTURE
     1 UNK         1 GROUP             0       ****    0 ROOT    
