@<TRIPOS>MOLECULE
ZINC43548614_794
75   78    1
SMALL
USER_CHARGES


@<TRIPOS>ATOM
      1 C1          6.1769   52.9140   15.2660 C.3       1 UNK         0.0000 
      2 C2          7.2923   53.8384   15.7799 C.3       1 UNK         0.0000 
      3 C3          7.2472   54.1314   17.2943 C.3       1 UNK         0.0000 
      4 C4          6.1779   55.1455   17.7620 C.3       1 UNK         0.0000 
      5 N5          4.7899   54.7022   17.5807 N.pl3     1 UNK         0.0000 
      6 C6          4.1587   53.8118   18.3907 C.2       1 UNK         0.0000 
      7 N7          2.8525   53.3914   18.2140 N.pl3     1 UNK         0.0000 
      8 C8          2.3825   52.4643   19.1319 C.2       1 UNK         0.0000 
      9 C9          3.3797   52.0939   20.0278 C.2       1 UNK         0.0000 
     10 S10         4.8424   53.0225   19.7839 S.3       1 UNK         0.0000 
     11 C11         3.2065   51.0601   21.1174 C.3       1 UNK         0.0000 
     12 C12         2.0430   50.1006   20.7222 C.3       1 UNK         0.0000 
     13 C13         1.6681   49.1468   21.8770 C.3       1 UNK         0.0000 
     14 C14         1.2535   49.8730   23.1610 C.3       1 UNK         0.0000 
     15 C15         0.0159   50.7761   22.9124 C.3       1 UNK         0.0000 
     16 H16        -0.7727   50.0525   22.6946 H         1 UNK         0.0000 
     17 C17         0.1113   51.6207   21.5845 C.3       1 UNK         0.0000 
     18 H18         0.7211   52.5029   21.7605 H         1 UNK         0.0000 
     19 C19         0.7502   50.9066   20.3399 C.3       1 UNK         0.0000 
     20 H20         0.0120   50.1589   20.0351 H         1 UNK         0.0000 
     21 C21         0.9582   51.8977   19.1219 C.3       1 UNK         0.0000 
     22 H22         0.2926   52.7536   19.2543 H         1 UNK         0.0000 
     23 C23         0.5770   51.2954   17.7542 C.3       1 UNK         0.0000 
     24 O24        -1.1743   52.0966   21.2235 O.3       1 UNK         0.0000 
     25 C25        -0.3981   51.5146   24.2427 C.3       1 UNK         0.0000 
     26 H26        -0.4671   50.6944   24.9516 H         1 UNK         0.0000 
     27 C27        -1.8222   52.1212   24.1966 C.3       1 UNK         0.0000 
     28 C28         0.6128   52.5731   24.7827 C.2       1 UNK         0.0000 
     29 O29         1.0808   53.3729   23.9657 O.2       1 UNK         0.0000 
     30 N30         1.0610   52.5406   26.0749 N.am      1 UNK         0.0000 
     31 C31         2.0109   53.6070   26.4795 C.3       1 UNK         0.0000 
     32 C32         2.8788   53.1494   27.6673 C.3       1 UNK         0.0000 
     33 N33         2.0716   52.6107   28.7630 N.3       1 UNK         0.0000 
     34 C34         1.2431   51.4921   28.3131 C.3       1 UNK         0.0000 
     35 C35         0.2930   51.8714   27.1515 C.3       1 UNK         0.0000 
     36 C36         2.9319   52.2050   29.8704 C.3       1 UNK         0.0000 
     37 C37         2.4796   49.1977   19.5269 C.3       1 UNK         0.0000 
     38 H38         6.3729   52.6071   14.2377 H         1 UNK         0.0000 
     39 H39         6.0981   52.0060   15.8687 H         1 UNK         0.0000 
     40 H40         5.2026   53.4036   15.2707 H         1 UNK         0.0000 
     41 H41         7.2944   54.7711   15.2155 H         1 UNK         0.0000 
     42 H42         8.2461   53.3596   15.5579 H         1 UNK         0.0000 
     43 H43         8.2189   54.5326   17.5857 H         1 UNK         0.0000 
     44 H44         7.1457   53.1948   17.8471 H         1 UNK         0.0000 
     45 H45         6.2715   56.1049   17.2509 H         1 UNK         0.0000 
     46 H46         6.3016   55.3607   18.8255 H         1 UNK         0.0000 
     47 H47         4.3000   55.0644   16.7758 H         1 UNK         0.0000 
     48 H48         2.9855   51.6212   22.0231 H         1 UNK         0.0000 
     49 H49         4.1286   50.5109   21.2944 H         1 UNK         0.0000 
     50 H50         2.5124   48.4971   22.1168 H         1 UNK         0.0000 
     51 H51         0.8589   48.4955   21.5537 H         1 UNK         0.0000 
     52 H52         2.0893   50.4452   23.5669 H         1 UNK         0.0000 
     53 H53         1.0308   49.1397   23.9422 H         1 UNK         0.0000 
     54 H54         0.5407   52.0633   16.9808 H         1 UNK         0.0000 
     55 H55         1.2877   50.5396   17.4214 H         1 UNK         0.0000 
     56 H56        -0.4081   50.8315   17.7896 H         1 UNK         0.0000 
     57 H57        -1.7447   51.3367   21.0817 H         1 UNK         0.0000 
     58 H58        -2.1651   52.4021   25.1966 H         1 UNK         0.0000 
     59 H59        -1.8612   53.0242   23.5808 H         1 UNK         0.0000 
     60 H60        -2.5468   51.4097   23.7940 H         1 UNK         0.0000 
     61 H61         1.4533   54.4658   26.8455 H         1 UNK         0.0000 
     62 H62         2.6900   53.9047   25.6810 H         1 UNK         0.0000 
     63 H63         3.5566   52.3769   27.3086 H         1 UNK         0.0000 
     64 H64         3.4658   53.9982   28.0210 H         1 UNK         0.0000 
     65 H65         1.9070   50.6980   27.9627 H         1 UNK         0.0000 
     66 H66         0.6467   51.1143   29.1464 H         1 UNK         0.0000 
     67 H67        -0.1717   50.9286   26.8780 H         1 UNK         0.0000 
     68 H68        -0.4380   52.5672   27.5696 H         1 UNK         0.0000 
     69 H69         3.6229   51.4141   29.5748 H         1 UNK         0.0000 
     70 H70         3.5186   53.0486   30.2305 H         1 UNK         0.0000 
     71 H71         2.3313   51.8439   30.7057 H         1 UNK         0.0000 
     72 H72         3.0589   49.7373   18.7748 H         1 UNK         0.0000 
     73 H73         3.1032   48.3643   19.8398 H         1 UNK         0.0000 
     74 H74         1.6221   48.7498   19.0234 H         1 UNK         0.0000 
     75 H75         2.2664   53.7496   17.4742 H         1 UNK         0.0000 
@<TRIPOS>BOND
     1    1    2 1    
     2    1   38 1    
     3    1   39 1    
     4    1   40 1    
     5    2    3 1    
     6    2   41 1    
     7    2   42 1    
     8    3    4 1    
     9    3   43 1    
    10    3   44 1    
    11    4    5 1    
    12    4   45 1    
    13    4   46 1    
    14    5    6 1    
    15    5   47 1    
    16    6   10 1    
    17    6    7 2    
    18    7    8 1    
    19    7   75 1    
    20    8   21 1    
    21    8    9 2    
    22    9   10 1    
    23    9   11 1    
    24   11   12 1    
    25   11   48 1    
    26   11   49 1    
    27   12   19 1    
    28   12   13 1    
    29   12   37 1    
    30   13   14 1    
    31   13   50 1    
    32   13   51 1    
    33   14   15 1    
    34   14   52 1    
    35   14   53 1    
    36   15   16 1    
    37   15   17 1    
    38   15   25 1    
    39   17   18 1    
    40   17   19 1    
    41   17   24 1    
    42   19   20 1    
    43   19   21 1    
    44   21   22 1    
    45   21   23 1    
    46   23   54 1    
    47   23   55 1    
    48   23   56 1    
    49   24   57 1    
    50   25   26 1    
    51   25   27 1    
    52   25   28 1    
    53   27   58 1    
    54   27   59 1    
    55   27   60 1    
    56   28   29 2    
    57   28   30 am   BACKBONE|DICT|INTERRES
    58   30   35 1    
    59   30   31 1    
    60   31   32 1    
    61   31   61 1    
    62   31   62 1    
    63   32   33 1    
    64   32   63 1    
    65   32   64 1    
    66   33   34 1    
    67   33   36 1    
    68   34   35 1    
    69   34   65 1    
    70   34   66 1    
    71   35   67 1    
    72   35   68 1    
    73   36   69 1    
    74   36   70 1    
    75   36   71 1    
    76   37   72 1    
    77   37   73 1    
    78   37   74 1    
@<TRIPOS>SUBSTRUCTURE
     1 UNK         1 GROUP             0       ****    0 ROOT    
