@<TRIPOS>MOLECULE
ZINC39687146_4084
66   69    1
SMALL
USER_CHARGES


@<TRIPOS>ATOM
      1 C1         -4.9275   50.0441   23.2154 C.3       1 UNK         0.0000 
      2 C2         -5.1093   51.3788   23.9728 C.3       1 UNK         0.0000 
      3 H3         -5.5425   52.0966   23.2817 H         1 UNK         0.0000 
      4 C4         -6.1294   51.1956   25.1223 C.3       1 UNK         0.0000 
      5 C5         -6.7082   52.5060   25.6446 C.ar      1 UNK         0.0000 
      6 C6         -6.1393   53.1333   26.7577 C.ar      1 UNK         0.0000 
      7 C7         -6.6628   54.3369   27.2298 C.ar      1 UNK         0.0000 
      8 C8         -7.7688   54.9100   26.6042 C.ar      1 UNK         0.0000 
      9 C9         -8.3445   54.2866   25.4980 C.ar      1 UNK         0.0000 
     10 C10        -7.8179   53.0890   25.0180 C.ar      1 UNK         0.0000 
     11 F11        -8.3950   52.4915   23.9507 F         1 UNK         0.0000 
     12 N12        -3.8686   51.9816   24.4888 N.am      1 UNK         0.0000 
     13 C13        -2.6315   52.0217   23.9573 C.2       1 UNK         0.0000 
     14 O14        -2.3937   51.6507   22.8083 O.2       1 UNK         0.0000 
     15 C15        -1.5223   52.6303   24.8667 C.3       1 UNK         0.0000 
     16 H16        -2.0090   53.3561   25.5073 H         1 UNK         0.0000 
     17 C17        -0.4720   53.3000   23.9450 C.3       1 UNK         0.0000 
     18 N18         0.7847   53.2880   24.6962 N.am      1 UNK         0.0000 
     19 C19         0.6684   52.4601   25.8961 C.3       1 UNK         0.0000 
     20 C20        -0.6750   51.6904   25.7876 C.3       1 UNK         0.0000 
     21 C21        -1.2028   51.4648   27.2266 C.3       1 UNK         0.0000 
     22 C22        -2.5870   50.8182   27.2433 C.3       1 UNK         0.0000 
     23 N23        -2.5134   49.4786   26.4816 N.4       1 UNK         0.0000 
     24 C24        -1.6271   49.3310   25.2144 C.3       1 UNK         0.0000 
     25 C25        -0.3838   50.2572   25.2564 C.3       1 UNK         0.0000 
     26 C26         1.8913   53.9437   24.2431 C.2       1 UNK         0.0000 
     27 O27         1.8952   54.4913   23.1400 O.2       1 UNK         0.0000 
     28 C28         3.1488   54.0586   25.0897 C.ar      1 UNK         0.0000 
     29 C29         3.1037   54.2540   26.4782 C.ar      1 UNK         0.0000 
     30 C30         4.2593   54.4898   27.2179 C.ar      1 UNK         0.0000 
     31 C31         5.5080   54.4963   26.5818 C.ar      1 UNK         0.0000 
     32 C32         5.5750   54.2968   25.1993 C.ar      1 UNK         0.0000 
     33 C33         4.4045   54.0995   24.4629 C.ar      1 UNK         0.0000 
     34 Cl34        7.1031   54.2937   24.3878 Cl        1 UNK         0.0000 
     35 O35         6.6598   54.7596   27.2818 O.3       1 UNK         0.0000 
     36 C36         7.1049   53.6904   28.1042 C.3       1 UNK         0.0000 
     37 Cl37        4.0987   54.8420   28.9062 Cl        1 UNK         0.0000 
     38 H38        -5.8945   49.6474   22.9039 H         1 UNK         0.0000 
     39 H39        -4.3473   50.1585   22.3002 H         1 UNK         0.0000 
     40 H40        -4.4724   49.2784   23.8411 H         1 UNK         0.0000 
     41 H41        -5.6760   50.6399   25.9446 H         1 UNK         0.0000 
     42 H42        -6.9674   50.5764   24.7962 H         1 UNK         0.0000 
     43 H43        -5.2934   52.6910   27.2611 H         1 UNK         0.0000 
     44 H44        -6.2100   54.8258   28.0802 H         1 UNK         0.0000 
     45 H45        -8.1727   55.8437   26.9675 H         1 UNK         0.0000 
     46 H46        -9.1977   54.7295   25.0067 H         1 UNK         0.0000 
     47 H47        -3.9985   52.4904   25.3487 H         1 UNK         0.0000 
     48 H48        -0.2689   52.6985   23.0559 H         1 UNK         0.0000 
     49 H49        -0.7792   54.3113   23.6818 H         1 UNK         0.0000 
     50 H50         0.5498   53.1524   26.7278 H         1 UNK         0.0000 
     51 H51         1.5092   51.8074   26.1297 H         1 UNK         0.0000 
     52 H52        -0.4990   50.8883   27.8320 H         1 UNK         0.0000 
     53 H53        -1.2942   52.4240   27.7381 H         1 UNK         0.0000 
     54 H54        -2.8901   50.5469   28.2575 H         1 UNK         0.0000 
     55 H55        -3.3713   51.4267   26.8147 H         1 UNK         0.0000 
     56 H56        -2.0811   48.8682   27.1923 H         1 UNK         0.0000 
     57 H57        -1.3357   48.2798   25.1883 H         1 UNK         0.0000 
     58 H58        -2.2687   49.4960   24.3549 H         1 UNK         0.0000 
     59 H59         0.0586   50.3143   24.2599 H         1 UNK         0.0000 
     60 H60         0.3803   49.7729   25.8690 H         1 UNK         0.0000 
     61 H61         2.1646   54.3242   27.0007 H         1 UNK         0.0000 
     62 H62         4.4807   53.9757   23.3906 H         1 UNK         0.0000 
     63 H63         7.9049   54.0457   28.7535 H         1 UNK         0.0000 
     64 H64         6.3256   53.2853   28.7492 H         1 UNK         0.0000 
     65 H65         7.5031   52.8810   27.4927 H         1 UNK         0.0000 
     66 H66        -3.4328   49.0871   26.3367 H         1 UNK         0.0000 
@<TRIPOS>BOND
     1    1    2 1    
     2    1   38 1    
     3    1   39 1    
     4    1   40 1    
     5    2    3 1    
     6    2    4 1    
     7    2   12 1    
     8    4    5 1    
     9    4   41 1    
    10    4   42 1    
    11    5   10 ar   
    12    5    6 ar   
    13    6    7 ar   
    14    6   43 1    
    15    7    8 ar   
    16    7   44 1    
    17    8    9 ar   
    18    8   45 1    
    19    9   10 ar   
    20    9   46 1    
    21   10   11 1    
    22   12   13 am   BACKBONE|DICT|INTERRES
    23   12   47 1    
    24   13   14 2    
    25   13   15 1    
    26   15   16 1    
    27   15   20 1    
    28   15   17 1    
    29   17   18 1    
    30   17   48 1    
    31   17   49 1    
    32   18   19 1    
    33   18   26 am   BACKBONE|DICT|INTERRES
    34   19   20 1    
    35   19   50 1    
    36   19   51 1    
    37   20   25 1    
    38   20   21 1    
    39   21   22 1    
    40   21   52 1    
    41   21   53 1    
    42   22   23 1    
    43   22   54 1    
    44   22   55 1    
    45   23   24 1    
    46   23   56 1    
    47   23   66 1    
    48   24   25 1    
    49   24   57 1    
    50   24   58 1    
    51   25   59 1    
    52   25   60 1    
    53   26   27 2    
    54   26   28 1    
    55   28   33 ar   
    56   28   29 ar   
    57   29   30 ar   
    58   29   61 1    
    59   30   31 ar   
    60   30   37 1    
    61   31   32 ar   
    62   31   35 1    
    63   32   33 ar   
    64   32   34 1    
    65   33   62 1    
    66   35   36 1    
    67   36   63 1    
    68   36   64 1    
    69   36   65 1    
@<TRIPOS>SUBSTRUCTURE
     1 UNK         1 GROUP             0       ****    0 ROOT    
