ZINC35303103_4944
                    3D
 Schrodinger Suite 2024-2.
 56 60  0  0  1  0            999 V2000
    9.9365   59.0246   17.9659 C   0  0  0  0  0  0
    8.6617   59.5548   17.8272 C   0  0  0  0  0  0
    7.5497   58.7236   17.8520 C   0  0  0  0  0  0
    7.6959   57.3308   18.0334 C   0  0  0  0  0  0
    9.0079   56.8068   18.1210 C   0  0  0  0  0  0
   10.1075   57.6548   18.1075 C   0  0  0  0  0  0
    6.4555   56.4368   17.9226 C   0  0  0  0  0  0
    6.3306   55.1211   18.7592 C   0  0  2  0  0  0
    5.3457   54.6941   18.5554 H   0  0  0  0  0  0
    6.4644   55.2969   20.2906 C   0  0  0  0  0  0
    7.3272   56.0591   20.7331 O   0  0  0  0  0  0
    5.6275   54.5561   21.0589 N   0  0  0  0  0  0
    5.6741   54.4941   22.4484 C   0  0  0  0  0  0
    6.7044   54.7777   23.2140 N   0  0  0  0  0  0
    6.4063   54.7174   24.5662 N   0  0  0  0  0  0
    5.1554   54.3954   24.8061 C   0  0  0  0  0  0
    4.2352   54.0966   23.3424 S   0  0  0  0  0  0
    4.5666   54.3095   26.1855 C   0  0  0  0  0  0
    5.4024   54.4719   27.3148 C   0  0  0  0  0  0
    4.8888   54.4361   28.6175 C   0  0  0  0  0  0
    3.5254   54.2179   28.7649 C   0  0  0  0  0  0
    2.7051   54.0548   27.6861 C   0  0  0  0  0  0
    3.1880   54.0960   26.3818 C   0  0  0  0  0  0
    1.4238   53.9079   28.1147 O   0  0  0  0  0  0
    1.5035   53.7637   29.5082 C   0  0  0  0  0  0
    2.7888   54.1665   29.9063 O   0  0  0  0  0  0
    7.2971   54.1091   18.3156 N   0  0  0  0  0  0
    7.2720   53.4373   17.1526 C   0  0  0  0  0  0
    6.3894   53.5834   16.3083 O   0  0  0  0  0  0
    8.3320   52.6087   17.0580 N   0  0  0  0  0  0
    8.7075   51.7362   16.0183 C   0  0  0  0  0  0
    9.7694   50.8726   16.3035 C   0  0  0  0  0  0
   10.2278   49.9794   15.3385 C   0  0  0  0  0  0
    9.6268   49.9509   14.0817 C   0  0  0  0  0  0
    8.5694   50.8070   13.7837 C   0  0  0  0  0  0
    8.1073   51.7000   14.7485 C   0  0  0  0  0  0
   10.7993   59.6731   17.9420 H   0  0  0  0  0  0
    8.5210   60.6157   17.6800 H   0  0  0  0  0  0
    6.5694   59.1606   17.7197 H   0  0  0  0  0  0
    9.1868   55.7487   18.2091 H   0  0  0  0  0  0
   11.1013   57.2410   18.2008 H   0  0  0  0  0  0
    6.3421   56.2046   16.8629 H   0  0  0  0  0  0
    5.5903   57.0562   18.1649 H   0  0  0  0  0  0
    4.9064   54.0183   20.6005 H   0  0  0  0  0  0
    6.4618   54.6431   27.1915 H   0  0  0  0  0  0
    5.5389   54.5874   29.4659 H   0  0  0  0  0  0
    2.5124   53.9785   25.5484 H   0  0  0  0  0  0
    1.3556   52.7129   29.7666 H   0  0  0  0  0  0
    0.7399   54.3693   29.9979 H   0  0  0  0  0  0
    8.0699   53.9614   18.9461 H   0  0  0  0  0  0
    8.9443   52.5720   17.8573 H   0  0  0  0  0  0
   10.2488   50.8882   17.2726 H   0  0  0  0  0  0
   11.0500   49.3149   15.5602 H   0  0  0  0  0  0
    9.9929   49.2661   13.3290 H   0  0  0  0  0  0
    8.1115   50.7803   12.8058 H   0  0  0  0  0  0
    7.2924   52.3548   14.4839 H   0  0  0  0  0  0
  1  6  2  0  0  0
  1  2  1  0  0  0
  1 37  1  0  0  0
  2  3  2  0  0  0
  2 38  1  0  0  0
  3  4  1  0  0  0
  3 39  1  0  0  0
  4  5  2  0  0  0
  4  7  1  0  0  0
  5  6  1  0  0  0
  5 40  1  0  0  0
  6 41  1  0  0  0
  7  8  1  0  0  0
  7 42  1  0  0  0
  7 43  1  0  0  0
  8  9  1  0  0  0
  8 10  1  0  0  0
  8 27  1  0  0  0
 10 11  2  0  0  0
 10 12  1  0  0  0
 12 13  1  0  0  0
 12 44  1  0  0  0
 13 17  1  0  0  0
 13 14  2  0  0  0
 14 15  1  0  0  0
 15 16  2  0  0  0
 16 17  1  0  0  0
 16 18  1  0  0  0
 18 23  2  0  0  0
 18 19  1  0  0  0
 19 20  2  0  0  0
 19 45  1  0  0  0
 20 21  1  0  0  0
 20 46  1  0  0  0
 21 26  1  0  0  0
 21 22  2  0  0  0
 22 23  1  0  0  0
 22 24  1  0  0  0
 23 47  1  0  0  0
 24 25  1  0  0  0
 25 26  1  0  0  0
 25 48  1  0  0  0
 25 49  1  0  0  0
 27 28  1  0  0  0
 27 50  1  0  0  0
 28 29  2  0  0  0
 28 30  1  0  0  0
 30 31  1  0  0  0
 30 51  1  0  0  0
 31 36  2  0  0  0
 31 32  1  0  0  0
 32 33  2  0  0  0
 32 52  1  0  0  0
 33 34  1  0  0  0
 33 53  1  0  0  0
 34 35  2  0  0  0
 34 54  1  0  0  0
 35 36  1  0  0  0
 35 55  1  0  0  0
 36 56  1  0  0  0
M  END
> <i_i_glide_confnum>
124

> <i_i_glide_lignum>
4945

> <i_i_glide_posenum>
229

> <i_i_glide_rotatable_bonds>
10

> <i_m_Source_File_Index>
3726

> <b_m_subgroup_collapsed>
0

> <r_i_docking_score>
-6.26545

> <r_i_glide_ecoul>
-5.03899

> <r_i_glide_eff_state_penalty>
0

> <r_i_glide_einternal>
10.879

> <r_i_glide_emodel>
-71.2236

> <r_i_glide_energy>
-54.8541

> <r_i_glide_erotb>
0.684262

> <r_i_glide_esite>
-0.0156365

> <r_i_glide_evdw>
-49.8151

> <r_i_glide_gscore>
-6.26545

> <r_i_glide_hbond>
-0.397747

> <r_i_glide_ligand_efficiency>
-0.179013

> <r_i_glide_ligand_efficiency_ln>
-1.3754

> <r_i_glide_ligand_efficiency_sa>
-0.585563

> <r_i_glide_lipo>
-2.6979

> <r_i_glide_metal>
0

> <r_i_glide_rewards>
-0.591818

> <s_i_glide_gridfile>
wee1_glide-grid

> <s_m_Source_File>
wee1_decoys_glide_SP.sdf

> <s_m_Source_Path>
/Users/zhangxujun/Desktop

> <s_m_entry_id>
4001

> <s_m_entry_name>
wee1_decoys_glide_SP.3726

> <s_m_subgroup_title>
wee1_decoys_glide_SP

> <s_m_subgroupid>
wee1_decoys_glide_SP


$$$$
