ZINC51090836_4698
                    3D
 Schrodinger Suite 2024-2.
 42 44  0  0  1  0            999 V2000
    5.0218   53.5969   22.4883 C   0  0  0  0  0  0
    5.8922   54.5015   23.1143 C   0  0  0  0  0  0
    6.6990   55.3073   22.2946 C   0  0  0  0  0  0
    6.5255   55.2737   20.9094 C   0  0  0  0  0  0
    5.6523   54.4214   20.3114 N   0  0  0  0  0  0
    4.9217   53.5823   21.0978 C   0  0  0  0  0  0
    4.0816   52.6313   20.5014 N   0  0  0  0  0  0
    3.9044   52.4967   19.0691 N   0  0  0  0  0  0
    7.4665   56.3264   19.9213 Cl  0  0  0  0  0  0
    5.9971   54.6257   24.6215 C   0  0  0  0  0  0
    7.1044   54.8516   25.1058 O   0  0  0  0  0  0
    4.8969   54.5208   25.4183 N   0  0  0  0  0  0
    3.5044   54.6651   24.9576 C   0  0  0  0  0  0
    2.6659   53.4971   25.5231 C   0  0  0  0  0  0
    2.8272   53.2966   27.0490 C   0  0  2  0  0  0
    2.4493   52.3031   27.3001 H   0  0  0  0  0  0
    2.0683   54.3312   27.9243 C   0  0  0  0  0  0
    2.2773   54.0855   29.4319 C   0  0  0  0  0  0
    3.7777   54.0273   29.7921 C   0  0  0  0  0  0
    4.5277   53.0157   28.9150 C   0  0  0  0  0  0
    4.3342   53.3064   27.4189 C   0  0  2  0  0  0
    4.8150   52.4966   26.8845 H   0  0  0  0  0  0
    5.0652   54.5489   26.8889 C   0  0  0  0  0  0
    4.4346   52.9007   23.0686 H   0  0  0  0  0  0
    7.4157   55.9915   22.7261 H   0  0  0  0  0  0
    3.2667   52.3010   21.0020 H   0  0  0  0  0  0
    3.9413   53.4081   18.6326 H   0  0  0  0  0  0
    4.6012   51.8478   18.6868 H   0  0  0  0  0  0
    3.1414   55.5936   25.3897 H   0  0  0  0  0  0
    3.3817   54.7770   23.8817 H   0  0  0  0  0  0
    1.6149   53.6481   25.2747 H   0  0  0  0  0  0
    2.9452   52.5798   25.0042 H   0  0  0  0  0  0
    2.3927   55.3429   27.6817 H   0  0  0  0  0  0
    1.0058   54.3171   27.6814 H   0  0  0  0  0  0
    1.7957   53.1482   29.7163 H   0  0  0  0  0  0
    1.7834   54.8677   30.0101 H   0  0  0  0  0  0
    3.9058   53.7460   30.8373 H   0  0  0  0  0  0
    4.2250   55.0166   29.6815 H   0  0  0  0  0  0
    4.1724   52.0098   29.1430 H   0  0  0  0  0  0
    5.5890   53.0248   29.1592 H   0  0  0  0  0  0
    6.1091   54.5065   27.2067 H   0  0  0  0  0  0
    4.6413   55.4555   27.3109 H   0  0  0  0  0  0
  1  6  2  0  0  0
  1  2  1  0  0  0
  1 24  1  0  0  0
  2  3  2  0  0  0
  2 10  1  0  0  0
  3  4  1  0  0  0
  3 25  1  0  0  0
  4  5  2  0  0  0
  4  9  1  0  0  0
  5  6  1  0  0  0
  6  7  1  0  0  0
  7  8  1  0  0  0
  7 26  1  0  0  0
  8 27  1  0  0  0
  8 28  1  0  0  0
 10 11  2  0  0  0
 10 12  1  0  0  0
 12 23  1  0  0  0
 12 13  1  0  0  0
 13 14  1  0  0  0
 13 29  1  0  0  0
 13 30  1  0  0  0
 14 15  1  0  0  0
 14 31  1  0  0  0
 14 32  1  0  0  0
 15 16  1  0  0  0
 15 21  1  0  0  0
 15 17  1  0  0  0
 17 18  1  0  0  0
 17 33  1  0  0  0
 17 34  1  0  0  0
 18 19  1  0  0  0
 18 35  1  0  0  0
 18 36  1  0  0  0
 19 20  1  0  0  0
 19 37  1  0  0  0
 19 38  1  0  0  0
 20 21  1  0  0  0
 20 39  1  0  0  0
 20 40  1  0  0  0
 21 22  1  0  0  0
 21 23  1  0  0  0
 23 41  1  0  0  0
 23 42  1  0  0  0
M  END
> <i_i_glide_confnum>
1

> <i_i_glide_lignum>
4699

> <i_i_glide_posenum>
304

> <i_i_glide_rotatable_bonds>
3

> <i_m_Source_File_Index>
2690

> <b_m_subgroup_collapsed>
0

> <r_i_docking_score>
-6.95439

> <r_i_glide_ecoul>
-4.15933

> <r_i_glide_eff_state_penalty>
0

> <r_i_glide_einternal>
0.254895

> <r_i_glide_emodel>
-52.5674

> <r_i_glide_energy>
-37.1472

> <r_i_glide_erotb>
0.388144

> <r_i_glide_esite>
-0.00898336

> <r_i_glide_evdw>
-32.9879

> <r_i_glide_gscore>
-6.95439

> <r_i_glide_hbond>
-0.432669

> <r_i_glide_ligand_efficiency>
-0.331162

> <r_i_glide_ligand_efficiency_ln>
-1.71946

> <r_i_glide_ligand_efficiency_sa>
-0.91365

> <r_i_glide_lipo>
-2.48377

> <r_i_glide_metal>
0

> <r_i_glide_rewards>
-2.14382

> <s_i_glide_gridfile>
wee1_glide-grid

> <s_m_Source_File>
wee1_decoys_glide_SP.sdf

> <s_m_Source_Path>
/Users/zhangxujun/Desktop

> <s_m_entry_id>
2965

> <s_m_entry_name>
wee1_decoys_glide_SP.2690

> <s_m_subgroup_title>
wee1_decoys_glide_SP

> <s_m_subgroupid>
wee1_decoys_glide_SP


$$$$
