@<TRIPOS>MOLECULE
ZINC13261136_3302
47   49    1
SMALL
USER_CHARGES


@<TRIPOS>ATOM
      1 C1          1.2016   55.5883   28.9302 C.3       1 UNK         0.0000 
      2 O2          0.4275   54.4960   29.4190 O.3       1 UNK         0.0000 
      3 C3          0.5502   53.3285   28.7046 C.ar      1 UNK         0.0000 
      4 C4         -0.4825   53.0188   27.8157 C.ar      1 UNK         0.0000 
      5 C5         -0.4724   51.8544   27.0475 C.ar      1 UNK         0.0000 
      6 C6          0.5877   50.9656   27.1904 C.ar      1 UNK         0.0000 
      7 C7          1.5825   51.2410   28.1244 C.ar      1 UNK         0.0000 
      8 C8          1.6015   52.4095   28.8989 C.ar      1 UNK         0.0000 
      9 C9          2.7177   52.6263   29.8867 C.2       1 UNK         0.0000 
     10 O10         3.5269   51.6962   30.0816 O.co2     1 UNK         0.0000 
     11 Cl11        0.7019   49.5400   26.1992 Cl        1 UNK         0.0000 
     12 N12        -1.4241   51.5344   26.0732 N.am      1 UNK         0.0000 
     13 C13        -2.6246   52.0681   25.7818 C.2       1 UNK         0.0000 
     14 O14        -3.2111   52.8960   26.4786 O.2       1 UNK         0.0000 
     15 C15        -3.2926   51.5575   24.4806 C.3       1 UNK         0.0000 
     16 H16        -3.4531   52.4574   23.8850 H         1 UNK         0.0000 
     17 C17        -4.6262   50.8368   24.7786 C.3       1 UNK         0.0000 
     18 C18        -4.6232   49.6059   23.8926 C.3       1 UNK         0.0000 
     19 C19        -3.1548   49.2075   23.8370 C.3       1 UNK         0.0000 
     20 N20        -2.4779   50.5256   23.7387 N.pl3     1 UNK         0.0000 
     21 S21        -1.6103   50.9534   22.2427 S.o2      1 UNK         0.0000 
     22 O22        -1.2206   49.7077   21.5726 O.2       1 UNK         0.0000 
     23 O23        -2.4094   51.9539   21.5277 O.2       1 UNK         0.0000 
     24 C24        -0.0848   51.7751   22.7184 C.ar      1 UNK         0.0000 
     25 C25         1.1406   51.3441   22.1990 C.ar      1 UNK         0.0000 
     26 C26         2.3044   52.0573   22.4824 C.ar      1 UNK         0.0000 
     27 C27         2.2482   53.1845   23.3019 C.ar      1 UNK         0.0000 
     28 C28         1.0361   53.5957   23.8467 C.ar      1 UNK         0.0000 
     29 C29        -0.1294   52.8967   23.5448 C.ar      1 UNK         0.0000 
     30 Cl30        3.6774   54.0959   23.6317 Cl        1 UNK         0.0000 
     31 H31         1.2909   56.3462   29.7088 H         1 UNK         0.0000 
     32 H32         2.2109   55.3159   28.6148 H         1 UNK         0.0000 
     33 H33         0.7045   56.0492   28.0817 H         1 UNK         0.0000 
     34 H34        -1.2577   53.7499   27.6806 H         1 UNK         0.0000 
     35 H35         2.3418   50.4971   28.2571 H         1 UNK         0.0000 
     36 H36        -1.1491   50.7568   25.4915 H         1 UNK         0.0000 
     37 H37        -4.7184   50.5336   25.8247 H         1 UNK         0.0000 
     38 H38        -5.4840   51.4747   24.5580 H         1 UNK         0.0000 
     39 H39        -5.2563   48.8072   24.2808 H         1 UNK         0.0000 
     40 H40        -4.9853   49.8485   22.8910 H         1 UNK         0.0000 
     41 H41        -2.8696   48.7340   24.7794 H         1 UNK         0.0000 
     42 H42        -2.8455   48.4875   23.0789 H         1 UNK         0.0000 
     43 H43         1.1942   50.4821   21.5489 H         1 UNK         0.0000 
     44 H44         3.2474   51.7425   22.0596 H         1 UNK         0.0000 
     45 H45         0.9942   54.4706   24.4807 H         1 UNK         0.0000 
     46 H46        -1.0688   53.2738   23.9147 H         1 UNK         0.0000 
     47 O47         2.8179   53.7169   30.4815 O.co2     1 UNK         0.0000 
@<TRIPOS>BOND
     1    1    2 1    
     2    1   31 1    
     3    1   32 1    
     4    1   33 1    
     5    2    3 1    
     6    3    8 ar   
     7    3    4 ar   
     8    4    5 ar   
     9    4   34 1    
    10    5    6 ar   
    11    5   12 1    
    12    6    7 ar   
    13    6   11 1    
    14    7    8 ar   
    15    7   35 1    
    16    8    9 1    
    17    9   10 2    
    18    9   47 1    
    19   12   13 am   BACKBONE|DICT|INTERRES
    20   12   36 1    
    21   13   14 2    
    22   13   15 1    
    23   15   16 1    
    24   15   20 1    
    25   15   17 1    
    26   17   18 1    
    27   17   37 1    
    28   17   38 1    
    29   18   19 1    
    30   18   39 1    
    31   18   40 1    
    32   19   20 1    
    33   19   41 1    
    34   19   42 1    
    35   20   21 1    
    36   21   22 2    
    37   21   23 2    
    38   21   24 1    
    39   24   29 ar   
    40   24   25 ar   
    41   25   26 ar   
    42   25   43 1    
    43   26   27 ar   
    44   26   44 1    
    45   27   28 ar   
    46   27   30 1    
    47   28   29 ar   
    48   28   45 1    
    49   29   46 1    
@<TRIPOS>SUBSTRUCTURE
     1 UNK         1 GROUP             0       ****    0 ROOT    
