@<TRIPOS>MOLECULE
ZINC32091766_1922
28   30    1
SMALL
USER_CHARGES


@<TRIPOS>ATOM
      1 C1          2.7425   52.8413   28.0334 C.ar      1 UNK         0.0000 
      2 C2          2.0778   52.4507   29.1891 C.ar      1 UNK         0.0000 
      3 C3          1.5222   53.4199   30.0181 C.ar      1 UNK         0.0000 
      4 C4          1.5862   54.7696   29.6829 C.ar      1 UNK         0.0000 
      5 C5          2.2487   55.1559   28.5234 C.ar      1 UNK         0.0000 
      6 C6          2.8447   54.1923   27.7014 C.ar      1 UNK         0.0000 
      7 C7          3.6511   54.6237   26.4790 C.3       1 UNK         0.0000 
      8 H8          3.5182   55.6965   26.3935 H         1 UNK         0.0000 
      9 C9          5.1813   54.3412   26.6230 C.3       1 UNK         0.0000 
     10 C10         5.9898   54.7916   25.3714 C.2       1 UNK         0.0000 
     11 O11         7.1043   55.2978   25.4346 O.2       1 UNK         0.0000 
     12 N12         5.3924   54.4967   24.1925 N.am      1 UNK         0.0000 
     13 C13         4.0834   54.0817   24.0579 C.2       1 UNK         0.0000 
     14 C14         3.2230   54.0464   25.1447 C.2       1 UNK         0.0000 
     15 S15         1.6948   53.3973   24.6333 S.3       1 UNK         0.0000 
     16 C16         2.3597   53.2845   23.0303 C.2       1 UNK         0.0000 
     17 N17         3.5990   53.6920   22.8966 N.2       1 UNK         0.0000 
     18 N18         1.5990   52.7885   22.0163 N.pl3     1 UNK         0.0000 
     19 Br19        0.7044   52.8969   31.6460 Br        1 UNK         0.0000 
     20 H20         3.1896   52.0970   27.3964 H         1 UNK         0.0000 
     21 H21         2.0048   51.4041   29.4447 H         1 UNK         0.0000 
     22 H22         1.1423   55.5132   30.3297 H         1 UNK         0.0000 
     23 H23         2.3043   56.2059   28.2808 H         1 UNK         0.0000 
     24 H24         5.5866   54.8363   27.5066 H         1 UNK         0.0000 
     25 H25         5.3636   53.2716   26.7382 H         1 UNK         0.0000 
     26 H26         5.9408   54.7326   23.3794 H         1 UNK         0.0000 
     27 H27         0.7032   52.3546   22.1825 H         1 UNK         0.0000 
     28 H28         1.9452   52.7753   21.0664 H         1 UNK         0.0000 
@<TRIPOS>BOND
     1    1    6 ar   
     2    1    2 ar   
     3    1   20 1    
     4    2    3 ar   
     5    2   21 1    
     6    3    4 ar   
     7    3   19 1    
     8    4    5 ar   
     9    4   22 1    
    10    5    6 ar   
    11    5   23 1    
    12    6    7 1    
    13    7    8 1    
    14    7   14 1    
    15    7    9 1    
    16    9   10 1    
    17    9   24 1    
    18    9   25 1    
    19   10   11 2    
    20   10   12 am   BACKBONE|DICT|INTERRES
    21   12   13 1    
    22   12   26 1    
    23   13   17 1    
    24   13   14 2    
    25   14   15 1    
    26   15   16 1    
    27   16   17 2    
    28   16   18 1    
    29   18   27 1    
    30   18   28 1    
@<TRIPOS>SUBSTRUCTURE
     1 UNK         1 GROUP             0       ****    0 ROOT    
