@<TRIPOS>MOLECULE
ZINC07763029_3866
34   36    1
SMALL
USER_CHARGES


@<TRIPOS>ATOM
      1 C1          6.1681   54.8968   27.2818 C.3       1 UNK         0.0000 
      2 C2          4.7834   54.2979   27.2314 C.ar      1 UNK         0.0000 
      3 C3          3.9917   53.9942   28.3159 C.ar      1 UNK         0.0000 
      4 C4          2.7895   53.4510   27.8868 C.ar      1 UNK         0.0000 
      5 C5          2.8662   53.4024   26.4884 C.ar      1 UNK         0.0000 
      6 N6          4.0766   53.9801   26.0723 N.pl3     1 UNK         0.0000 
      7 C7          4.5200   54.1736   24.7192 C.ar      1 UNK         0.0000 
      8 C8          3.5947   54.4255   23.6946 C.ar      1 UNK         0.0000 
      9 C9          4.0034   54.4967   22.3682 C.ar      1 UNK         0.0000 
     10 C10         5.3541   54.4183   22.0516 C.ar      1 UNK         0.0000 
     11 C11         6.2976   54.2330   23.0559 C.ar      1 UNK         0.0000 
     12 C12         5.8806   54.0965   24.3744 C.ar      1 UNK         0.0000 
     13 Br13        5.9041   54.5851   20.2384 Br        1 UNK         0.0000 
     14 C14         1.8640   52.7855   25.5180 C.3       1 UNK         0.0000 
     15 C15         1.7120   52.9967   28.7822 C.2       1 UNK         0.0000 
     16 C16         0.4256   52.6370   28.3752 C.2       1 UNK         0.0000 
     17 S17        -0.4981   52.0969   29.7280 S.3       1 UNK         0.0000 
     18 C18         0.8383   52.4967   30.7328 C.2       1 UNK         0.0000 
     19 N19         1.9012   52.9214   30.0962 N.2       1 UNK         0.0000 
     20 N20         0.7045   52.3432   32.0817 N.pl3     1 UNK         0.0000 
     21 H21         6.3044   55.3680   28.2499 H         1 UNK         0.0000 
     22 H22         6.9581   54.1507   27.1957 H         1 UNK         0.0000 
     23 H23         6.3291   55.6833   26.5434 H         1 UNK         0.0000 
     24 H24         4.2741   54.1519   29.3465 H         1 UNK         0.0000 
     25 H25         2.5451   54.5636   23.8968 H         1 UNK         0.0000 
     26 H26         3.2708   54.6410   21.5929 H         1 UNK         0.0000 
     27 H27         7.3494   54.1675   22.8233 H         1 UNK         0.0000 
     28 H28         6.6436   53.8596   25.0941 H         1 UNK         0.0000 
     29 H29         1.3794   51.9109   25.9472 H         1 UNK         0.0000 
     30 H30         1.0791   53.4840   25.2296 H         1 UNK         0.0000 
     31 H31         2.3214   52.3893   24.6127 H         1 UNK         0.0000 
     32 H32        -0.0193   52.6356   27.3943 H         1 UNK         0.0000 
     33 H33         1.4509   52.4966   32.7446 H         1 UNK         0.0000 
     34 H34        -0.2173   52.0968   32.4822 H         1 UNK         0.0000 
@<TRIPOS>BOND
     1    1    2 1    
     2    1   21 1    
     3    1   22 1    
     4    1   23 1    
     5    2    6 ar   
     6    2    3 ar   
     7    3    4 ar   
     8    3   24 1    
     9    4    5 ar   
    10    4   15 1    
    11    5    6 ar   
    12    5   14 1    
    13    6    7 1    
    14    7   12 ar   
    15    7    8 ar   
    16    8    9 ar   
    17    8   25 1    
    18    9   10 ar   
    19    9   26 1    
    20   10   11 ar   
    21   10   13 1    
    22   11   12 ar   
    23   11   27 1    
    24   12   28 1    
    25   14   29 1    
    26   14   30 1    
    27   14   31 1    
    28   15   19 1    
    29   15   16 2    
    30   16   17 1    
    31   16   32 1    
    32   17   18 1    
    33   18   19 2    
    34   18   20 1    
    35   20   33 1    
    36   20   34 1    
@<TRIPOS>SUBSTRUCTURE
     1 UNK         1 GROUP             0       ****    0 ROOT    
