@<TRIPOS>MOLECULE
ZINC15636939_2353
45   46    1
SMALL
USER_CHARGES


@<TRIPOS>ATOM
      1 C1          3.0349   51.3948   20.9002 C.3       1 UNK         0.0000 
      2 C2          2.4119   50.0366   20.5311 C.3       1 UNK         0.0000 
      3 C3          2.1132   49.0998   21.7257 C.3       1 UNK         0.0000 
      4 C4          0.9029   49.5145   22.5795 C.2       1 UNK         0.0000 
      5 O5         -0.1565   48.8972   22.4967 O.2       1 UNK         0.0000 
      6 N6          1.0714   50.5860   23.3704 N.am      1 UNK         0.0000 
      7 C7          0.0477   51.2809   24.1678 C.3       1 UNK         0.0000 
      8 H8         -0.7596   50.5805   24.4020 H         1 UNK         0.0000 
      9 C9         -0.5280   52.5019   23.3546 C.3       1 UNK         0.0000 
     10 Cl10        0.7050   53.7892   23.2816 Cl        1 UNK         0.0000 
     11 Cl11       -0.9880   52.0648   21.6811 Cl        1 UNK         0.0000 
     12 Cl12       -1.9999   53.1861   24.0843 Cl        1 UNK         0.0000 
     13 N13         0.7274   51.6977   25.4079 N.pl3     1 UNK         0.0000 
     14 C14         0.2267   51.9989   26.6434 C.2       1 UNK         0.0000 
     15 S15        -1.3195   51.6965   27.1644 S.2       1 UNK         0.0000 
     16 N16         1.0899   52.5484   27.5558 N.pl3     1 UNK         0.0000 
     17 C17         2.3766   53.0563   27.3178 C.2       1 UNK         0.0000 
     18 C18         3.4618   53.0874   28.2067 C.2       1 UNK         0.0000 
     19 C19         4.6086   53.7003   27.6390 C.2       1 UNK         0.0000 
     20 C20         4.4058   54.0947   26.3144 C.2       1 UNK         0.0000 
     21 S21         2.7971   53.8175   25.8060 S.3       1 UNK         0.0000 
     22 C22         5.4633   54.6179   25.3589 C.3       1 UNK         0.0000 
     23 C23         6.6877   55.0917   26.1554 C.3       1 UNK         0.0000 
     24 C24         7.0841   54.1102   27.2713 C.3       1 UNK         0.0000 
     25 C25         5.9685   53.8661   28.3112 C.3       1 UNK         0.0000 
     26 C26         3.4330   52.5373   29.5582 C.1       1 UNK         0.0000 
     27 N27         3.4136   52.0993   30.6290 N.1       1 UNK         0.0000 
     28 H28         3.3413   51.9304   19.9999 H         1 UNK         0.0000 
     29 H29         2.3309   52.0382   21.4301 H         1 UNK         0.0000 
     30 H30         3.9218   51.2718   21.5215 H         1 UNK         0.0000 
     31 H31         3.1044   49.5270   19.8574 H         1 UNK         0.0000 
     32 H32         1.5084   50.1967   19.9377 H         1 UNK         0.0000 
     33 H33         2.9917   48.9778   22.3614 H         1 UNK         0.0000 
     34 H34         1.9121   48.1129   21.3060 H         1 UNK         0.0000 
     35 H35         1.9472   51.0735   23.2671 H         1 UNK         0.0000 
     36 H36         1.6728   52.0133   25.2530 H         1 UNK         0.0000 
     37 H37         0.8356   52.4270   28.5270 H         1 UNK         0.0000 
     38 H38         5.0846   55.4252   24.7317 H         1 UNK         0.0000 
     39 H39         5.7661   53.8147   24.6841 H         1 UNK         0.0000 
     40 H40         6.5025   56.0737   26.5866 H         1 UNK         0.0000 
     41 H41         7.5046   55.2253   25.4486 H         1 UNK         0.0000 
     42 H42         7.9519   54.4968   27.7980 H         1 UNK         0.0000 
     43 H43         7.3825   53.1582   26.8308 H         1 UNK         0.0000 
     44 H44         6.2185   52.9760   28.8819 H         1 UNK         0.0000 
     45 H45         5.9236   54.6927   29.0213 H         1 UNK         0.0000 
@<TRIPOS>BOND
     1    1    2 1    
     2    1   28 1    
     3    1   29 1    
     4    1   30 1    
     5    2    3 1    
     6    2   31 1    
     7    2   32 1    
     8    3    4 1    
     9    3   33 1    
    10    3   34 1    
    11    4    5 2    
    12    4    6 am   BACKBONE|DICT|INTERRES
    13    6    7 1    
    14    6   35 1    
    15    7    8 1    
    16    7    9 1    
    17    7   13 1    
    18    9   10 1    
    19    9   11 1    
    20    9   12 1    
    21   13   14 1    
    22   13   36 1    
    23   14   15 2    
    24   14   16 1    
    25   16   17 1    
    26   16   37 1    
    27   17   21 1    
    28   17   18 2    
    29   18   19 1    
    30   18   26 1    
    31   19   25 1    
    32   19   20 2    
    33   20   21 1    
    34   20   22 1    
    35   22   23 1    
    36   22   38 1    
    37   22   39 1    
    38   23   24 1    
    39   23   40 1    
    40   23   41 1    
    41   24   25 1    
    42   24   42 1    
    43   24   43 1    
    44   25   44 1    
    45   25   45 1    
    46   26   27 3    
@<TRIPOS>SUBSTRUCTURE
     1 UNK         1 GROUP             0       ****    0 ROOT    
