ZINC35734075_1575
                    3D
 Schrodinger Suite 2024-2.
 39 41  0  0  1  0            999 V2000
    0.4113   53.0920   30.9536 C   0  0  0  0  0  0
    0.4612   53.2279   29.4227 C   0  0  2  0  0  0
   -0.3515   53.8922   29.1260 H   0  0  0  0  0  0
    0.2394   51.8854   28.6876 C   0  0  0  0  0  0
   -0.9943   51.6760   27.8389 C   0  0  0  0  0  0
    0.3619   51.7935   27.1823 C   0  0  0  0  0  0
    1.7054   53.9093   28.9911 N   0  0  0  0  0  0
    3.2757   53.1553   29.2815 S   0  0  0  0  0  0
    3.8436   53.7695   30.4817 O   0  0  0  0  0  0
    3.1383   51.6986   29.1929 O   0  0  0  0  0  0
    4.2889   53.6862   27.9117 C   0  0  0  0  0  0
    5.6072   54.0893   28.1278 C   0  0  0  0  0  0
    6.4085   54.4930   27.0640 C   0  0  0  0  0  0
    5.8924   54.4966   25.7473 C   0  0  0  0  0  0
    4.5396   54.0966   25.5276 C   0  0  0  0  0  0
    3.7490   53.6969   26.6272 C   0  0  0  0  0  0
    4.0505   54.0966   24.1998 C   0  0  0  0  0  0
    4.9054   54.4533   23.1621 C   0  0  0  0  0  0
    6.2121   54.8449   23.4609 C   0  0  0  0  0  0
    6.7044   54.8747   24.7230 N   0  0  0  0  0  0
    7.1046   55.2976   22.4882 N   0  0  0  0  0  0
    6.8219   55.3311   21.0627 N   0  0  0  0  0  0
   -0.5133   52.6138   31.2755 H   0  0  0  0  0  0
    1.2323   52.4846   31.3355 H   0  0  0  0  0  0
    0.4610   54.0641   31.4440 H   0  0  0  0  0  0
    0.6111   51.0307   29.2546 H   0  0  0  0  0  0
   -1.6961   52.4929   27.6817 H   0  0  0  0  0  0
   -1.4868   50.7028   27.8757 H   0  0  0  0  0  0
    0.8265   50.9024   26.7586 H   0  0  0  0  0  0
    0.5833   52.6930   26.6090 H   0  0  0  0  0  0
    1.7110   54.8597   29.3670 H   0  0  0  0  0  0
    6.0215   54.0942   29.1255 H   0  0  0  0  0  0
    7.4287   54.7966   27.2455 H   0  0  0  0  0  0
    2.7314   53.3801   26.4578 H   0  0  0  0  0  0
    3.0312   53.7986   23.9984 H   0  0  0  0  0  0
    4.5416   54.4550   22.1457 H   0  0  0  0  0  0
    8.1012   55.3131   22.7046 H   0  0  0  0  0  0
    6.4431   54.4410   20.7657 H   0  0  0  0  0  0
    6.1936   56.0971   20.8580 H   0  0  0  0  0  0
  1  2  1  0  0  0
  1 23  1  0  0  0
  1 24  1  0  0  0
  1 25  1  0  0  0
  2  3  1  0  0  0
  2  4  1  0  0  0
  2  7  1  0  0  0
  4  6  1  0  0  0
  4  5  1  0  0  0
  4 26  1  0  0  0
  5  6  1  0  0  0
  5 27  1  0  0  0
  5 28  1  0  0  0
  6 29  1  0  0  0
  6 30  1  0  0  0
  7  8  1  0  0  0
  7 31  1  0  0  0
  8  9  2  0  0  0
  8 10  2  0  0  0
  8 11  1  0  0  0
 11 16  2  0  0  0
 11 12  1  0  0  0
 12 13  2  0  0  0
 12 32  1  0  0  0
 13 14  1  0  0  0
 13 33  1  0  0  0
 14 20  2  0  0  0
 14 15  1  0  0  0
 15 16  1  0  0  0
 15 17  2  0  0  0
 16 34  1  0  0  0
 17 18  1  0  0  0
 17 35  1  0  0  0
 18 19  2  0  0  0
 18 36  1  0  0  0
 19 20  1  0  0  0
 19 21  1  0  0  0
 21 22  1  0  0  0
 21 37  1  0  0  0
 22 38  1  0  0  0
 22 39  1  0  0  0
M  END
> <i_i_glide_confnum>
5

> <i_i_glide_lignum>
1576

> <i_i_glide_posenum>
170

> <i_i_glide_rotatable_bonds>
5

> <i_m_Source_File_Index>
4839

> <b_m_subgroup_collapsed>
0

> <r_i_docking_score>
-5.70882

> <r_i_glide_ecoul>
-8.36384

> <r_i_glide_eff_state_penalty>
0

> <r_i_glide_einternal>
8.87709

> <r_i_glide_emodel>
-49.6321

> <r_i_glide_energy>
-44.1991

> <r_i_glide_erotb>
0.590315

> <r_i_glide_esite>
-0.0253459

> <r_i_glide_evdw>
-35.8353

> <r_i_glide_gscore>
-5.70882

> <r_i_glide_hbond>
-0.32

> <r_i_glide_ligand_efficiency>
-0.271849

> <r_i_glide_ligand_efficiency_ln>
-1.41149

> <r_i_glide_ligand_efficiency_sa>
-0.75001

> <r_i_glide_lipo>
-2.50892

> <r_i_glide_metal>
0

> <r_i_glide_rewards>
-0.398526

> <s_i_glide_gridfile>
wee1_glide-grid

> <s_m_Source_File>
wee1_decoys_glide_SP.sdf

> <s_m_Source_Path>
/Users/zhangxujun/Desktop

> <s_m_entry_id>
5114

> <s_m_entry_name>
wee1_decoys_glide_SP.4839

> <s_m_subgroup_title>
wee1_decoys_glide_SP

> <s_m_subgroupid>
wee1_decoys_glide_SP


$$$$
