@<TRIPOS>MOLECULE
ZINC34001986_774
80   85    1
SMALL
USER_CHARGES


@<TRIPOS>ATOM
      1 C1         -1.6933   47.5073   22.3683 C.3       1 UNK         0.0000 
      2 C2         -2.6591   48.3415   23.2636 C.3       1 UNK         0.0000 
      3 C3         -4.0382   47.6739   23.5027 C.3       1 UNK         0.0000 
      4 H4         -4.6271   47.5119   22.5989 H         1 UNK         0.0000 
      5 C5         -3.6978   46.3651   24.2393 C.3       1 UNK         0.0000 
      6 C6         -2.5335   46.8112   25.1447 C.3       1 UNK         0.0000 
      7 C7         -2.3418   48.3307   24.7986 C.3       1 UNK         0.0000 
      8 C8         -3.5648   49.1118   25.3994 C.3       1 UNK         0.0000 
      9 H9         -3.4516   50.1685   25.1955 H         1 UNK         0.0000 
     10 C10        -4.7424   48.6032   24.5235 C.3       1 UNK         0.0000 
     11 N11        -3.7295   48.9231   26.8418 N.am      1 UNK         0.0000 
     12 C12        -4.6984   49.4932   27.5750 C.2       1 UNK         0.0000 
     13 O13        -5.5581   50.2362   27.0971 O.2       1 UNK         0.0000 
     14 C14        -4.6790   49.2033   29.0847 C.3       1 UNK         0.0000 
     15 H15        -3.9985   48.3576   29.2148 H         1 UNK         0.0000 
     16 C16        -6.1009   48.8440   29.5847 C.3       1 UNK         0.0000 
     17 C17        -6.0554   48.5853   31.1028 C.3       1 UNK         0.0000 
     18 C18        -5.4411   49.7674   31.8822 C.3       1 UNK         0.0000 
     19 N19        -4.0473   50.0999   31.3071 N.4       1 UNK         0.0000 
     20 C20        -4.0946   50.4374   29.8058 C.3       1 UNK         0.0000 
     21 C21        -0.9125   48.7448   25.2833 C.3       1 UNK         0.0000 
     22 S22        -0.4245   50.5885   25.3010 S.o2      1 UNK         0.0000 
     23 O23        -1.5974   51.4494   25.4800 O.2       1 UNK         0.0000 
     24 O24         0.7043   50.7337   26.2250 O.2       1 UNK         0.0000 
     25 N25         0.2080   50.8704   23.6726 N.pl3     1 UNK         0.0000 
     26 C26         1.5055   50.2367   23.3515 C.3       1 UNK         0.0000 
     27 C27         1.7004   50.1309   21.8260 C.3       1 UNK         0.0000 
     28 C28         1.4811   51.4836   21.0801 C.3       1 UNK         0.0000 
     29 C29         1.2677   51.2243   19.5740 C.3       1 UNK         0.0000 
     30 C30         2.6217   51.3808   18.9026 C.3       1 UNK         0.0000 
     31 C31         3.3677   52.3049   19.8404 C.ar      1 UNK         0.0000 
     32 C32         2.7410   52.3504   21.0918 C.ar      1 UNK         0.0000 
     33 C33         3.3120   53.1089   22.1209 C.ar      1 UNK         0.0000 
     34 C34         4.4822   53.8321   21.8924 C.ar      1 UNK         0.0000 
     35 C35         5.1044   53.7767   20.6464 C.ar      1 UNK         0.0000 
     36 C36         4.5675   52.9853   19.6315 C.ar      1 UNK         0.0000 
     37 C37         0.2375   52.2479   21.6146 C.3       1 UNK         0.0000 
     38 C38         0.0562   52.2411   23.1456 C.3       1 UNK         0.0000 
     39 C39        -2.7914   49.7236   22.5527 C.3       1 UNK         0.0000 
     40 H40        -0.7247   47.9993   22.2876 H         1 UNK         0.0000 
     41 H41        -1.4911   46.5001   22.7239 H         1 UNK         0.0000 
     42 H42        -2.0864   47.4058   21.3567 H         1 UNK         0.0000 
     43 H43        -4.5414   45.9720   24.8093 H         1 UNK         0.0000 
     44 H44        -3.3932   45.5888   23.5383 H         1 UNK         0.0000 
     45 H45        -2.7542   46.6384   26.1983 H         1 UNK         0.0000 
     46 H46        -1.6334   46.2300   24.9374 H         1 UNK         0.0000 
     47 H47        -5.5071   48.0703   25.0918 H         1 UNK         0.0000 
     48 H48        -5.2356   49.4316   24.0122 H         1 UNK         0.0000 
     49 H49        -2.9410   48.5151   27.3442 H         1 UNK         0.0000 
     50 H50        -6.4702   47.9300   29.1156 H         1 UNK         0.0000 
     51 H51        -6.7988   49.6725   29.4352 H         1 UNK         0.0000 
     52 H52        -5.4857   47.6752   31.2979 H         1 UNK         0.0000 
     53 H53        -7.0630   48.3891   31.4744 H         1 UNK         0.0000 
     54 H54        -5.2956   49.5473   32.9404 H         1 UNK         0.0000 
     55 H55        -6.0352   50.6796   31.7974 H         1 UNK         0.0000 
     56 H56        -3.4161   49.3078   31.4013 H         1 UNK         0.0000 
     57 H57        -4.7087   51.3352   29.7158 H         1 UNK         0.0000 
     58 H58        -3.0574   50.6431   29.5276 H         1 UNK         0.0000 
     59 H59        -0.7736   48.4264   26.3141 H         1 UNK         0.0000 
     60 H60        -0.1480   48.2162   24.7201 H         1 UNK         0.0000 
     61 H61         2.3037   50.8843   23.7177 H         1 UNK         0.0000 
     62 H62         1.5606   49.2564   23.8171 H         1 UNK         0.0000 
     63 H63         2.6982   49.7302   21.6314 H         1 UNK         0.0000 
     64 H64         0.9709   49.3956   21.4853 H         1 UNK         0.0000 
     65 H65         0.7519   50.2902   19.3443 H         1 UNK         0.0000 
     66 H66         0.6334   52.0067   19.1498 H         1 UNK         0.0000 
     67 H67         2.5292   51.7749   17.8908 H         1 UNK         0.0000 
     68 H68         3.1045   50.4077   18.8244 H         1 UNK         0.0000 
     69 H69         2.8635   53.1566   23.0992 H         1 UNK         0.0000 
     70 H70         4.9112   54.4307   22.6831 H         1 UNK         0.0000 
     71 H71         6.0056   54.3429   20.4668 H         1 UNK         0.0000 
     72 H72         5.0726   52.9151   18.6789 H         1 UNK         0.0000 
     73 H73        -0.6729   51.8080   21.2054 H         1 UNK         0.0000 
     74 H74         0.3043   53.2818   21.2820 H         1 UNK         0.0000 
     75 H75        -0.9270   52.6378   23.3998 H         1 UNK         0.0000 
     76 H76         0.8456   52.8615   23.5635 H         1 UNK         0.0000 
     77 H77        -1.8203   50.1267   22.2841 H         1 UNK         0.0000 
     78 H78        -3.3430   49.6151   21.6181 H         1 UNK         0.0000 
     79 H79        -3.3043   50.4962   23.1198 H         1 UNK         0.0000 
     80 H80        -3.6157   50.8472   31.8453 H         1 UNK         0.0000 
@<TRIPOS>BOND
     1    1    2 1    
     2    1   40 1    
     3    1   41 1    
     4    1   42 1    
     5    2    7 1    
     6    2    3 1    
     7    2   39 1    
     8    3    4 1    
     9    3   10 1    
    10    3    5 1    
    11    5    6 1    
    12    5   43 1    
    13    5   44 1    
    14    6    7 1    
    15    6   45 1    
    16    6   46 1    
    17    7    8 1    
    18    7   21 1    
    19    8    9 1    
    20    8   10 1    
    21    8   11 1    
    22   10   47 1    
    23   10   48 1    
    24   11   12 am   BACKBONE|DICT|INTERRES
    25   11   49 1    
    26   12   13 2    
    27   12   14 1    
    28   14   15 1    
    29   14   20 1    
    30   14   16 1    
    31   16   17 1    
    32   16   50 1    
    33   16   51 1    
    34   17   18 1    
    35   17   52 1    
    36   17   53 1    
    37   18   19 1    
    38   18   54 1    
    39   18   55 1    
    40   19   20 1    
    41   19   56 1    
    42   19   80 1    
    43   20   57 1    
    44   20   58 1    
    45   21   22 1    
    46   21   59 1    
    47   21   60 1    
    48   22   23 2    
    49   22   24 2    
    50   22   25 1    
    51   25   38 1    
    52   25   26 1    
    53   26   27 1    
    54   26   61 1    
    55   26   62 1    
    56   27   28 1    
    57   27   63 1    
    58   27   64 1    
    59   28   32 1    
    60   28   29 1    
    61   28   37 1    
    62   29   30 1    
    63   29   65 1    
    64   29   66 1    
    65   30   31 1    
    66   30   67 1    
    67   30   68 1    
    68   31   36 ar   
    69   31   32 ar   
    70   32   33 ar   
    71   33   34 ar   
    72   33   69 1    
    73   34   35 ar   
    74   34   70 1    
    75   35   36 ar   
    76   35   71 1    
    77   36   72 1    
    78   37   38 1    
    79   37   73 1    
    80   37   74 1    
    81   38   75 1    
    82   38   76 1    
    83   39   77 1    
    84   39   78 1    
    85   39   79 1    
@<TRIPOS>SUBSTRUCTURE
     1 UNK         1 GROUP             0       ****    0 ROOT    
