@<TRIPOS>MOLECULE
ZINC35729066_4500
52   54    1
SMALL
USER_CHARGES


@<TRIPOS>ATOM
      1 C1          2.7812   56.3946   16.8866 C.3       1 UNK         0.0000 
      2 C2          3.8396   55.8632   17.8667 C.3       1 UNK         0.0000 
      3 C3          4.3864   54.4617   17.5046 C.3       1 UNK         0.0000 
      4 H4          4.7308   54.5282   16.4691 H         1 UNK         0.0000 
      5 C5          3.2628   53.3981   17.5059 C.3       1 UNK         0.0000 
      6 C6          5.6568   54.0915   18.3420 C.3       1 UNK         0.0000 
      7 H7          6.3589   54.9249   18.2515 H         1 UNK         0.0000 
      8 C8          5.3249   53.8977   19.8422 C.2       1 UNK         0.0000 
      9 O9          4.6258   52.9492   20.2026 O.2       1 UNK         0.0000 
     10 N10         5.9039   54.7952   20.6687 N.am      1 UNK         0.0000 
     11 C11         5.9089   54.7541   22.0521 C.2       1 UNK         0.0000 
     12 N12         6.8796   55.2969   22.7383 N.2       1 UNK         0.0000 
     13 N13         6.7034   55.1757   24.1112 N.2       1 UNK         0.0000 
     14 C14         5.5776   54.5801   24.4384 C.2       1 UNK         0.0000 
     15 S15         4.6325   54.0961   23.0486 S.3       1 UNK         0.0000 
     16 C16         5.1259   54.3551   25.8505 C.ar      1 UNK         0.0000 
     17 C17         6.0556   54.4162   26.8976 C.ar      1 UNK         0.0000 
     18 C18         5.6462   54.2408   28.2163 C.ar      1 UNK         0.0000 
     19 C19         4.3041   54.0040   28.5002 C.ar      1 UNK         0.0000 
     20 C20         3.3712   53.9301   27.4697 C.ar      1 UNK         0.0000 
     21 C21         3.7801   54.1036   26.1481 C.ar      1 UNK         0.0000 
     22 F22         3.9018   53.8552   29.7830 F         1 UNK         0.0000 
     23 N23         6.3280   52.8968   17.8222 N.am      1 UNK         0.0000 
     24 C24         7.3555   52.9058   16.9583 C.2       1 UNK         0.0000 
     25 O25         7.7225   53.9122   16.3498 O.2       1 UNK         0.0000 
     26 N26         7.9480   51.6991   16.8798 N.am      1 UNK         0.0000 
     27 C27         8.9818   51.3024   16.0116 C.ar      1 UNK         0.0000 
     28 C28         9.8276   50.2711   16.4358 C.ar      1 UNK         0.0000 
     29 C29        10.8234   49.7805   15.5888 C.ar      1 UNK         0.0000 
     30 C30        10.9826   50.3208   14.3108 C.ar      1 UNK         0.0000 
     31 C31        10.1494   51.3549   13.8835 C.ar      1 UNK         0.0000 
     32 C32         9.1526   51.8443   14.7265 C.ar      1 UNK         0.0000 
     33 Br33       10.3590   52.0971   12.1427 Br        1 UNK         0.0000 
     34 H34         2.7653   57.4839   16.8805 H         1 UNK         0.0000 
     35 H35         2.9729   56.0647   15.8656 H         1 UNK         0.0000 
     36 H36         1.7851   56.0527   17.1677 H         1 UNK         0.0000 
     37 H37         3.4209   55.8372   18.8737 H         1 UNK         0.0000 
     38 H38         4.6623   56.5782   17.9071 H         1 UNK         0.0000 
     39 H39         2.7445   53.3530   18.4641 H         1 UNK         0.0000 
     40 H40         2.5125   53.6121   16.7439 H         1 UNK         0.0000 
     41 H41         3.6556   52.4025   17.2930 H         1 UNK         0.0000 
     42 H42         6.5403   55.4544   20.2491 H         1 UNK         0.0000 
     43 H43         7.1003   54.6001   26.6972 H         1 UNK         0.0000 
     44 H44         6.3666   54.3033   29.0177 H         1 UNK         0.0000 
     45 H45         2.3325   53.7429   27.6961 H         1 UNK         0.0000 
     46 H46         3.0407   54.0522   25.3638 H         1 UNK         0.0000 
     47 H47         5.9090   52.0002   18.0818 H         1 UNK         0.0000 
     48 H48         7.6324   50.9986   17.5365 H         1 UNK         0.0000 
     49 H49         9.7107   49.8373   17.4199 H         1 UNK         0.0000 
     50 H50        11.4688   48.9797   15.9173 H         1 UNK         0.0000 
     51 H51        11.7444   49.9353   13.6467 H         1 UNK         0.0000 
     52 H52         8.5016   52.6251   14.3638 H         1 UNK         0.0000 
@<TRIPOS>BOND
     1    1    2 1    
     2    1   34 1    
     3    1   35 1    
     4    1   36 1    
     5    2    3 1    
     6    2   37 1    
     7    2   38 1    
     8    3    4 1    
     9    3    5 1    
    10    3    6 1    
    11    5   39 1    
    12    5   40 1    
    13    5   41 1    
    14    6    7 1    
    15    6    8 1    
    16    6   23 1    
    17    8    9 2    
    18    8   10 am   BACKBONE|DICT|INTERRES
    19   10   11 am   BACKBONE|DICT|INTERRES
    20   10   42 1    
    21   11   15 1    
    22   11   12 2    
    23   12   13 1    
    24   13   14 2    
    25   14   15 1    
    26   14   16 1    
    27   16   21 ar   
    28   16   17 ar   
    29   17   18 ar   
    30   17   43 1    
    31   18   19 ar   
    32   18   44 1    
    33   19   20 ar   
    34   19   22 1    
    35   20   21 ar   
    36   20   45 1    
    37   21   46 1    
    38   23   24 am   BACKBONE|DICT|INTERRES
    39   23   47 1    
    40   24   25 2    
    41   24   26 am   BACKBONE|DICT|INTERRES
    42   26   27 1    
    43   26   48 1    
    44   27   32 ar   
    45   27   28 ar   
    46   28   29 ar   
    47   28   49 1    
    48   29   30 ar   
    49   29   50 1    
    50   30   31 ar   
    51   30   51 1    
    52   31   32 ar   
    53   31   33 1    
    54   32   52 1    
@<TRIPOS>SUBSTRUCTURE
     1 UNK         1 GROUP             0       ****    0 ROOT    
