@<TRIPOS>MOLECULE
ZINC48101004_2168
60   62    1
SMALL
USER_CHARGES


@<TRIPOS>ATOM
      1 C1          4.5531   54.8443   29.5043 C.3       1 UNK         0.0000 
      2 C2          4.4872   53.6468   28.5477 C.3       1 UNK         0.0000 
      3 H3          5.4038   53.0778   28.7185 H         1 UNK         0.0000 
      4 C4          3.3323   52.6619   28.8921 C.3       1 UNK         0.0000 
      5 C5          1.9575   53.0203   28.3079 C.3       1 UNK         0.0000 
      6 C6          2.0779   53.3737   26.8212 C.3       1 UNK         0.0000 
      7 C7          3.1058   54.4989   26.6275 C.3       1 UNK         0.0000 
      8 N8          4.4182   54.0145   27.1101 N.am      1 UNK         0.0000 
      9 C9          5.5832   54.1692   26.4072 C.2       1 UNK         0.0000 
     10 O10         6.6874   54.1113   26.9598 O.2       1 UNK         0.0000 
     11 C11         5.5762   54.3981   24.9050 C.ar      1 UNK         0.0000 
     12 C12         4.6228   53.8175   24.0518 C.ar      1 UNK         0.0000 
     13 C13         4.7119   53.9696   22.6682 C.ar      1 UNK         0.0000 
     14 C14         5.7504   54.7151   22.1164 C.ar      1 UNK         0.0000 
     15 C15         6.7052   55.2925   22.9560 C.ar      1 UNK         0.0000 
     16 C16         6.6217   55.1287   24.3311 C.ar      1 UNK         0.0000 
     17 N17         5.8057   54.8335   20.7211 N.am      1 UNK         0.0000 
     18 C18         6.3068   55.8607   20.0139 C.2       1 UNK         0.0000 
     19 O19         6.7039   56.9313   20.4805 O.2       1 UNK         0.0000 
     20 N20         6.2856   55.5782   18.7080 N.am      1 UNK         0.0000 
     21 C21         6.0325   56.5434   17.6383 C.3       1 UNK         0.0000 
     22 C22         4.5549   56.5162   17.1493 C.3       1 UNK         0.0000 
     23 H23         3.9301   57.0257   17.8873 H         1 UNK         0.0000 
     24 C24         3.9839   55.1313   16.8567 C.2       1 UNK         0.0000 
     25 C25         4.6301   53.9256   16.5621 C.2       1 UNK         0.0000 
     26 C26         3.7749   52.8334   16.4027 C.2       1 UNK         0.0000 
     27 C27         2.4449   53.1800   16.5402 C.2       1 UNK         0.0000 
     28 S28         2.2584   54.8667   16.8817 S.3       1 UNK         0.0000 
     29 N29         4.3543   57.3841   15.8778 N.4       1 UNK         0.0000 
     30 C30         4.4806   58.8973   16.1615 C.3       1 UNK         0.0000 
     31 C31         5.1995   56.9788   14.6465 C.3       1 UNK         0.0000 
     32 H32         4.5011   54.4967   30.5339 H         1 UNK         0.0000 
     33 H33         3.7286   55.5411   29.3520 H         1 UNK         0.0000 
     34 H34         5.5030   55.3683   29.4073 H         1 UNK         0.0000 
     35 H35         3.6061   51.6963   28.4823 H         1 UNK         0.0000 
     36 H36         3.2593   52.5057   29.9692 H         1 UNK         0.0000 
     37 H37         1.2626   52.1896   28.4429 H         1 UNK         0.0000 
     38 H38         1.5338   53.8650   28.8530 H         1 UNK         0.0000 
     39 H39         2.3544   52.4976   26.2327 H         1 UNK         0.0000 
     40 H40         1.1062   53.6953   26.4443 H         1 UNK         0.0000 
     41 H41         3.1039   54.8971   25.6155 H         1 UNK         0.0000 
     42 H42         2.8187   55.3317   27.2659 H         1 UNK         0.0000 
     43 H43         3.8215   53.2119   24.4422 H         1 UNK         0.0000 
     44 H44         3.9726   53.5035   22.0347 H         1 UNK         0.0000 
     45 H45         7.5410   55.8470   22.5569 H         1 UNK         0.0000 
     46 H46         7.3973   55.5672   24.9408 H         1 UNK         0.0000 
     47 H47         5.3060   54.1227   20.2059 H         1 UNK         0.0000 
     48 H48         6.3304   54.6103   18.4331 H         1 UNK         0.0000 
     49 H49         6.2934   57.5506   17.9708 H         1 UNK         0.0000 
     50 H50         6.7224   56.3131   16.8254 H         1 UNK         0.0000 
     51 H51         5.7039   53.8316   16.4876 H         1 UNK         0.0000 
     52 H52         4.1172   51.8256   16.2010 H         1 UNK         0.0000 
     53 H53         1.5845   52.5317   16.4699 H         1 UNK         0.0000 
     54 H54         5.5035   59.1237   16.4693 H         1 UNK         0.0000 
     55 H55         4.2297   59.4380   15.2475 H         1 UNK         0.0000 
     56 H56         3.7709   59.1585   16.9478 H         1 UNK         0.0000 
     57 H57         6.2426   57.2348   14.8404 H         1 UNK         0.0000 
     58 H58         5.0736   55.9094   14.4809 H         1 UNK         0.0000 
     59 H59         4.8148   57.5429   13.7964 H         1 UNK         0.0000 
     60 H60         3.3868   57.2323   15.6176 H         1 UNK         0.0000 
@<TRIPOS>BOND
     1    1    2 1    
     2    1   32 1    
     3    1   33 1    
     4    1   34 1    
     5    2    3 1    
     6    2    8 1    
     7    2    4 1    
     8    4    5 1    
     9    4   35 1    
    10    4   36 1    
    11    5    6 1    
    12    5   37 1    
    13    5   38 1    
    14    6    7 1    
    15    6   39 1    
    16    6   40 1    
    17    7    8 1    
    18    7   41 1    
    19    7   42 1    
    20    8    9 am   BACKBONE|DICT|INTERRES
    21    9   10 2    
    22    9   11 1    
    23   11   16 ar   
    24   11   12 ar   
    25   12   13 ar   
    26   12   43 1    
    27   13   14 ar   
    28   13   44 1    
    29   14   15 ar   
    30   14   17 1    
    31   15   16 ar   
    32   15   45 1    
    33   16   46 1    
    34   17   18 am   BACKBONE|DICT|INTERRES
    35   17   47 1    
    36   18   19 2    
    37   18   20 am   BACKBONE|DICT|INTERRES
    38   20   21 1    
    39   20   48 1    
    40   21   22 1    
    41   21   49 1    
    42   21   50 1    
    43   22   23 1    
    44   22   24 1    
    45   22   29 1    
    46   24   28 1    
    47   24   25 2    
    48   25   26 1    
    49   25   51 1    
    50   26   27 2    
    51   26   52 1    
    52   27   28 1    
    53   27   53 1    
    54   29   30 1    
    55   29   31 1    
    56   29   60 1    
    57   30   54 1    
    58   30   55 1    
    59   30   56 1    
    60   31   57 1    
    61   31   58 1    
    62   31   59 1    
@<TRIPOS>SUBSTRUCTURE
     1 UNK         1 GROUP             0       ****    0 ROOT    
