@<TRIPOS>MOLECULE
ZINC23482006_4127
55   56    1
SMALL
USER_CHARGES


@<TRIPOS>ATOM
      1 C1          5.4978   53.9812   22.8276 C.3       1 UNK         0.0000 
      2 C2          5.4170   54.4161   21.3687 C.ar      1 UNK         0.0000 
      3 C3          6.3875   55.2970   20.8790 C.ar      1 UNK         0.0000 
      4 C4          6.3317   55.7504   19.5611 C.ar      1 UNK         0.0000 
      5 C5          5.2861   55.3571   18.7298 C.ar      1 UNK         0.0000 
      6 C6          4.3084   54.4870   19.2053 C.ar      1 UNK         0.0000 
      7 C7          4.3804   53.9919   20.5099 C.ar      1 UNK         0.0000 
      8 N8          3.3769   53.0875   20.8820 N.am      1 UNK         0.0000 
      9 C9          3.5759   51.8031   21.2439 C.2       1 UNK         0.0000 
     10 O10         4.6977   51.2969   21.2818 O.2       1 UNK         0.0000 
     11 C11         2.3504   50.8674   21.3746 C.3       1 UNK         0.0000 
     12 N12         1.0420   51.5353   21.5721 N.am      1 UNK         0.0000 
     13 C13         0.4473   52.2230   20.4214 C.3       1 UNK         0.0000 
     14 C14         0.4590   51.6972   22.7945 C.2       1 UNK         0.0000 
     15 O15        -0.4794   52.4792   22.9860 O.2       1 UNK         0.0000 
     16 C16         0.8962   50.7735   23.9774 C.3       1 UNK         0.0000 
     17 H17         1.9856   50.7835   24.0057 H         1 UNK         0.0000 
     18 C18         0.4038   49.2846   23.7489 C.3       1 UNK         0.0000 
     19 C19         0.3048   48.4423   25.0433 C.3       1 UNK         0.0000 
     20 C20        -0.9028   49.0826   22.9416 C.3       1 UNK         0.0000 
     21 N21         0.5330   51.2486   25.3213 N.am      1 UNK         0.0000 
     22 C22         0.8673   52.3982   25.9327 C.2       1 UNK         0.0000 
     23 O23         1.5077   53.2929   25.3786 O.2       1 UNK         0.0000 
     24 C24         0.4901   52.4716   27.4009 C.ar      1 UNK         0.0000 
     25 C25        -0.6276   51.7767   27.9146 C.ar      1 UNK         0.0000 
     26 C26        -0.8950   51.7714   29.2817 C.ar      1 UNK         0.0000 
     27 C27        -0.0955   52.4965   30.1593 C.ar      1 UNK         0.0000 
     28 C28         0.9834   53.2242   29.6650 C.ar      1 UNK         0.0000 
     29 C29         1.2847   53.2070   28.3032 C.ar      1 UNK         0.0000 
     30 F30         2.3727   53.8991   27.8886 F         1 UNK         0.0000 
     31 F31        -1.4732   51.0964   27.1044 F         1 UNK         0.0000 
     32 Br32        7.6854   56.8976   18.8815 Br        1 UNK         0.0000 
     33 H33         6.0454   54.7057   23.4315 H         1 UNK         0.0000 
     34 H34         4.5003   53.9041   23.2639 H         1 UNK         0.0000 
     35 H35         5.9883   53.0106   22.9131 H         1 UNK         0.0000 
     36 H36         7.2001   55.6169   21.5156 H         1 UNK         0.0000 
     37 H37         5.2387   55.7162   17.7121 H         1 UNK         0.0000 
     38 H38         3.5090   54.1791   18.5465 H         1 UNK         0.0000 
     39 H39         2.4291   53.4070   20.7442 H         1 UNK         0.0000 
     40 H40         2.5743   50.0224   22.0233 H         1 UNK         0.0000 
     41 H41         2.2662   50.3898   20.3970 H         1 UNK         0.0000 
     42 H42         0.4279   53.2966   20.5922 H         1 UNK         0.0000 
     43 H43         1.0055   52.0304   19.5029 H         1 UNK         0.0000 
     44 H44        -0.5798   51.8916   20.2648 H         1 UNK         0.0000 
     45 H45         1.1859   48.7951   23.1664 H         1 UNK         0.0000 
     46 H46        -0.5265   48.7596   25.6751 H         1 UNK         0.0000 
     47 H47         0.1466   47.3876   24.8175 H         1 UNK         0.0000 
     48 H48         1.2127   48.5053   25.6443 H         1 UNK         0.0000 
     49 H49        -1.7298   49.6323   23.3938 H         1 UNK         0.0000 
     50 H50        -0.8028   49.4100   21.9061 H         1 UNK         0.0000 
     51 H51        -1.1892   48.0310   22.9096 H         1 UNK         0.0000 
     52 H52        -0.0541   50.6144   25.8445 H         1 UNK         0.0000 
     53 H53        -1.7288   51.1973   29.6633 H         1 UNK         0.0000 
     54 H54        -0.3140   52.4903   31.2198 H         1 UNK         0.0000 
     55 H55         1.6017   53.7929   30.3416 H         1 UNK         0.0000 
@<TRIPOS>BOND
     1    1    2 1    
     2    1   33 1    
     3    1   34 1    
     4    1   35 1    
     5    2    7 ar   
     6    2    3 ar   
     7    3    4 ar   
     8    3   36 1    
     9    4    5 ar   
    10    4   32 1    
    11    5    6 ar   
    12    5   37 1    
    13    6    7 ar   
    14    6   38 1    
    15    7    8 1    
    16    8    9 am   BACKBONE|DICT|INTERRES
    17    8   39 1    
    18    9   10 2    
    19    9   11 1    
    20   11   12 1    
    21   11   40 1    
    22   11   41 1    
    23   12   13 1    
    24   12   14 am   BACKBONE|DICT|INTERRES
    25   13   42 1    
    26   13   43 1    
    27   13   44 1    
    28   14   15 2    
    29   14   16 1    
    30   16   17 1    
    31   16   18 1    
    32   16   21 1    
    33   18   19 1    
    34   18   20 1    
    35   18   45 1    
    36   19   46 1    
    37   19   47 1    
    38   19   48 1    
    39   20   49 1    
    40   20   50 1    
    41   20   51 1    
    42   21   22 am   BACKBONE|DICT|INTERRES
    43   21   52 1    
    44   22   23 2    
    45   22   24 1    
    46   24   29 ar   
    47   24   25 ar   
    48   25   26 ar   
    49   25   31 1    
    50   26   27 ar   
    51   26   53 1    
    52   27   28 ar   
    53   27   54 1    
    54   28   29 ar   
    55   28   55 1    
    56   29   30 1    
@<TRIPOS>SUBSTRUCTURE
     1 UNK         1 GROUP             0       ****    0 ROOT    
