@<TRIPOS>MOLECULE
ZINC21032163_4774
30   32    1
SMALL
USER_CHARGES


@<TRIPOS>ATOM
      1 C1          4.0198   54.0234   22.8710 C.ar      1 UNK         0.0000 
      2 C2          3.5287   54.1256   24.1753 C.ar      1 UNK         0.0000 
      3 C3          2.4336   53.3299   24.5375 C.ar      1 UNK         0.0000 
      4 C4          1.8395   52.4599   23.5878 C.ar      1 UNK         0.0000 
      5 C5          2.3361   52.3725   22.2772 C.ar      1 UNK         0.0000 
      6 C6          3.4390   53.1603   21.9390 C.ar      1 UNK         0.0000 
      7 N7          3.9752   53.0777   20.6540 N.pl3     1 UNK         0.0000 
      8 S8          0.5056   51.6038   24.3578 S.3       1 UNK         0.0000 
      9 C9          0.8918   52.4419   25.8443 C.2       1 UNK         0.0000 
     10 N10         1.8751   53.3013   25.7750 N.2       1 UNK         0.0000 
     11 N11         0.1035   52.1579   26.9545 N.am      1 UNK         0.0000 
     12 C12         0.3399   52.4490   28.2547 C.2       1 UNK         0.0000 
     13 O13        -0.4901   52.1869   29.1210 O.2       1 UNK         0.0000 
     14 C14         1.6426   53.0836   28.6622 C.ar      1 UNK         0.0000 
     15 C15         2.7691   52.2830   28.8696 C.ar      1 UNK         0.0000 
     16 C16         3.9988   52.8690   29.1578 C.ar      1 UNK         0.0000 
     17 C17         4.1118   54.2511   29.2868 C.ar      1 UNK         0.0000 
     18 C18         2.9891   55.0518   29.1035 C.ar      1 UNK         0.0000 
     19 C19         1.7632   54.4763   28.7730 C.ar      1 UNK         0.0000 
     20 F20         0.7166   55.2841   28.5130 F         1 UNK         0.0000 
     21 F21         5.0935   52.0982   29.2825 F         1 UNK         0.0000 
     22 H22         4.8742   54.6183   22.5845 H         1 UNK         0.0000 
     23 H23         3.9898   54.7922   24.8887 H         1 UNK         0.0000 
     24 H24         1.8908   51.7041   21.5559 H         1 UNK         0.0000 
     25 H25         4.6358   53.7801   20.3516 H         1 UNK         0.0000 
     26 H26         3.5080   52.5104   19.9585 H         1 UNK         0.0000 
     27 H27        -0.7052   51.5777   26.7821 H         1 UNK         0.0000 
     28 H28         2.7039   51.2094   28.7651 H         1 UNK         0.0000 
     29 H29         5.0710   54.7002   29.5061 H         1 UNK         0.0000 
     30 H30         3.0742   56.1278   29.1813 H         1 UNK         0.0000 
@<TRIPOS>BOND
     1    1    6 ar   
     2    1    2 ar   
     3    1   22 1    
     4    2    3 ar   
     5    2   23 1    
     6    3   10 1    
     7    3    4 ar   
     8    4    5 ar   
     9    4    8 1    
    10    5    6 ar   
    11    5   24 1    
    12    6    7 1    
    13    7   25 1    
    14    7   26 1    
    15    8    9 1    
    16    9   10 2    
    17    9   11 am   BACKBONE|DICT|INTERRES
    18   11   12 am   BACKBONE|DICT|INTERRES
    19   11   27 1    
    20   12   13 2    
    21   12   14 1    
    22   14   19 ar   
    23   14   15 ar   
    24   15   16 ar   
    25   15   28 1    
    26   16   17 ar   
    27   16   21 1    
    28   17   18 ar   
    29   17   29 1    
    30   18   19 ar   
    31   18   30 1    
    32   19   20 1    
@<TRIPOS>SUBSTRUCTURE
     1 UNK         1 GROUP             0       ****    0 ROOT    
