@<TRIPOS>MOLECULE
ZINC35446779_5874
55   59    1
SMALL
USER_CHARGES


@<TRIPOS>ATOM
      1 C1         -4.4591   43.4609   21.0978 C.3       1 UNK         0.0000 
      2 C2         -3.9064   44.6314   21.8881 C.ar      1 UNK         0.0000 
      3 C3         -4.7181   45.2955   22.8116 C.ar      1 UNK         0.0000 
      4 C4         -4.2116   46.3773   23.5308 C.ar      1 UNK         0.0000 
      5 C5         -2.8965   46.8079   23.3156 C.ar      1 UNK         0.0000 
      6 C6         -2.0945   46.1438   22.3870 C.ar      1 UNK         0.0000 
      7 C7         -2.5935   45.0576   21.6746 C.ar      1 UNK         0.0000 
      8 N8         -2.3293   47.8807   24.0232 N.am      1 UNK         0.0000 
      9 C9         -2.9090   49.0811   24.2539 C.2       1 UNK         0.0000 
     10 O10        -4.0375   49.3587   23.8290 O.2       1 UNK         0.0000 
     11 N11        -2.1335   49.9867   24.9147 N.am      1 UNK         0.0000 
     12 C12        -1.0708   49.6169   25.8789 C.3       1 UNK         0.0000 
     13 C13         0.1636   50.5058   25.5808 C.3       1 UNK         0.0000 
     14 C14        -0.1333   52.0315   25.5878 C.3       1 UNK         0.0000 
     15 C15        -1.3547   52.2606   24.6661 C.3       1 UNK         0.0000 
     16 C16        -2.5811   51.3880   25.0147 C.3       1 UNK         0.0000 
     17 C17         1.0950   52.8374   25.1312 C.ar      1 UNK         0.0000 
     18 C18         1.5386   53.2781   23.8839 C.ar      1 UNK         0.0000 
     19 C19         2.7503   53.9476   24.0373 C.ar      1 UNK         0.0000 
     20 C20         3.0543   53.9062   25.3844 C.ar      1 UNK         0.0000 
     21 N21         2.0508   53.2375   26.0512 N.pl3     1 UNK         0.0000 
     22 C22         1.9000   52.9848   27.4310 C.ar      1 UNK         0.0000 
     23 C23         2.9435   53.0558   28.3618 C.ar      1 UNK         0.0000 
     24 C24         2.6938   52.8600   29.7211 C.ar      1 UNK         0.0000 
     25 C25         1.3947   52.5931   30.1652 C.ar      1 UNK         0.0000 
     26 C26         0.3547   52.4791   29.2362 C.ar      1 UNK         0.0000 
     27 C27         0.5968   52.6914   27.8787 C.ar      1 UNK         0.0000 
     28 N28        -0.4514   52.4951   26.9545 N.pl3     1 UNK         0.0000 
     29 C29         1.1133   52.4098   31.6468 C.3       1 UNK         0.0000 
     30 H30        -3.9680   43.3714   20.1271 H         1 UNK         0.0000 
     31 H31        -5.5221   43.6023   20.8948 H         1 UNK         0.0000 
     32 H32        -4.3312   42.5266   21.6468 H         1 UNK         0.0000 
     33 H33        -5.7377   44.9779   22.9735 H         1 UNK         0.0000 
     34 H34        -4.8438   46.8854   24.2474 H         1 UNK         0.0000 
     35 H35        -1.0829   46.4730   22.2056 H         1 UNK         0.0000 
     36 H36        -1.9618   44.5573   20.9533 H         1 UNK         0.0000 
     37 H37        -1.3635   47.7776   24.3030 H         1 UNK         0.0000 
     38 H38        -1.4408   49.8376   26.8801 H         1 UNK         0.0000 
     39 H39        -0.7947   48.5605   25.8566 H         1 UNK         0.0000 
     40 H40         0.9353   50.2711   26.3158 H         1 UNK         0.0000 
     41 H41         0.5867   50.2121   24.6187 H         1 UNK         0.0000 
     42 H42        -1.0788   52.0830   23.6256 H         1 UNK         0.0000 
     43 H43        -1.6505   53.3080   24.7070 H         1 UNK         0.0000 
     44 H44        -3.3964   51.6291   24.3332 H         1 UNK         0.0000 
     45 H45        -2.9181   51.5770   26.0347 H         1 UNK         0.0000 
     46 H46         1.0296   53.1205   22.9440 H         1 UNK         0.0000 
     47 H47         3.3342   54.4070   23.2545 H         1 UNK         0.0000 
     48 H48         3.8932   54.3096   25.9285 H         1 UNK         0.0000 
     49 H49         3.9537   53.2702   28.0402 H         1 UNK         0.0000 
     50 H50         3.5102   52.9190   30.4252 H         1 UNK         0.0000 
     51 H51        -0.6408   52.2288   29.5761 H         1 UNK         0.0000 
     52 H52        -1.3266   52.1299   27.3031 H         1 UNK         0.0000 
     53 H53         1.9863   52.0175   32.1678 H         1 UNK         0.0000 
     54 H54         0.8207   53.3544   32.1036 H         1 UNK         0.0000 
     55 H55         0.3041   51.6993   31.8062 H         1 UNK         0.0000 
@<TRIPOS>BOND
     1    1    2 1    
     2    1   30 1    
     3    1   31 1    
     4    1   32 1    
     5    2    7 ar   
     6    2    3 ar   
     7    3    4 ar   
     8    3   33 1    
     9    4    5 ar   
    10    4   34 1    
    11    5    6 ar   
    12    5    8 1    
    13    6    7 ar   
    14    6   35 1    
    15    7   36 1    
    16    8    9 am   BACKBONE|DICT|INTERRES
    17    8   37 1    
    18    9   10 2    
    19    9   11 am   BACKBONE|DICT|INTERRES
    20   11   16 1    
    21   11   12 1    
    22   12   13 1    
    23   12   38 1    
    24   12   39 1    
    25   13   14 1    
    26   13   40 1    
    27   13   41 1    
    28   14   28 1    
    29   14   15 1    
    30   14   17 1    
    31   15   16 1    
    32   15   42 1    
    33   15   43 1    
    34   16   44 1    
    35   16   45 1    
    36   17   21 ar   
    37   17   18 ar   
    38   18   19 ar   
    39   18   46 1    
    40   19   20 ar   
    41   19   47 1    
    42   20   21 ar   
    43   20   48 1    
    44   21   22 1    
    45   22   27 ar   
    46   22   23 ar   
    47   23   24 ar   
    48   23   49 1    
    49   24   25 ar   
    50   24   50 1    
    51   25   26 ar   
    52   25   29 1    
    53   26   27 ar   
    54   26   51 1    
    55   27   28 1    
    56   28   52 1    
    57   29   53 1    
    58   29   54 1    
    59   29   55 1    
@<TRIPOS>SUBSTRUCTURE
     1 UNK         1 GROUP             0       ****    0 ROOT    
