ZINC03011415_4072
                    3D
 Schrodinger Suite 2024-2.
 53 56  0  0  1  0            999 V2000
    7.9983   55.6229   19.9117 C   0  0  0  0  0  0
    7.8101   55.5570   21.3212 O   0  0  0  0  0  0
    6.6203   55.0630   21.8253 C   0  0  0  0  0  0
    5.5072   54.7247   21.0398 C   0  0  0  0  0  0
    4.3421   54.2423   21.6344 C   0  0  0  0  0  0
    4.2645   54.0966   23.0273 C   0  0  0  0  0  0
    5.3683   54.4352   23.8295 C   0  0  0  0  0  0
    6.5420   54.8968   23.2083 C   0  0  0  0  0  0
    5.2257   54.3082   25.2028 O   0  0  0  0  0  0
    6.3247   54.5824   26.0580 C   0  0  0  0  0  0
    3.1084   53.6378   23.6918 N   0  0  0  0  0  0
    2.1199   52.8445   23.2250 C   0  0  0  0  0  0
    1.9856   52.4931   22.0522 O   0  0  0  0  0  0
    1.2189   52.3578   24.2472 C   0  0  0  0  0  0
    0.3159   51.2998   24.0608 C   0  0  0  0  0  0
   -0.3876   51.1746   25.2380 C   0  0  0  0  0  0
    0.1516   52.1198   26.0952 N   0  0  0  0  0  0
    1.0959   52.8507   25.4686 N   0  0  0  0  0  0
   -0.3740   52.4773   27.4262 C   0  0  1  0  0  0
   -1.0635   53.3030   27.2811 H   0  0  0  0  0  0
   -1.2205   51.2810   27.9124 C   0  0  0  0  0  0
   -2.1698   50.6979   26.8340 C   0  0  2  0  0  0
   -2.5968   49.7831   27.2458 H   0  0  0  0  0  0
   -1.3801   50.3097   25.6575 N   0  0  0  0  0  0
   -3.3647   51.6196   26.5404 C   0  0  0  0  0  0
   -4.5698   51.3895   27.2115 C   0  0  0  0  0  0
   -5.6800   52.1999   26.9703 C   0  0  0  0  0  0
   -5.5789   53.2617   26.0727 C   0  0  0  0  0  0
   -4.3811   53.5080   25.4041 C   0  0  0  0  0  0
   -3.2773   52.6900   25.6387 C   0  0  0  0  0  0
   -6.9460   54.2761   25.7845 Cl  0  0  0  0  0  0
    0.6851   52.9422   28.4603 C   0  0  0  0  0  0
    0.1204   53.1750   29.6458 F   0  0  0  0  0  0
    1.6303   52.0210   28.6493 F   0  0  0  0  0  0
    1.2873   54.0750   28.0927 F   0  0  0  0  0  0
    9.0077   55.9785   19.7044 H   0  0  0  0  0  0
    7.2978   56.3171   19.4420 H   0  0  0  0  0  0
    7.8973   54.6380   19.4468 H   0  0  0  0  0  0
    5.5236   54.8320   19.9626 H   0  0  0  0  0  0
    3.5039   54.0127   20.9920 H   0  0  0  0  0  0
    7.4140   55.1588   23.7888 H   0  0  0  0  0  0
    6.0132   54.4722   27.0991 H   0  0  0  0  0  0
    7.1357   53.8757   25.8836 H   0  0  0  0  0  0
    6.6954   55.6028   25.9346 H   0  0  0  0  0  0
    3.1193   53.7958   24.6882 H   0  0  0  0  0  0
    0.1853   50.7116   23.1622 H   0  0  0  0  0  0
   -0.5436   50.4979   28.2532 H   0  0  0  0  0  0
   -1.7843   51.5463   28.8099 H   0  0  0  0  0  0
   -1.9073   49.7683   24.9903 H   0  0  0  0  0  0
   -4.6574   50.5762   27.9196 H   0  0  0  0  0  0
   -6.6113   52.0114   27.4840 H   0  0  0  0  0  0
   -4.3075   54.3318   24.7062 H   0  0  0  0  0  0
   -2.3572   52.8983   25.1119 H   0  0  0  0  0  0
  1  2  1  0  0  0
  1 36  1  0  0  0
  1 37  1  0  0  0
  1 38  1  0  0  0
  2  3  1  0  0  0
  3  8  2  0  0  0
  3  4  1  0  0  0
  4  5  2  0  0  0
  4 39  1  0  0  0
  5  6  1  0  0  0
  5 40  1  0  0  0
  6  7  2  0  0  0
  6 11  1  0  0  0
  7  8  1  0  0  0
  7  9  1  0  0  0
  8 41  1  0  0  0
  9 10  1  0  0  0
 10 42  1  0  0  0
 10 43  1  0  0  0
 10 44  1  0  0  0
 11 12  1  0  0  0
 11 45  1  0  0  0
 12 13  2  0  0  0
 12 14  1  0  0  0
 14 18  2  0  0  0
 14 15  1  0  0  0
 15 16  2  0  0  0
 15 46  1  0  0  0
 16 24  1  0  0  0
 16 17  1  0  0  0
 17 18  1  0  0  0
 17 19  1  0  0  0
 19 20  1  0  0  0
 19 21  1  0  0  0
 19 32  1  0  0  0
 21 22  1  0  0  0
 21 47  1  0  0  0
 21 48  1  0  0  0
 22 23  1  0  0  0
 22 24  1  0  0  0
 22 25  1  0  0  0
 24 49  1  0  0  0
 25 30  2  0  0  0
 25 26  1  0  0  0
 26 27  2  0  0  0
 26 50  1  0  0  0
 27 28  1  0  0  0
 27 51  1  0  0  0
 28 29  2  0  0  0
 28 31  1  0  0  0
 29 30  1  0  0  0
 29 52  1  0  0  0
 30 53  1  0  0  0
 32 33  1  0  0  0
 32 34  1  0  0  0
 32 35  1  0  0  0
M  END
> <i_i_glide_confnum>
71

> <i_i_glide_lignum>
4073

> <i_i_glide_posenum>
250

> <i_i_glide_rotatable_bonds>
7

> <i_m_Source_File_Index>
3291

> <b_m_subgroup_collapsed>
0

> <r_i_docking_score>
-5.34907

> <r_i_glide_ecoul>
-1.10802

> <r_i_glide_eff_state_penalty>
0

> <r_i_glide_einternal>
4.15289

> <r_i_glide_emodel>
-54.4867

> <r_i_glide_energy>
-42.4116

> <r_i_glide_erotb>
0.350852

> <r_i_glide_esite>
-0.0602614

> <r_i_glide_evdw>
-41.3035

> <r_i_glide_gscore>
-5.34907

> <r_i_glide_hbond>
0

> <r_i_glide_ligand_efficiency>
-0.162093

> <r_i_glide_ligand_efficiency_ln>
-1.1896

> <r_i_glide_ligand_efficiency_sa>
-0.519918

> <r_i_glide_lipo>
-2.34958

> <r_i_glide_metal>
0

> <r_i_glide_rewards>
-1.0587

> <s_i_glide_gridfile>
wee1_glide-grid

> <s_m_Source_File>
wee1_decoys_glide_SP.sdf

> <s_m_Source_Path>
/Users/zhangxujun/Desktop

> <s_m_entry_id>
3566

> <s_m_entry_name>
wee1_decoys_glide_SP.3291

> <s_m_subgroup_title>
wee1_decoys_glide_SP

> <s_m_subgroupid>
wee1_decoys_glide_SP


$$$$
