@<TRIPOS>MOLECULE
ZINC36065902_5695
75   79    1
SMALL
USER_CHARGES


@<TRIPOS>ATOM
      1 C1         -0.1765   50.4728   26.5880 C.3       1 UNK         0.0000 
      2 C2         -0.1136   51.8793   25.9749 C.3       1 UNK         0.0000 
      3 O3          1.0582   52.5787   26.3905 O.3       1 UNK         0.0000 
      4 C4          1.1272   53.1895   27.6020 C.2       1 UNK         0.0000 
      5 O5          0.2133   53.2214   28.4300 O.2       1 UNK         0.0000 
      6 C6          2.5068   53.8256   27.8906 C.3       1 UNK         0.0000 
      7 H7          2.4707   54.8229   27.4514 H         1 UNK         0.0000 
      8 C8          2.7393   53.9919   29.4102 C.3       1 UNK         0.0000 
      9 C9          4.1366   54.5708   29.6776 C.3       1 UNK         0.0000 
     10 C10         5.2746   53.8417   28.9290 C.3       1 UNK         0.0000 
     11 N11         4.9214   53.7964   27.5012 N.am      1 UNK         0.0000 
     12 C12         3.6764   53.0387   27.2489 C.3       1 UNK         0.0000 
     13 C13         5.7677   54.3569   26.5862 C.2       1 UNK         0.0000 
     14 O14         6.8301   54.8958   26.9118 O.2       1 UNK         0.0000 
     15 C15         5.4576   54.3104   25.1740 C.2       1 UNK         0.0000 
     16 C16         6.4124   54.4941   24.1778 C.2       1 UNK         0.0000 
     17 O17         5.7861   54.4802   22.9879 O.3       1 UNK         0.0000 
     18 C18         4.4879   54.2909   23.3147 C.2       1 UNK         0.0000 
     19 N19         4.2616   54.2388   24.6039 N.2       1 UNK         0.0000 
     20 C20         3.4662   54.4246   22.2145 C.3       1 UNK         0.0000 
     21 N21         3.5017   53.1870   21.2758 N.4       1 UNK         0.0000 
     22 C22         2.2138   52.3520   21.5220 C.3       1 UNK         0.0000 
     23 C23         2.0983   51.0377   20.7696 C.ar      1 UNK         0.0000 
     24 C24         2.4359   49.8371   21.4211 C.ar      1 UNK         0.0000 
     25 C25         2.3042   48.6075   20.7656 C.ar      1 UNK         0.0000 
     26 C26         1.8333   48.6111   19.4600 C.ar      1 UNK         0.0000 
     27 C27         1.4800   49.7700   18.8298 C.ar      1 UNK         0.0000 
     28 C28         1.5828   51.0068   19.4591 C.ar      1 UNK         0.0000 
     29 O29         1.0205   49.4784   17.5844 O.3       1 UNK         0.0000 
     30 C30         1.3634   48.1329   17.3730 C.3       1 UNK         0.0000 
     31 O31         1.6085   47.5587   18.6300 O.3       1 UNK         0.0000 
     32 C32         3.7105   53.4876   19.7542 C.3       1 UNK         0.0000 
     33 C33         4.6879   54.6004   19.3345 C.ar      1 UNK         0.0000 
     34 C34         5.9176   54.7277   19.9848 C.ar      1 UNK         0.0000 
     35 C35         6.8025   55.7639   19.6848 C.ar      1 UNK         0.0000 
     36 C36         6.4758   56.6699   18.6767 C.ar      1 UNK         0.0000 
     37 C37         5.2766   56.5347   17.9820 C.ar      1 UNK         0.0000 
     38 C38         4.3801   55.5058   18.2974 C.ar      1 UNK         0.0000 
     39 C39         3.1052   55.3879   17.4753 C.3       1 UNK         0.0000 
     40 C40         8.1176   55.8826   20.4328 C.3       1 UNK         0.0000 
     41 H41        -1.0529   49.9291   26.2406 H         1 UNK         0.0000 
     42 H42        -0.2368   50.5111   27.6767 H         1 UNK         0.0000 
     43 H43         0.7004   49.8823   26.3194 H         1 UNK         0.0000 
     44 H44        -0.0869   51.7967   24.8885 H         1 UNK         0.0000 
     45 H45        -1.0138   52.4467   26.2187 H         1 UNK         0.0000 
     46 H46         1.9935   54.6589   29.8475 H         1 UNK         0.0000 
     47 H47         2.6509   53.0280   29.9164 H         1 UNK         0.0000 
     48 H48         4.1524   55.6314   29.4251 H         1 UNK         0.0000 
     49 H49         4.3334   54.4966   30.7438 H         1 UNK         0.0000 
     50 H50         6.2444   54.3035   29.1288 H         1 UNK         0.0000 
     51 H51         5.3430   52.8124   29.2808 H         1 UNK         0.0000 
     52 H52         3.7856   52.0957   27.7784 H         1 UNK         0.0000 
     53 H53         3.5323   52.7358   26.2173 H         1 UNK         0.0000 
     54 H54         7.4839   54.6459   24.1709 H         1 UNK         0.0000 
     55 H55         2.4465   54.5725   22.5762 H         1 UNK         0.0000 
     56 H56         3.7050   55.2965   21.6359 H         1 UNK         0.0000 
     57 H57         2.1775   52.1880   22.6019 H         1 UNK         0.0000 
     58 H58         1.3823   53.0103   21.2548 H         1 UNK         0.0000 
     59 H59         2.8078   49.8484   22.4362 H         1 UNK         0.0000 
     60 H60         2.6013   47.6970   21.2606 H         1 UNK         0.0000 
     61 H61         1.2837   51.9101   18.9485 H         1 UNK         0.0000 
     62 H62         2.2767   48.0805   16.7719 H         1 UNK         0.0000 
     63 H63         0.5699   47.6048   16.8437 H         1 UNK         0.0000 
     64 H64         4.0256   52.5365   19.3208 H         1 UNK         0.0000 
     65 H65         2.7045   53.6967   19.3923 H         1 UNK         0.0000 
     66 H66         6.1985   54.0210   20.7405 H         1 UNK         0.0000 
     67 H67         7.1529   57.4734   18.4199 H         1 UNK         0.0000 
     68 H68         5.0457   57.2396   17.1943 H         1 UNK         0.0000 
     69 H69         3.1404   55.9986   16.5702 H         1 UNK         0.0000 
     70 H70         2.9529   54.3568   17.1512 H         1 UNK         0.0000 
     71 H71         2.2455   55.6909   18.0689 H         1 UNK         0.0000 
     72 H72         8.5095   54.8973   20.6861 H         1 UNK         0.0000 
     73 H73         8.8799   56.3666   19.8196 H         1 UNK         0.0000 
     74 H74         7.9875   56.4552   21.3517 H         1 UNK         0.0000 
     75 H75         4.2989   52.6345   21.5592 H         1 UNK         0.0000 
@<TRIPOS>BOND
     1    1    2 1    
     2    1   41 1    
     3    1   42 1    
     4    1   43 1    
     5    2    3 1    
     6    2   44 1    
     7    2   45 1    
     8    3    4 1    
     9    4    5 2    
    10    4    6 1    
    11    6    7 1    
    12    6   12 1    
    13    6    8 1    
    14    8    9 1    
    15    8   46 1    
    16    8   47 1    
    17    9   10 1    
    18    9   48 1    
    19    9   49 1    
    20   10   11 1    
    21   10   50 1    
    22   10   51 1    
    23   11   12 1    
    24   11   13 am   BACKBONE|DICT|INTERRES
    25   12   52 1    
    26   12   53 1    
    27   13   14 2    
    28   13   15 1    
    29   15   19 1    
    30   15   16 2    
    31   16   17 1    
    32   16   54 1    
    33   17   18 1    
    34   18   19 2    
    35   18   20 1    
    36   20   21 1    
    37   20   55 1    
    38   20   56 1    
    39   21   22 1    
    40   21   32 1    
    41   21   75 1    
    42   22   23 1    
    43   22   57 1    
    44   22   58 1    
    45   23   28 ar   
    46   23   24 ar   
    47   24   25 ar   
    48   24   59 1    
    49   25   26 ar   
    50   25   60 1    
    51   26   31 1    
    52   26   27 ar   
    53   27   28 ar   
    54   27   29 1    
    55   28   61 1    
    56   29   30 1    
    57   30   31 1    
    58   30   62 1    
    59   30   63 1    
    60   32   33 1    
    61   32   64 1    
    62   32   65 1    
    63   33   38 ar   
    64   33   34 ar   
    65   34   35 ar   
    66   34   66 1    
    67   35   36 ar   
    68   35   40 1    
    69   36   37 ar   
    70   36   67 1    
    71   37   38 ar   
    72   37   68 1    
    73   38   39 1    
    74   39   69 1    
    75   39   70 1    
    76   39   71 1    
    77   40   72 1    
    78   40   73 1    
    79   40   74 1    
@<TRIPOS>SUBSTRUCTURE
     1 UNK         1 GROUP             0       ****    0 ROOT    
