@<TRIPOS>MOLECULE
ZINC14151899_4425
45   47    1
SMALL
USER_CHARGES


@<TRIPOS>ATOM
      1 C1          1.6616   53.4269   25.0136 C.3       1 UNK         0.0000 
      2 C2          3.0197   53.7825   25.6010 C.ar      1 UNK         0.0000 
      3 C3          3.1572   53.7909   26.9938 C.ar      1 UNK         0.0000 
      4 C4          4.3903   54.0947   27.5694 C.ar      1 UNK         0.0000 
      5 N5          5.5010   54.4032   26.8602 N.ar      1 UNK         0.0000 
      6 C6          5.3656   54.3949   25.5367 C.ar      1 UNK         0.0000 
      7 C7          4.1675   54.0932   24.8232 C.ar      1 UNK         0.0000 
      8 C8          4.3915   54.1529   23.4047 C.2       1 UNK         0.0000 
      9 C9          5.6898   54.5474   23.0636 C.2       1 UNK         0.0000 
     10 S10         6.7044   54.7555   24.4807 S.3       1 UNK         0.0000 
     11 C11         6.3045   54.8967   21.7708 C.2       1 UNK         0.0000 
     12 O12         7.4715   55.2817   21.6547 O.2       1 UNK         0.0000 
     13 O13         5.4169   54.7983   20.7321 O.3       1 UNK         0.0000 
     14 C14         5.7252   55.0051   19.3334 C.3       1 UNK         0.0000 
     15 H15         4.7426   54.9712   18.8613 H         1 UNK         0.0000 
     16 C16         6.5710   53.8334   18.7823 C.3       1 UNK         0.0000 
     17 C17         6.3053   56.4146   19.0117 C.2       1 UNK         0.0000 
     18 O18         6.3269   57.2967   19.8699 O.2       1 UNK         0.0000 
     19 N19         6.7640   56.6081   17.7568 N.am      1 UNK         0.0000 
     20 C20         7.3617   57.7883   17.2942 C.ar      1 UNK         0.0000 
     21 C21         6.7891   58.4331   16.1938 C.ar      1 UNK         0.0000 
     22 C22         7.3746   59.5903   15.6807 C.ar      1 UNK         0.0000 
     23 C23         8.5313   60.1087   16.2629 C.ar      1 UNK         0.0000 
     24 C24         9.1159   59.4630   17.3541 C.ar      1 UNK         0.0000 
     25 C25         8.5452   58.2923   17.8594 C.ar      1 UNK         0.0000 
     26 F26         9.1547   57.6464   18.8814 F         1 UNK         0.0000 
     27 F27        10.2355   59.9720   17.9194 F         1 UNK         0.0000 
     28 F28         9.0840   61.2395   15.7687 F         1 UNK         0.0000 
     29 N29         3.4083   53.9030   22.4819 N.pl3     1 UNK         0.0000 
     30 C30         4.5862   54.0536   29.0690 C.3       1 UNK         0.0000 
     31 H31         0.9195   53.2036   25.7818 H         1 UNK         0.0000 
     32 H32         1.2846   54.2535   24.4105 H         1 UNK         0.0000 
     33 H33         1.7470   52.5517   24.3690 H         1 UNK         0.0000 
     34 H34         2.3148   53.5466   27.6253 H         1 UNK         0.0000 
     35 H35         6.6073   53.8380   17.6924 H         1 UNK         0.0000 
     36 H36         7.5989   53.8820   19.1408 H         1 UNK         0.0000 
     37 H37         6.1519   52.8702   19.0786 H         1 UNK         0.0000 
     38 H38         6.6125   55.8814   17.0748 H         1 UNK         0.0000 
     39 H39         5.8823   58.0541   15.7440 H         1 UNK         0.0000 
     40 H40         6.9171   60.1022   14.8465 H         1 UNK         0.0000 
     41 H41         2.4694   53.6378   22.7395 H         1 UNK         0.0000 
     42 H42         3.5865   54.0319   21.4928 H         1 UNK         0.0000 
     43 H43         3.6367   54.0774   29.6035 H         1 UNK         0.0000 
     44 H44         5.1036   53.1278   29.3194 H         1 UNK         0.0000 
     45 H45         5.1930   54.8949   29.4120 H         1 UNK         0.0000 
@<TRIPOS>BOND
     1    1    2 1    
     2    1   31 1    
     3    1   32 1    
     4    1   33 1    
     5    2    7 ar   
     6    2    3 ar   
     7    3    4 ar   
     8    3   34 1    
     9    4    5 ar   
    10    4   30 1    
    11    5    6 ar   
    12    6   10 1    
    13    6    7 ar   
    14    7    8 1    
    15    8    9 2    
    16    8   29 1    
    17    9   10 1    
    18    9   11 1    
    19   11   12 2    
    20   11   13 1    
    21   13   14 1    
    22   14   15 1    
    23   14   16 1    
    24   14   17 1    
    25   16   35 1    
    26   16   36 1    
    27   16   37 1    
    28   17   18 2    
    29   17   19 am   BACKBONE|DICT|INTERRES
    30   19   20 1    
    31   19   38 1    
    32   20   25 ar   
    33   20   21 ar   
    34   21   22 ar   
    35   21   39 1    
    36   22   23 ar   
    37   22   40 1    
    38   23   24 ar   
    39   23   28 1    
    40   24   25 ar   
    41   24   27 1    
    42   25   26 1    
    43   29   41 1    
    44   29   42 1    
    45   30   43 1    
    46   30   44 1    
    47   30   45 1    
@<TRIPOS>SUBSTRUCTURE
     1 UNK         1 GROUP             0       ****    0 ROOT    
