ZINC36704291_5712
                    3D
 Schrodinger Suite 2024-2.
 67 70  0  0  1  0            999 V2000
    5.4062   54.4769   28.7181 C   0  0  0  0  0  0
    4.2395   53.9707   27.8903 C   0  0  0  0  0  0
    3.2422   53.2005   28.4943 C   0  0  0  0  0  0
    2.1546   52.6889   27.7745 C   0  0  0  0  0  0
    2.0977   52.9829   26.3947 C   0  0  0  0  0  0
    3.1028   53.7874   25.7911 C   0  0  0  0  0  0
    4.1764   54.2886   26.5332 C   0  0  0  0  0  0
    2.7397   53.9873   24.0878 S   0  0  0  0  0  0
    1.3193   52.9663   24.3083 C   0  0  0  0  0  0
    1.1409   52.5382   25.5332 N   0  0  0  0  0  0
    0.5056   52.6446   23.1964 N   0  0  0  0  0  0
    1.1981   52.4961   21.8863 C   0  0  0  0  0  0
    1.8719   51.1113   21.7092 C   0  0  0  0  0  0
    3.2086   51.0857   20.9252 C   0  0  0  0  0  0
    3.1041   51.3184   19.3937 N   0  3  0  0  0  0
    2.2222   50.2901   18.6508 C   0  0  0  0  0  0
    2.7597   52.7662   18.9903 C   0  0  0  0  0  0
   -0.8221   52.2854   23.2753 C   0  0  0  0  0  0
   -1.4264   51.8770   22.2767 O   0  0  0  0  0  0
   -1.6542   52.4343   24.5846 C   0  0  0  0  0  0
   -3.1055   52.9049   24.3024 C   0  0  0  0  0  0
   -3.8381   53.0892   25.6526 C   0  0  0  0  0  0
   -3.7501   51.8720   26.5082 N   0  0  0  0  0  0
   -2.4081   51.2532   26.6719 C   0  0  0  0  0  0
   -1.6893   51.0687   25.3209 C   0  0  0  0  0  0
   -5.1971   50.8845   26.8050 S   0  0  0  0  0  0
   -6.3955   51.6523   26.4461 O   0  0  0  0  0  0
   -4.9595   49.5337   26.2813 O   0  0  0  0  0  0
   -5.1738   50.7487   28.6110 C   0  0  0  0  0  0
   -4.2748   49.9945   29.3548 C   0  0  0  0  0  0
   -4.4954   50.0937   30.7319 C   0  0  0  0  0  0
   -5.5807   50.8971   31.0432 C   0  0  0  0  0  0
   -6.3097   51.5861   29.6273 S   0  0  0  0  0  0
    1.1159   51.8399   28.4952 C   0  0  0  0  0  0
    5.9128   55.3061   28.2283 H   0  0  0  0  0  0
    5.0678   54.8408   29.6882 H   0  0  0  0  0  0
    6.1295   53.6775   28.8793 H   0  0  0  0  0  0
    3.3223   52.9801   29.5494 H   0  0  0  0  0  0
    4.9438   54.8855   26.0626 H   0  0  0  0  0  0
    0.5031   52.6689   21.0619 H   0  0  0  0  0  0
    1.9383   53.2867   21.7713 H   0  0  0  0  0  0
    2.0942   50.7004   22.6970 H   0  0  0  0  0  0
    1.1528   50.4083   21.2883 H   0  0  0  0  0  0
    3.9376   51.8073   21.3003 H   0  0  0  0  0  0
    3.6604   50.0983   20.9939 H   0  0  0  0  0  0
    1.1864   50.4166   18.9694 H   0  0  0  0  0  0
    2.3318   50.4900   17.5809 H   0  0  0  0  0  0
    2.6078   49.2982   18.8863 H   0  0  0  0  0  0
    1.6982   52.9336   19.1760 H   0  0  0  0  0  0
    3.3853   53.4403   19.5761 H   0  0  0  0  0  0
    2.9874   52.8532   17.9267 H   0  0  0  0  0  0
   -1.1737   53.2166   25.1700 H   0  0  0  0  0  0
   -3.1272   53.8772   23.8052 H   0  0  0  0  0  0
   -3.6774   52.1592   23.7410 H   0  0  0  0  0  0
   -3.4481   53.9312   26.2244 H   0  0  0  0  0  0
   -4.8876   53.3155   25.4664 H   0  0  0  0  0  0
   -1.8332   51.8573   27.3728 H   0  0  0  0  0  0
   -2.5231   50.2740   27.1404 H   0  0  0  0  0  0
   -2.2490   50.3168   24.7580 H   0  0  0  0  0  0
   -0.6941   50.6940   25.5673 H   0  0  0  0  0  0
   -3.4829   49.3917   28.9327 H   0  0  0  0  0  0
   -3.8772   49.5948   31.4670 H   0  0  0  0  0  0
   -5.9590   51.1231   32.0302 H   0  0  0  0  0  0
    0.9352   50.9107   27.9498 H   0  0  0  0  0  0
    0.1670   52.3776   28.5538 H   0  0  0  0  0  0
    1.4201   51.5718   29.5106 H   0  0  0  0  0  0
    4.0405   51.1359   19.0172 H   0  0  0  0  0  0
  1  2  1  0  0  0
  1 35  1  0  0  0
  1 36  1  0  0  0
  1 37  1  0  0  0
  2  7  2  0  0  0
  2  3  1  0  0  0
  3  4  2  0  0  0
  3 38  1  0  0  0
  4  5  1  0  0  0
  4 34  1  0  0  0
  5 10  1  0  0  0
  5  6  2  0  0  0
  6  7  1  0  0  0
  6  8  1  0  0  0
  7 39  1  0  0  0
  8  9  1  0  0  0
  9 10  2  0  0  0
  9 11  1  0  0  0
 11 12  1  0  0  0
 11 18  1  0  0  0
 12 13  1  0  0  0
 12 40  1  0  0  0
 12 41  1  0  0  0
 13 14  1  0  0  0
 13 42  1  0  0  0
 13 43  1  0  0  0
 14 15  1  0  0  0
 14 44  1  0  0  0
 14 45  1  0  0  0
 15 16  1  0  0  0
 15 17  1  0  0  0
 15 67  1  0  0  0
 16 46  1  0  0  0
 16 47  1  0  0  0
 16 48  1  0  0  0
 17 49  1  0  0  0
 17 50  1  0  0  0
 17 51  1  0  0  0
 18 19  2  0  0  0
 18 20  1  0  0  0
 20 25  1  0  0  0
 20 21  1  0  0  0
 20 52  1  0  0  0
 21 22  1  0  0  0
 21 53  1  0  0  0
 21 54  1  0  0  0
 22 23  1  0  0  0
 22 55  1  0  0  0
 22 56  1  0  0  0
 23 24  1  0  0  0
 23 26  1  0  0  0
 24 25  1  0  0  0
 24 57  1  0  0  0
 24 58  1  0  0  0
 25 59  1  0  0  0
 25 60  1  0  0  0
 26 27  2  0  0  0
 26 28  2  0  0  0
 26 29  1  0  0  0
 29 33  1  0  0  0
 29 30  2  0  0  0
 30 31  1  0  0  0
 30 61  1  0  0  0
 31 32  2  0  0  0
 31 62  1  0  0  0
 32 33  1  0  0  0
 32 63  1  0  0  0
 34 64  1  0  0  0
 34 65  1  0  0  0
 34 66  1  0  0  0
M  CHG  1  15   1
M  END
> <i_i_glide_confnum>
300

> <i_i_glide_lignum>
5713

> <i_i_glide_posenum>
244

> <i_i_glide_rotatable_bonds>
9

> <i_m_Source_File_Index>
2210

> <b_m_subgroup_collapsed>
0

> <r_i_docking_score>
-4.71203

> <r_i_glide_ecoul>
-5.65902

> <r_i_glide_eff_state_penalty>
0

> <r_i_glide_einternal>
14.113

> <r_i_glide_emodel>
-56.8993

> <r_i_glide_energy>
-47.8827

> <r_i_glide_erotb>
0.604213

> <r_i_glide_esite>
-0.126982

> <r_i_glide_evdw>
-42.2237

> <r_i_glide_gscore>
-4.71203

> <r_i_glide_hbond>
-0.2

> <r_i_glide_ligand_efficiency>
-0.138589

> <r_i_glide_ligand_efficiency_ln>
-1.04102

> <r_i_glide_ligand_efficiency_sa>
-0.448975

> <r_i_glide_lipo>
-2.34238

> <r_i_glide_metal>
0

> <r_i_glide_rewards>
0.313159

> <s_i_glide_gridfile>
wee1_glide-grid

> <s_m_Source_File>
wee1_decoys_glide_SP.sdf

> <s_m_Source_Path>
/Users/zhangxujun/Desktop

> <s_m_entry_id>
2485

> <s_m_entry_name>
wee1_decoys_glide_SP.2210

> <s_m_subgroup_title>
wee1_decoys_glide_SP

> <s_m_subgroupid>
wee1_decoys_glide_SP


$$$$
