@<TRIPOS>MOLECULE
ZINC15902305_2454
68   72    1
SMALL
USER_CHARGES


@<TRIPOS>ATOM
      1 C1          5.8314   53.9512   27.9912 C.3       1 UNK         0.0000 
      2 C2          4.4777   54.2431   27.3078 C.3       1 UNK         0.0000 
      3 H3          4.2226   55.2881   27.4997 H         1 UNK         0.0000 
      4 C4          3.3567   53.3685   27.9113 C.3       1 UNK         0.0000 
      5 C5          1.9974   53.6875   27.2588 C.3       1 UNK         0.0000 
      6 C6          2.0880   53.6591   25.7189 C.3       1 UNK         0.0000 
      7 C7          3.2711   54.4969   25.1936 C.3       1 UNK         0.0000 
      8 N8          4.5418   54.0477   25.8106 N.pl3     1 UNK         0.0000 
      9 S9          6.0092   54.6564   24.9988 S.o2      1 UNK         0.0000 
     10 O10         7.1013   53.7626   25.3708 O.2       1 UNK         0.0000 
     11 O11         6.1203   56.0945   25.2816 O.2       1 UNK         0.0000 
     12 C12         5.8739   54.4977   23.2133 C.ar      1 UNK         0.0000 
     13 C13         6.7053   55.3145   22.4524 C.ar      1 UNK         0.0000 
     14 C14         6.6301   55.2991   21.0666 C.ar      1 UNK         0.0000 
     15 C15         5.7204   54.4542   20.4119 C.ar      1 UNK         0.0000 
     16 C16         4.9067   53.6137   21.1859 C.ar      1 UNK         0.0000 
     17 C17         5.0000   53.6187   22.5755 C.ar      1 UNK         0.0000 
     18 C18         5.7093   54.3195   18.9036 C.2       1 UNK         0.0000 
     19 O19         4.9398   53.5303   18.3488 O.2       1 UNK         0.0000 
     20 N20         6.6160   55.0669   18.2377 N.am      1 UNK         0.0000 
     21 N21         6.9469   54.7069   16.9403 N.am      1 UNK         0.0000 
     22 C22         8.1767   54.1883   16.7349 C.2       1 UNK         0.0000 
     23 O23         9.0309   54.0841   17.6203 O.2       1 UNK         0.0000 
     24 C24         8.4752   53.7015   15.3072 C.3       1 UNK         0.0000 
     25 C25         9.4517   52.4883   15.1404 C.3       1 UNK         0.0000 
     26 C26         9.3432   51.9658   13.6755 C.3       1 UNK         0.0000 
     27 C27        10.3049   50.7768   13.4323 C.3       1 UNK         0.0000 
     28 C28         9.9340   49.6143   14.3864 C.3       1 UNK         0.0000 
     29 C29        10.0635   50.0905   15.8554 C.3       1 UNK         0.0000 
     30 C30         9.1048   51.2882   16.0928 C.3       1 UNK         0.0000 
     31 C31        11.5223   50.5404   16.1289 C.3       1 UNK         0.0000 
     32 C32        11.8977   51.7027   15.1728 C.3       1 UNK         0.0000 
     33 C33        11.7634   51.2277   13.7034 C.3       1 UNK         0.0000 
     34 C34        10.9368   52.8978   15.4148 C.3       1 UNK         0.0000 
     35 H35         5.7342   53.9998   29.0745 H         1 UNK         0.0000 
     36 H36         6.2088   52.9590   27.7421 H         1 UNK         0.0000 
     37 H37         6.5917   54.6873   27.7277 H         1 UNK         0.0000 
     38 H38         3.2817   53.5193   28.9902 H         1 UNK         0.0000 
     39 H39         3.5713   52.3144   27.7344 H         1 UNK         0.0000 
     40 H40         1.6686   54.6740   27.5840 H         1 UNK         0.0000 
     41 H41         1.2352   52.9892   27.6081 H         1 UNK         0.0000 
     42 H42         1.1571   54.0196   25.2799 H         1 UNK         0.0000 
     43 H43         2.1966   52.6277   25.3784 H         1 UNK         0.0000 
     44 H44         3.1143   55.5220   25.5068 H         1 UNK         0.0000 
     45 H45         3.2844   54.4359   24.1137 H         1 UNK         0.0000 
     46 H46         7.4161   55.9693   22.9386 H         1 UNK         0.0000 
     47 H47         7.3103   55.9344   20.5206 H         1 UNK         0.0000 
     48 H48         4.2231   52.9222   20.7118 H         1 UNK         0.0000 
     49 H49         4.3850   52.9374   23.1413 H         1 UNK         0.0000 
     50 H50         6.9165   55.9932   18.4989 H         1 UNK         0.0000 
     51 H51         6.2815   54.9875   16.2338 H         1 UNK         0.0000 
     52 H52         8.8593   54.5546   14.7479 H         1 UNK         0.0000 
     53 H53         7.5227   53.4505   14.8340 H         1 UNK         0.0000 
     54 H54         9.5729   52.7682   12.9700 H         1 UNK         0.0000 
     55 H55         8.3196   51.6564   13.4537 H         1 UNK         0.0000 
     56 H56        10.2190   50.4428   12.3983 H         1 UNK         0.0000 
     57 H57        10.5821   48.7530   14.2038 H         1 UNK         0.0000 
     58 H58         8.9154   49.2727   14.1892 H         1 UNK         0.0000 
     59 H59         9.8011   49.2742   16.5292 H         1 UNK         0.0000 
     60 H60         8.0747   50.9640   15.9417 H         1 UNK         0.0000 
     61 H61         9.1722   51.5806   17.1397 H         1 UNK         0.0000 
     62 H62        12.2058   49.7006   15.9909 H         1 UNK         0.0000 
     63 H63        11.6319   50.8551   17.1691 H         1 UNK         0.0000 
     64 H64        12.9252   52.0167   15.3656 H         1 UNK         0.0000 
     65 H65        12.0402   52.0304   13.0189 H         1 UNK         0.0000 
     66 H66        12.4553   50.4068   13.5015 H         1 UNK         0.0000 
     67 H67        11.0671   53.2540   16.4363 H         1 UNK         0.0000 
     68 H68        11.2226   53.7314   14.7720 H         1 UNK         0.0000 
@<TRIPOS>BOND
     1    1    2 1    
     2    1   35 1    
     3    1   36 1    
     4    1   37 1    
     5    2    3 1    
     6    2    8 1    
     7    2    4 1    
     8    4    5 1    
     9    4   38 1    
    10    4   39 1    
    11    5    6 1    
    12    5   40 1    
    13    5   41 1    
    14    6    7 1    
    15    6   42 1    
    16    6   43 1    
    17    7    8 1    
    18    7   44 1    
    19    7   45 1    
    20    8    9 1    
    21    9   10 2    
    22    9   11 2    
    23    9   12 1    
    24   12   17 ar   
    25   12   13 ar   
    26   13   14 ar   
    27   13   46 1    
    28   14   15 ar   
    29   14   47 1    
    30   15   16 ar   
    31   15   18 1    
    32   16   17 ar   
    33   16   48 1    
    34   17   49 1    
    35   18   19 2    
    36   18   20 am   BACKBONE|DICT|INTERRES
    37   20   21 1    
    38   20   50 1    
    39   21   22 am   BACKBONE|DICT|INTERRES
    40   21   51 1    
    41   22   23 2    
    42   22   24 1    
    43   24   25 1    
    44   24   52 1    
    45   24   53 1    
    46   25   30 1    
    47   25   34 1    
    48   25   26 1    
    49   26   27 1    
    50   26   54 1    
    51   26   55 1    
    52   27   33 1    
    53   27   28 1    
    54   27   56 1    
    55   28   29 1    
    56   28   57 1    
    57   28   58 1    
    58   29   30 1    
    59   29   31 1    
    60   29   59 1    
    61   30   60 1    
    62   30   61 1    
    63   31   32 1    
    64   31   62 1    
    65   31   63 1    
    66   32   33 1    
    67   32   34 1    
    68   32   64 1    
    69   33   65 1    
    70   33   66 1    
    71   34   67 1    
    72   34   68 1    
@<TRIPOS>SUBSTRUCTURE
     1 UNK         1 GROUP             0       ****    0 ROOT    
