@<TRIPOS>MOLECULE
ZINC39637524_1277
70   74    1
SMALL
USER_CHARGES


@<TRIPOS>ATOM
      1 C1         -0.1566   43.8410   16.5684 C.3       1 UNK         0.0000 
      2 C2         -0.8407   44.6498   17.6911 C.3       1 UNK         0.0000 
      3 H3         -1.6063   45.2718   17.2228 H         1 UNK         0.0000 
      4 C4         -1.5432   43.7076   18.6982 C.3       1 UNK         0.0000 
      5 C5         -2.3412   44.4865   19.7604 C.3       1 UNK         0.0000 
      6 C6         -1.4824   45.5497   20.4814 C.3       1 UNK         0.0000 
      7 C7         -0.7091   46.4588   19.4843 C.3       1 UNK         0.0000 
      8 H8         -1.4700   46.9659   18.8823 H         1 UNK         0.0000 
      9 C9          0.1205   45.5884   18.4838 C.3       1 UNK         0.0000 
     10 H10         0.7370   44.9234   19.0931 H         1 UNK         0.0000 
     11 C11         1.0994   46.3995   17.5975 C.3       1 UNK         0.0000 
     12 N12         0.0392   47.5741   20.0817 N.am      1 UNK         0.0000 
     13 C13        -0.4702   48.5983   20.7919 C.2       1 UNK         0.0000 
     14 O14        -1.6565   48.6540   21.1155 O.2       1 UNK         0.0000 
     15 C15         0.5373   49.6864   21.2662 C.3       1 UNK         0.0000 
     16 H16         1.5434   49.2759   21.2004 H         1 UNK         0.0000 
     17 C17         0.2237   50.2029   22.6938 C.3       1 UNK         0.0000 
     18 N18        -0.6666   51.3518   22.4721 N.am      1 UNK         0.0000 
     19 C19        -0.7876   51.6886   21.0512 C.3       1 UNK         0.0000 
     20 C20         0.4146   50.9793   20.3941 C.3       1 UNK         0.0000 
     21 C21         0.2351   50.8482   18.8531 C.3       1 UNK         0.0000 
     22 C22         1.4486   50.1563   18.1982 C.3       1 UNK         0.0000 
     23 N23         2.7044   51.0060   18.4794 N.4       1 UNK         0.0000 
     24 C24         2.9395   51.3244   19.9709 C.3       1 UNK         0.0000 
     25 C25         1.6447   51.9312   20.5461 C.3       1 UNK         0.0000 
     26 C26        -1.3116   52.0576   23.4320 C.2       1 UNK         0.0000 
     27 O27        -2.1759   52.8966   23.1722 O.2       1 UNK         0.0000 
     28 C28        -0.9071   51.8544   24.8669 C.ar      1 UNK         0.0000 
     29 C29        -1.8147   51.3352   25.7920 C.ar      1 UNK         0.0000 
     30 C30        -1.4608   51.2967   27.1384 C.ar      1 UNK         0.0000 
     31 C31        -0.2086   51.8135   27.5463 C.ar      1 UNK         0.0000 
     32 C32         0.2066   51.8278   28.8989 C.ar      1 UNK         0.0000 
     33 C33         1.4427   52.3685   29.2446 C.ar      1 UNK         0.0000 
     34 C34         2.2839   52.8970   28.2685 C.ar      1 UNK         0.0000 
     35 C35         1.9043   52.8965   26.9273 C.ar      1 UNK         0.0000 
     36 C36         0.6566   52.3471   26.5428 C.ar      1 UNK         0.0000 
     37 N37         0.3057   52.3574   25.2255 N.ar      1 UNK         0.0000 
     38 H38         0.6928   43.2697   16.9447 H         1 UNK         0.0000 
     39 H39        -0.8516   43.1368   16.1093 H         1 UNK         0.0000 
     40 H40         0.2013   44.4869   15.7668 H         1 UNK         0.0000 
     41 H41        -2.2166   43.0359   18.1631 H         1 UNK         0.0000 
     42 H42        -0.8108   43.0495   19.1671 H         1 UNK         0.0000 
     43 H43        -3.1895   44.9782   19.2811 H         1 UNK         0.0000 
     44 H44        -2.7689   43.7964   20.4875 H         1 UNK         0.0000 
     45 H45        -2.1331   46.1425   21.1250 H         1 UNK         0.0000 
     46 H46        -0.7798   45.0467   21.1439 H         1 UNK         0.0000 
     47 H47         0.5690   47.1237   16.9773 H         1 UNK         0.0000 
     48 H48         1.6846   45.7586   16.9385 H         1 UNK         0.0000 
     49 H49         1.8289   46.9371   18.1987 H         1 UNK         0.0000 
     50 H50         1.0247   47.5923   19.8696 H         1 UNK         0.0000 
     51 H51        -0.2030   49.4183   23.3216 H         1 UNK         0.0000 
     52 H52         1.1536   50.5286   23.1620 H         1 UNK         0.0000 
     53 H53        -0.8004   52.7541   20.8269 H         1 UNK         0.0000 
     54 H54        -1.7132   51.2618   20.6613 H         1 UNK         0.0000 
     55 H55        -0.6633   50.2736   18.6214 H         1 UNK         0.0000 
     56 H56         0.0609   51.8240   18.3965 H         1 UNK         0.0000 
     57 H57         1.6668   49.1719   18.6029 H         1 UNK         0.0000 
     58 H58         1.3685   50.0853   17.1119 H         1 UNK         0.0000 
     59 H59         3.5428   50.5453   18.1073 H         1 UNK         0.0000 
     60 H60         3.2510   50.3942   20.4443 H         1 UNK         0.0000 
     61 H61         3.7775   52.0236   19.9975 H         1 UNK         0.0000 
     62 H62         1.4485   52.8967   20.0789 H         1 UNK         0.0000 
     63 H63         1.8214   52.1742   21.5949 H         1 UNK         0.0000 
     64 H64        -2.7825   50.9682   25.4787 H         1 UNK         0.0000 
     65 H65        -2.1318   50.8737   27.8737 H         1 UNK         0.0000 
     66 H66        -0.4451   51.4166   29.6583 H         1 UNK         0.0000 
     67 H67         1.7494   52.3781   30.2806 H         1 UNK         0.0000 
     68 H68         3.2397   53.3127   28.5525 H         1 UNK         0.0000 
     69 H69         2.5608   53.3069   26.1730 H         1 UNK         0.0000 
     70 H70         2.6332   51.8739   17.9674 H         1 UNK         0.0000 
@<TRIPOS>BOND
     1    1    2 1    
     2    1   38 1    
     3    1   39 1    
     4    1   40 1    
     5    2    3 1    
     6    2    9 1    
     7    2    4 1    
     8    4    5 1    
     9    4   41 1    
    10    4   42 1    
    11    5    6 1    
    12    5   43 1    
    13    5   44 1    
    14    6    7 1    
    15    6   45 1    
    16    6   46 1    
    17    7    8 1    
    18    7    9 1    
    19    7   12 1    
    20    9   10 1    
    21    9   11 1    
    22   11   47 1    
    23   11   48 1    
    24   11   49 1    
    25   12   13 am   BACKBONE|DICT|INTERRES
    26   12   50 1    
    27   13   14 2    
    28   13   15 1    
    29   15   16 1    
    30   15   20 1    
    31   15   17 1    
    32   17   18 1    
    33   17   51 1    
    34   17   52 1    
    35   18   19 1    
    36   18   26 am   BACKBONE|DICT|INTERRES
    37   19   20 1    
    38   19   53 1    
    39   19   54 1    
    40   20   25 1    
    41   20   21 1    
    42   21   22 1    
    43   21   55 1    
    44   21   56 1    
    45   22   23 1    
    46   22   57 1    
    47   22   58 1    
    48   23   24 1    
    49   23   59 1    
    50   23   70 1    
    51   24   25 1    
    52   24   60 1    
    53   24   61 1    
    54   25   62 1    
    55   25   63 1    
    56   26   27 2    
    57   26   28 1    
    58   28   37 ar   
    59   28   29 ar   
    60   29   30 ar   
    61   29   64 1    
    62   30   31 ar   
    63   30   65 1    
    64   31   36 ar   
    65   31   32 ar   
    66   32   33 ar   
    67   32   66 1    
    68   33   34 ar   
    69   33   67 1    
    70   34   35 ar   
    71   34   68 1    
    72   35   36 ar   
    73   35   69 1    
    74   36   37 ar   
@<TRIPOS>SUBSTRUCTURE
     1 UNK         1 GROUP             0       ****    0 ROOT    
