@<TRIPOS>MOLECULE
ZINC02782875_2989
51   54    1
SMALL
USER_CHARGES


@<TRIPOS>ATOM
      1 C1          0.8874   52.4095   27.8501 C.3       1 UNK         0.0000 
      2 C2          2.2219   52.7448   28.4833 C.2       1 UNK         0.0000 
      3 C3          2.5179   52.4971   29.8355 C.2       1 UNK         0.0000 
      4 C4          3.8164   52.8186   30.1976 C.2       1 UNK         0.0000 
      5 S5          4.7005   53.4949   28.8812 S.3       1 UNK         0.0000 
      6 C6          3.3312   53.2957   27.8191 C.2       1 UNK         0.0000 
      7 C7          3.4517   53.6221   26.3983 C.2       1 UNK         0.0000 
      8 N8          4.5319   54.0942   25.9233 N.2       1 UNK         0.0000 
      9 N9          4.5508   54.1301   24.5805 N.am      1 UNK         0.0000 
     10 C10         5.6496   54.5033   23.8910 C.2       1 UNK         0.0000 
     11 O11         6.7048   54.8747   24.4127 O.2       1 UNK         0.0000 
     12 C12         5.4808   54.4967   22.4549 C.ar      1 UNK         0.0000 
     13 C13         4.4581   53.8567   21.7323 C.ar      1 UNK         0.0000 
     14 C14         4.6428   54.2082   20.4158 C.ar      1 UNK         0.0000 
     15 N15         5.8289   54.9178   20.3733 N.pl3     1 UNK         0.0000 
     16 N16         6.3020   55.1050   21.6209 N.2       1 UNK         0.0000 
     17 C17         6.3773   55.6230   19.1976 C.3       1 UNK         0.0000 
     18 H18         6.0015   56.6450   19.2746 H         1 UNK         0.0000 
     19 C19         5.7223   54.9797   17.9447 C.3       1 UNK         0.0000 
     20 C20         4.2057   54.7307   18.0844 C.3       1 UNK         0.0000 
     21 H21         3.6979   55.6872   18.2202 H         1 UNK         0.0000 
     22 N22         3.9084   53.9377   19.2807 N.pl3     1 UNK         0.0000 
     23 C23         3.6297   54.1433   16.7978 C.ar      1 UNK         0.0000 
     24 C24         3.6878   52.7664   16.5581 C.ar      1 UNK         0.0000 
     25 C25         3.1697   52.2362   15.3799 C.ar      1 UNK         0.0000 
     26 C26         2.5997   53.0847   14.4352 C.ar      1 UNK         0.0000 
     27 C27         2.5470   54.4594   14.6593 C.ar      1 UNK         0.0000 
     28 C28         3.0630   54.9902   15.8397 C.ar      1 UNK         0.0000 
     29 F29         2.0949   52.5723   13.2902 F         1 UNK         0.0000 
     30 C30         7.9410   55.7064   19.1235 C.3       1 UNK         0.0000 
     31 C31         8.4578   56.7003   18.0480 C.3       1 UNK         0.0000 
     32 F32         8.1735   56.3059   16.8068 F         1 UNK         0.0000 
     33 F33         7.9149   57.9087   18.2011 F         1 UNK         0.0000 
     34 F34         9.7827   56.8487   18.1079 F         1 UNK         0.0000 
     35 F35         8.4522   56.0955   20.2925 F         1 UNK         0.0000 
     36 F36         8.4447   54.4978   18.8766 F         1 UNK         0.0000 
     37 H37         0.3980   53.2970   27.4509 H         1 UNK         0.0000 
     38 H38         1.0134   51.7376   26.9995 H         1 UNK         0.0000 
     39 H39         0.1950   51.9266   28.5420 H         1 UNK         0.0000 
     40 H40         1.7993   52.0755   30.5220 H         1 UNK         0.0000 
     41 H41         4.2954   52.6992   31.1595 H         1 UNK         0.0000 
     42 H42         2.5606   53.3905   25.8168 H         1 UNK         0.0000 
     43 H43         3.7118   53.8224   24.1126 H         1 UNK         0.0000 
     44 H44         3.6400   53.2633   22.1131 H         1 UNK         0.0000 
     45 H45         5.8932   55.6076   17.0708 H         1 UNK         0.0000 
     46 H46         6.2219   54.0375   17.7075 H         1 UNK         0.0000 
     47 H47         2.9072   53.8605   19.3928 H         1 UNK         0.0000 
     48 H48         4.1383   52.1022   17.2828 H         1 UNK         0.0000 
     49 H49         3.2167   51.1703   15.2078 H         1 UNK         0.0000 
     50 H50         2.1105   55.1098   13.9159 H         1 UNK         0.0000 
     51 H51         3.0262   56.0572   16.0072 H         1 UNK         0.0000 
@<TRIPOS>BOND
     1    1    2 1    
     2    1   37 1    
     3    1   38 1    
     4    1   39 1    
     5    2    6 2    
     6    2    3 1    
     7    3    4 2    
     8    3   40 1    
     9    4    5 1    
    10    4   41 1    
    11    5    6 1    
    12    6    7 1    
    13    7    8 2    
    14    7   42 1    
    15    8    9 1    
    16    9   10 am   BACKBONE|DICT|INTERRES
    17    9   43 1    
    18   10   11 2    
    19   10   12 1    
    20   12   16 ar   
    21   12   13 ar   
    22   13   14 ar   
    23   13   44 1    
    24   14   22 1    
    25   14   15 ar   
    26   15   16 ar   
    27   15   17 1    
    28   17   18 1    
    29   17   19 1    
    30   17   30 1    
    31   19   20 1    
    32   19   45 1    
    33   19   46 1    
    34   20   21 1    
    35   20   22 1    
    36   20   23 1    
    37   22   47 1    
    38   23   28 ar   
    39   23   24 ar   
    40   24   25 ar   
    41   24   48 1    
    42   25   26 ar   
    43   25   49 1    
    44   26   27 ar   
    45   26   29 1    
    46   27   28 ar   
    47   27   50 1    
    48   28   51 1    
    49   30   31 1    
    50   30   35 1    
    51   30   36 1    
    52   31   32 1    
    53   31   33 1    
    54   31   34 1    
@<TRIPOS>SUBSTRUCTURE
     1 UNK         1 GROUP             0       ****    0 ROOT    
