ZINC14474001_5841
                    3D
 Schrodinger Suite 2024-2.
 55 59  0  0  1  0            999 V2000
    3.9883   54.3550   25.4834 C   0  0  0  0  0  0
    5.2156   54.2255   26.1301 C   0  0  0  0  0  0
    6.3884   54.1439   25.3825 C   0  0  0  0  0  0
    6.3383   54.1962   23.9879 C   0  0  0  0  0  0
    5.1091   54.3673   23.3223 C   0  0  0  0  0  0
    3.9361   54.4227   24.0912 C   0  0  0  0  0  0
    4.9983   54.5824   21.8011 C   0  0  2  0  0  0
    4.1693   55.2851   21.6901 H   0  0  0  0  0  0
    4.6483   53.3192   20.9878 C   0  0  1  0  0  0
    5.5036   52.6382   21.0743 H   0  0  0  0  0  0
    3.3980   52.5045   21.3187 C   0  0  0  0  0  0
    3.1055   51.8604   19.9749 C   0  0  0  0  0  0
    3.7515   52.4975   18.9798 C   0  0  0  0  0  0
    4.4491   53.7182   19.5290 C   0  0  2  0  0  0
    3.7681   54.5681   19.4341 H   0  0  0  0  0  0
    5.7964   54.1987   19.0031 C   0  0  0  0  0  0
    6.3074   53.8944   17.7336 C   0  0  0  0  0  0
    7.5469   54.4008   17.3226 C   0  0  0  0  0  0
    8.3037   55.1832   18.1969 C   0  0  0  0  0  0
    7.8155   55.4818   19.4645 C   0  0  0  0  0  0
    6.5578   55.0242   19.8569 C   0  0  0  0  0  0
    6.1336   55.2980   21.1785 N   0  0  0  0  0  0
    8.1771   54.0774   15.6743 S   0  0  0  0  0  0
    7.0335   53.6745   14.8456 O   0  0  0  0  0  0
    8.9921   55.2406   15.3025 O   0  0  0  0  0  0
    9.2636   52.6859   15.8326 N   0  0  0  0  0  0
   10.5022   52.9022   16.6229 C   0  0  0  0  0  0
   11.5265   51.7834   16.3281 C   0  0  0  0  0  0
   10.9211   50.3687   16.4782 C   0  0  0  0  0  0
    9.5745   50.2361   15.7363 C   0  0  0  0  0  0
    8.6104   51.3835   16.0946 C   0  0  0  0  0  0
    7.5044   54.0760   23.2822 O   0  0  0  0  0  0
    3.0776   54.4099   26.0616 H   0  0  0  0  0  0
    5.2575   54.1739   27.2086 H   0  0  0  0  0  0
    7.3297   54.0243   25.8951 H   0  0  0  0  0  0
    2.9785   54.5550   23.6093 H   0  0  0  0  0  0
    3.6114   51.7592   22.0818 H   0  0  0  0  0  0
    2.5712   53.1235   21.6703 H   0  0  0  0  0  0
    2.4760   50.9891   19.8701 H   0  0  0  0  0  0
    3.7131   52.2523   17.9270 H   0  0  0  0  0  0
    5.7320   53.2735   17.0610 H   0  0  0  0  0  0
    9.2684   55.5629   17.8952 H   0  0  0  0  0  0
    8.4191   56.0755   20.1359 H   0  0  0  0  0  0
    6.7719   55.7011   21.8478 H   0  0  0  0  0  0
   10.9329   53.8770   16.3906 H   0  0  0  0  0  0
   10.2549   52.8140   17.6818 H   0  0  0  0  0  0
   11.9107   51.9103   15.3141 H   0  0  0  0  0  0
   12.3874   51.8912   16.9877 H   0  0  0  0  0  0
   10.7657   50.1481   17.5342 H   0  0  0  0  0  0
   11.6253   49.6197   16.1154 H   0  0  0  0  0  0
    9.1056   49.2835   15.9751 H   0  0  0  0  0  0
    9.7440   50.2240   14.6571 H   0  0  0  0  0  0
    8.4113   51.2972   17.1644 H   0  0  0  0  0  0
    7.6921   51.2992   15.5139 H   0  0  0  0  0  0
    8.3282   54.4093   23.6816 H   0  0  0  0  0  0
  1  6  2  0  0  0
  1  2  1  0  0  0
  1 33  1  0  0  0
  2  3  2  0  0  0
  2 34  1  0  0  0
  3  4  1  0  0  0
  3 35  1  0  0  0
  4  5  2  0  0  0
  4 32  1  0  0  0
  5  6  1  0  0  0
  5  7  1  0  0  0
  6 36  1  0  0  0
  7  8  1  0  0  0
  7 22  1  0  0  0
  7  9  1  0  0  0
  9 10  1  0  0  0
  9 14  1  0  0  0
  9 11  1  0  0  0
 11 12  1  0  0  0
 11 37  1  0  0  0
 11 38  1  0  0  0
 12 13  2  0  0  0
 12 39  1  0  0  0
 13 14  1  0  0  0
 13 40  1  0  0  0
 14 15  1  0  0  0
 14 16  1  0  0  0
 16 21  2  0  0  0
 16 17  1  0  0  0
 17 18  2  0  0  0
 17 41  1  0  0  0
 18 19  1  0  0  0
 18 23  1  0  0  0
 19 20  2  0  0  0
 19 42  1  0  0  0
 20 21  1  0  0  0
 20 43  1  0  0  0
 21 22  1  0  0  0
 22 44  1  0  0  0
 23 24  2  0  0  0
 23 25  2  0  0  0
 23 26  1  0  0  0
 26 31  1  0  0  0
 26 27  1  0  0  0
 27 28  1  0  0  0
 27 45  1  0  0  0
 27 46  1  0  0  0
 28 29  1  0  0  0
 28 47  1  0  0  0
 28 48  1  0  0  0
 29 30  1  0  0  0
 29 49  1  0  0  0
 29 50  1  0  0  0
 30 31  1  0  0  0
 30 51  1  0  0  0
 30 52  1  0  0  0
 31 53  1  0  0  0
 31 54  1  0  0  0
 32 55  1  0  0  0
M  END
> <i_i_glide_confnum>
10

> <i_i_glide_lignum>
5842

> <i_i_glide_posenum>
279

> <i_i_glide_rotatable_bonds>
4

> <i_m_Source_File_Index>
3951

> <b_m_subgroup_collapsed>
0

> <r_i_docking_score>
-5.53513

> <r_i_glide_ecoul>
-6.31616

> <r_i_glide_eff_state_penalty>
0

> <r_i_glide_einternal>
4.87551

> <r_i_glide_emodel>
-51.0323

> <r_i_glide_energy>
-36.8536

> <r_i_glide_erotb>
0.350688

> <r_i_glide_esite>
-0.000275325

> <r_i_glide_evdw>
-30.5374

> <r_i_glide_gscore>
-5.53513

> <r_i_glide_hbond>
-0.307239

> <r_i_glide_ligand_efficiency>
-0.190866

> <r_i_glide_ligand_efficiency_ln>
-1.2674

> <r_i_glide_ligand_efficiency_sa>
-0.586402

> <r_i_glide_lipo>
-2.45135

> <r_i_glide_metal>
0

> <r_i_glide_rewards>
-0.652659

> <s_i_glide_gridfile>
wee1_glide-grid

> <s_m_Source_File>
wee1_decoys_glide_SP.sdf

> <s_m_Source_Path>
/Users/zhangxujun/Desktop

> <s_m_entry_id>
4226

> <s_m_entry_name>
wee1_decoys_glide_SP.3951

> <s_m_subgroup_title>
wee1_decoys_glide_SP

> <s_m_subgroupid>
wee1_decoys_glide_SP


$$$$
