ZINC39188347_172
                    3D
 Schrodinger Suite 2024-2.
 47 51  0  0  1  0            999 V2000
   -7.7614   52.5460   29.3991 C   0  0  0  0  0  0
   -7.9806   52.3890   30.8299 C   0  0  0  0  0  0
   -7.0995   51.7269   31.6252 C   0  0  0  0  0  0
   -5.9374   51.1643   31.0810 C   0  0  0  0  0  0
   -4.9787   50.4983   31.6821 N   0  3  0  0  0  0
   -3.9523   50.0967   30.7141 C   0  0  0  0  0  0
   -4.4902   50.6965   29.4334 C   0  0  0  0  0  0
   -5.6727   51.2926   29.7119 C   0  0  0  0  0  0
   -6.6431   52.0122   28.8675 C   0  0  0  0  0  0
   -3.8269   50.6143   28.1671 C   0  0  0  0  0  0
   -3.8655   51.5235   27.2766 N   0  0  0  0  0  0
   -3.0888   51.4230   26.0829 N   0  0  0  0  0  0
   -2.8832   52.4758   25.1684 C   0  0  0  0  0  0
   -1.9416   52.2182   24.3590 N   0  0  0  0  0  0
   -1.3799   50.9581   24.6799 N   0  0  0  0  0  0
   -1.9931   50.4783   25.9013 C   0  0  1  0  0  0
   -2.3673   49.4610   25.7615 H   0  0  0  0  0  0
   -0.9164   50.4967   26.8799 N   0  0  0  0  0  0
    0.3034   50.2136   26.1467 N   0  0  0  0  0  0
    0.0226   50.5658   24.7636 C   0  0  2  0  0  0
    0.1332   49.6560   24.1700 H   0  0  0  0  0  0
    1.2301   51.7240   24.0364 S   0  0  0  0  0  0
    1.0695   53.1628   25.1382 C   0  0  0  0  0  0
    2.3105   53.4137   25.9798 C   0  0  0  0  0  0
    3.4051   54.0974   25.4367 C   0  0  0  0  0  0
    4.5226   54.3770   26.2262 C   0  0  0  0  0  0
    4.5522   53.9765   27.5625 C   0  0  0  0  0  0
    3.4635   53.2954   28.1109 C   0  0  0  0  0  0
    2.3441   53.0164   27.3220 C   0  0  0  0  0  0
    3.5124   52.7329   29.9321 Br  0  0  0  0  0  0
   -8.4817   53.0638   28.7789 H   0  0  0  0  0  0
   -8.8728   52.8080   31.2709 H   0  0  0  0  0  0
   -7.3159   51.6386   32.6800 H   0  0  0  0  0  0
   -2.9905   50.4974   31.0433 H   0  0  0  0  0  0
   -3.8966   49.0083   30.6990 H   0  0  0  0  0  0
   -6.4894   52.1225   27.8031 H   0  0  0  0  0  0
   -3.2686   49.6943   28.0695 H   0  0  0  0  0  0
   -3.4962   53.3708   25.1367 H   0  0  0  0  0  0
   -1.0521   49.7498   27.5744 H   0  0  0  0  0  0
    0.3747   49.2040   26.1548 H   0  0  0  0  0  0
    0.8618   54.0394   24.5247 H   0  0  0  0  0  0
    0.2063   53.0337   25.7904 H   0  0  0  0  0  0
    3.3900   54.4147   24.4031 H   0  0  0  0  0  0
    5.3663   54.9005   25.8003 H   0  0  0  0  0  0
    5.4194   54.1893   28.1712 H   0  0  0  0  0  0
    1.5059   52.4862   27.7540 H   0  0  0  0  0  0
   -4.9123   50.3258   32.6840 H   0  0  0  0  0  0
  1  9  2  0  0  0
  1  2  1  0  0  0
  1 31  1  0  0  0
  2  3  2  0  0  0
  2 32  1  0  0  0
  3  4  1  0  0  0
  3 33  1  0  0  0
  4  8  1  0  0  0
  4  5  2  0  0  0
  5  6  1  0  0  0
  5 47  1  0  0  0
  6  7  1  0  0  0
  6 34  1  0  0  0
  6 35  1  0  0  0
  7  8  2  0  0  0
  7 10  1  0  0  0
  8  9  1  0  0  0
  9 36  1  0  0  0
 10 11  2  0  0  0
 10 37  1  0  0  0
 11 12  1  0  0  0
 12 16  1  0  0  0
 12 13  1  0  0  0
 13 14  2  0  0  0
 13 38  1  0  0  0
 14 15  1  0  0  0
 15 20  1  0  0  0
 15 16  1  0  0  0
 16 17  1  0  0  0
 16 18  1  0  0  0
 18 19  1  0  0  0
 18 39  1  0  0  0
 19 20  1  0  0  0
 19 40  1  0  0  0
 20 21  1  0  0  0
 20 22  1  0  0  0
 22 23  1  0  0  0
 23 24  1  0  0  0
 23 41  1  0  0  0
 23 42  1  0  0  0
 24 29  2  0  0  0
 24 25  1  0  0  0
 25 26  2  0  0  0
 25 43  1  0  0  0
 26 27  1  0  0  0
 26 44  1  0  0  0
 27 28  2  0  0  0
 27 45  1  0  0  0
 28 29  1  0  0  0
 28 30  1  0  0  0
 29 46  1  0  0  0
M  CHG  1   5   1
M  END
> <i_i_glide_confnum>
57

> <i_i_glide_lignum>
173

> <i_i_glide_posenum>
325

> <i_i_glide_rotatable_bonds>
5

> <i_m_Source_File_Index>
588

> <b_m_subgroup_collapsed>
0

> <r_i_docking_score>
-5.40847

> <r_i_glide_ecoul>
-10.1424

> <r_i_glide_eff_state_penalty>
0

> <r_i_glide_einternal>
8.2423

> <r_i_glide_emodel>
-56.4378

> <r_i_glide_energy>
-42.6448

> <r_i_glide_erotb>
0.480533

> <r_i_glide_esite>
-0.411899

> <r_i_glide_evdw>
-32.5024

> <r_i_glide_gscore>
-5.40847

> <r_i_glide_hbond>
-0.182584

> <r_i_glide_ligand_efficiency>
-0.19316

> <r_i_glide_ligand_efficiency_ln>
-1.24843

> <r_i_glide_ligand_efficiency_sa>
-0.586546

> <r_i_glide_lipo>
-1.79413

> <r_i_glide_metal>
0

> <r_i_glide_rewards>
-0.353905

> <s_i_glide_gridfile>
wee1_glide-grid

> <s_m_Source_File>
wee1_decoys_glide_SP.sdf

> <s_m_Source_Path>
/Users/zhangxujun/Desktop

> <s_m_entry_id>
863

> <s_m_entry_name>
wee1_decoys_glide_SP.588

> <s_m_subgroup_title>
wee1_decoys_glide_SP

> <s_m_subgroupid>
wee1_decoys_glide_SP


$$$$
