@<TRIPOS>MOLECULE
ZINC05377480_5871
60   63    1
SMALL
USER_CHARGES


@<TRIPOS>ATOM
      1 C1          3.6669   50.9531   21.0642 C.3       1 UNK         0.0000 
      2 C2          2.9352   52.2876   20.7586 C.3       1 UNK         0.0000 
      3 C3          3.9048   53.4656   21.0629 C.3       1 UNK         0.0000 
      4 C4          4.1717   53.6652   22.5757 C.3       1 UNK         0.0000 
      5 C5          2.8852   53.6754   23.4577 C.3       1 UNK         0.0000 
      6 H6          2.3851   54.6143   23.2080 H         1 UNK         0.0000 
      7 C7          3.1262   53.7788   24.9811 C.ar      1 UNK         0.0000 
      8 C8          4.2928   54.3688   25.4942 C.ar      1 UNK         0.0000 
      9 C9          4.5098   54.4964   26.8621 C.ar      1 UNK         0.0000 
     10 C10         3.5449   54.0563   27.7566 C.ar      1 UNK         0.0000 
     11 C11         2.3807   53.4648   27.2774 C.ar      1 UNK         0.0000 
     12 C12         2.1592   53.2962   25.9033 C.ar      1 UNK         0.0000 
     13 C13         0.9197   52.5252   25.4361 C.3       1 UNK         0.0000 
     14 C14         0.6137   52.7389   23.9457 C.3       1 UNK         0.0000 
     15 C15         1.8900   52.5228   23.1138 C.3       1 UNK         0.0000 
     16 H16         2.3158   51.5632   23.4069 H         1 UNK         0.0000 
     17 C17         1.6461   52.4960   21.5855 C.3       1 UNK         0.0000 
     18 H18         1.2606   53.4854   21.3438 H         1 UNK         0.0000 
     19 C19         0.6426   51.5228   20.9800 C.3       1 UNK         0.0000 
     20 C20         1.0034   51.4766   19.4814 C.3       1 UNK         0.0000 
     21 C21         2.3580   52.2073   19.3408 C.2       1 UNK         0.0000 
     22 N22         2.9312   52.6710   18.3022 N.2       1 UNK         0.0000 
     23 N23         2.4370   52.2273   17.1316 N.am      1 UNK         0.0000 
     24 C24         3.0998   52.4886   15.9414 C.2       1 UNK         0.0000 
     25 O25         4.0382   53.2740   15.7732 O.2       1 UNK         0.0000 
     26 O26         2.5384   51.7256   14.9661 O.3       1 UNK         0.0000 
     27 C27         3.0427   51.5937   13.6266 C.3       1 UNK         0.0000 
     28 C28         4.4600   50.9714   13.6206 C.3       1 UNK         0.0000 
     29 C29         2.0565   50.6202   12.9511 C.3       1 UNK         0.0000 
     30 C30         3.0266   52.9445   12.8708 C.3       1 UNK         0.0000 
     31 O31         3.7519   54.1995   29.1025 O.3       1 UNK         0.0000 
     32 H32         3.0436   50.0713   20.9088 H         1 UNK         0.0000 
     33 H33         4.5408   50.8400   20.4202 H         1 UNK         0.0000 
     34 H34         4.0340   50.8970   22.0814 H         1 UNK         0.0000 
     35 H35         4.8506   53.3198   20.5375 H         1 UNK         0.0000 
     36 H36         3.5043   54.3970   20.6602 H         1 UNK         0.0000 
     37 H37         4.8618   52.8978   22.9262 H         1 UNK         0.0000 
     38 H38         4.6817   54.6252   22.6592 H         1 UNK         0.0000 
     39 H39         5.0554   54.7456   24.8316 H         1 UNK         0.0000 
     40 H40         5.4220   54.9530   27.2167 H         1 UNK         0.0000 
     41 H41         1.6504   53.1008   27.9857 H         1 UNK         0.0000 
     42 H42         1.0973   51.4631   25.6132 H         1 UNK         0.0000 
     43 H43         0.0512   52.7934   26.0390 H         1 UNK         0.0000 
     44 H44        -0.1560   52.0288   23.6405 H         1 UNK         0.0000 
     45 H45         0.1760   53.7174   23.7422 H         1 UNK         0.0000 
     46 H46         0.7790   50.5276   21.4071 H         1 UNK         0.0000 
     47 H47        -0.3905   51.8129   21.1749 H         1 UNK         0.0000 
     48 H48         1.0888   50.4455   19.1361 H         1 UNK         0.0000 
     49 H49         0.2419   51.9745   18.8798 H         1 UNK         0.0000 
     50 H50         1.6978   51.5432   17.1618 H         1 UNK         0.0000 
     51 H51         4.4744   50.0203   14.1567 H         1 UNK         0.0000 
     52 H52         4.8114   50.7859   12.6053 H         1 UNK         0.0000 
     53 H53         5.1931   51.6198   14.1037 H         1 UNK         0.0000 
     54 H54         1.0393   51.0163   12.9576 H         1 UNK         0.0000 
     55 H55         2.3286   50.4280   11.9126 H         1 UNK         0.0000 
     56 H56         2.0281   49.6598   13.4696 H         1 UNK         0.0000 
     57 H57         3.7601   53.6466   13.2686 H         1 UNK         0.0000 
     58 H58         3.2520   52.8106   11.8117 H         1 UNK         0.0000 
     59 H59         2.0495   53.4240   12.9415 H         1 UNK         0.0000 
     60 H60         4.6159   54.5778   29.2826 H         1 UNK         0.0000 
@<TRIPOS>BOND
     1    1    2 1    
     2    1   32 1    
     3    1   33 1    
     4    1   34 1    
     5    2   17 1    
     6    2   21 1    
     7    2    3 1    
     8    3    4 1    
     9    3   35 1    
    10    3   36 1    
    11    4    5 1    
    12    4   37 1    
    13    4   38 1    
    14    5    6 1    
    15    5   15 1    
    16    5    7 1    
    17    7   12 ar   
    18    7    8 ar   
    19    8    9 ar   
    20    8   39 1    
    21    9   10 ar   
    22    9   40 1    
    23   10   11 ar   
    24   10   31 1    
    25   11   12 ar   
    26   11   41 1    
    27   12   13 1    
    28   13   14 1    
    29   13   42 1    
    30   13   43 1    
    31   14   15 1    
    32   14   44 1    
    33   14   45 1    
    34   15   16 1    
    35   15   17 1    
    36   17   18 1    
    37   17   19 1    
    38   19   20 1    
    39   19   46 1    
    40   19   47 1    
    41   20   21 1    
    42   20   48 1    
    43   20   49 1    
    44   21   22 2    
    45   22   23 1    
    46   23   24 am   BACKBONE|DICT|INTERRES
    47   23   50 1    
    48   24   25 2    
    49   24   26 1    
    50   26   27 1    
    51   27   28 1    
    52   27   29 1    
    53   27   30 1    
    54   28   51 1    
    55   28   52 1    
    56   28   53 1    
    57   29   54 1    
    58   29   55 1    
    59   29   56 1    
    60   30   57 1    
    61   30   58 1    
    62   30   59 1    
    63   31   60 1    
@<TRIPOS>SUBSTRUCTURE
     1 UNK         1 GROUP             0       ****    0 ROOT    
