@<TRIPOS>MOLECULE
ZINC14162302_4227
70   75    1
SMALL
USER_CHARGES


@<TRIPOS>ATOM
      1 C1          2.3057   51.3390   22.4272 C.3       1 UNK         0.0000 
      2 C2          1.7159   50.1692   23.2298 C.3       1 UNK         0.0000 
      3 O3          0.4102   50.4577   23.7087 O.3       1 UNK         0.0000 
      4 C4          0.1797   51.2734   24.7655 C.2       1 UNK         0.0000 
      5 O5          1.0907   51.8536   25.3685 O.2       1 UNK         0.0000 
      6 C6         -1.2773   51.3819   25.1203 C.2       1 UNK         0.0000 
      7 C7         -1.6141   51.9632   26.3056 C.2       1 UNK         0.0000 
      8 O8         -2.8793   52.1084   26.7553 O.3       1 UNK         0.0000 
      9 C9         -3.9405   51.7786   25.9881 C.2       1 UNK         0.0000 
     10 C10        -3.8374   51.1827   24.7741 C.2       1 UNK         0.0000 
     11 C11        -2.4230   50.8056   24.2094 C.3       1 UNK         0.0000 
     12 C12        -2.2985   49.3181   24.0457 C.ar      1 UNK         0.0000 
     13 C13        -2.3368   48.2789   24.9746 C.ar      1 UNK         0.0000 
     14 C14        -2.2209   46.9654   24.5256 C.ar      1 UNK         0.0000 
     15 C15        -2.0407   46.7007   23.1627 C.ar      1 UNK         0.0000 
     16 C16        -1.9803   47.7408   22.2231 C.ar      1 UNK         0.0000 
     17 C17        -2.1389   49.0412   22.7063 C.ar      1 UNK         0.0000 
     18 N18        -2.1770   50.2089   21.9353 N.am      1 UNK         0.0000 
     19 C19        -2.2651   51.3100   22.7394 C.2       1 UNK         0.0000 
     20 O20        -2.2232   52.4967   22.4101 O.2       1 UNK         0.0000 
     21 C21        -2.0362   50.1748   20.4433 C.3       1 UNK         0.0000 
     22 C22        -0.6050   50.5510   19.9968 C.3       1 UNK         0.0000 
     23 C23        -0.7221   51.0284   18.5515 C.3       1 UNK         0.0000 
     24 C24        -2.0452   51.7929   18.5219 C.3       1 UNK         0.0000 
     25 C25        -2.9092   51.1926   19.6448 C.3       1 UNK         0.0000 
     26 C26        -2.4334   48.7283   19.9667 C.3       1 UNK         0.0000 
     27 C27        -1.7392   47.5685   20.7239 C.3       1 UNK         0.0000 
     28 H28        -0.6625   47.6564   20.5711 H         1 UNK         0.0000 
     29 C29        -2.1506   46.1906   20.1661 C.3       1 UNK         0.0000 
     30 F30        -2.2844   45.9494   25.4104 F         1 UNK         0.0000 
     31 C31        -5.0899   50.8217   24.0409 C.2       1 UNK         0.0000 
     32 O32        -5.0888   50.1578   23.0048 O.2       1 UNK         0.0000 
     33 C33        -6.4352   51.1820   24.7004 C.3       1 UNK         0.0000 
     34 C34        -6.3833   52.3901   25.6682 C.3       1 UNK         0.0000 
     35 C35        -5.2430   52.1413   26.6918 C.3       1 UNK         0.0000 
     36 C36        -7.7224   52.4358   26.4338 C.3       1 UNK         0.0000 
     37 C37        -6.1110   53.6953   24.8818 C.3       1 UNK         0.0000 
     38 N38        -0.8065   52.4908   27.2816 N.pl3     1 UNK         0.0000 
     39 H39         3.2790   51.0645   22.0195 H         1 UNK         0.0000 
     40 H40         2.4469   52.2259   23.0463 H         1 UNK         0.0000 
     41 H41         1.6751   51.6215   21.5869 H         1 UNK         0.0000 
     42 H42         1.6437   49.2960   22.5805 H         1 UNK         0.0000 
     43 H43         2.3660   49.8860   24.0607 H         1 UNK         0.0000 
     44 H44        -2.4590   48.4704   26.0328 H         1 UNK         0.0000 
     45 H45        -1.9234   45.6782   22.8459 H         1 UNK         0.0000 
     46 H46        -0.2227   51.3532   20.6261 H         1 UNK         0.0000 
     47 H47         0.1048   49.7275   20.0822 H         1 UNK         0.0000 
     48 H48         0.1206   51.6532   18.2522 H         1 UNK         0.0000 
     49 H49        -0.7571   50.1770   17.8697 H         1 UNK         0.0000 
     50 H50        -1.8688   52.8553   18.7058 H         1 UNK         0.0000 
     51 H51        -2.5290   51.7127   17.5458 H         1 UNK         0.0000 
     52 H52        -3.8015   50.7225   19.2235 H         1 UNK         0.0000 
     53 H53        -3.2948   51.9928   20.2698 H         1 UNK         0.0000 
     54 H54        -2.2545   48.6271   18.8960 H         1 UNK         0.0000 
     55 H55        -3.5118   48.6034   20.0944 H         1 UNK         0.0000 
     56 H56        -1.5632   45.3857   20.6037 H         1 UNK         0.0000 
     57 H57        -3.2040   45.9828   20.3527 H         1 UNK         0.0000 
     58 H58        -1.9931   46.1435   19.0876 H         1 UNK         0.0000 
     59 H59        -6.7071   50.2959   25.2756 H         1 UNK         0.0000 
     60 H60        -7.1969   51.2931   23.9288 H         1 UNK         0.0000 
     61 H61        -5.4634   51.3197   27.3749 H         1 UNK         0.0000 
     62 H62        -5.1179   53.0461   27.2809 H         1 UNK         0.0000 
     63 H63        -8.5650   52.5635   25.7529 H         1 UNK         0.0000 
     64 H64        -7.8998   51.5207   27.0029 H         1 UNK         0.0000 
     65 H65        -7.7501   53.2683   27.1401 H         1 UNK         0.0000 
     66 H66        -6.8949   53.8850   24.1469 H         1 UNK         0.0000 
     67 H67        -6.0896   54.5500   25.5551 H         1 UNK         0.0000 
     68 H68        -5.1614   53.6870   24.3447 H         1 UNK         0.0000 
     69 H69         0.1979   52.4693   27.1633 H         1 UNK         0.0000 
     70 H70        -1.1868   52.8262   28.1522 H         1 UNK         0.0000 
@<TRIPOS>BOND
     1    1    2 1    
     2    1   39 1    
     3    1   40 1    
     4    1   41 1    
     5    2    3 1    
     6    2   42 1    
     7    2   43 1    
     8    3    4 1    
     9    4    5 2    
    10    4    6 1    
    11    6   11 1    
    12    6    7 2    
    13    7    8 1    
    14    7   38 1    
    15    8    9 1    
    16    9   35 1    
    17    9   10 2    
    18   10   11 1    
    19   10   31 1    
    20   11   19 1    
    21   11   12 1    
    22   12   17 ar   
    23   12   13 ar   
    24   13   14 ar   
    25   13   44 1    
    26   14   15 ar   
    27   14   30 1    
    28   15   16 ar   
    29   15   45 1    
    30   16   27 1    
    31   16   17 ar   
    32   17   18 1    
    33   18   19 am   BACKBONE|DICT|INTERRES
    34   18   21 1    
    35   19   20 2    
    36   21   25 1    
    37   21   22 1    
    38   21   26 1    
    39   22   23 1    
    40   22   46 1    
    41   22   47 1    
    42   23   24 1    
    43   23   48 1    
    44   23   49 1    
    45   24   25 1    
    46   24   50 1    
    47   24   51 1    
    48   25   52 1    
    49   25   53 1    
    50   26   27 1    
    51   26   54 1    
    52   26   55 1    
    53   27   28 1    
    54   27   29 1    
    55   29   56 1    
    56   29   57 1    
    57   29   58 1    
    58   31   32 2    
    59   31   33 1    
    60   33   34 1    
    61   33   59 1    
    62   33   60 1    
    63   34   35 1    
    64   34   36 1    
    65   34   37 1    
    66   35   61 1    
    67   35   62 1    
    68   36   63 1    
    69   36   64 1    
    70   36   65 1    
    71   37   66 1    
    72   37   67 1    
    73   37   68 1    
    74   38   69 1    
    75   38   70 1    
@<TRIPOS>SUBSTRUCTURE
     1 UNK         1 GROUP             0       ****    0 ROOT    
