@<TRIPOS>MOLECULE
ZINC31632231_2504
55   58    1
SMALL
USER_CHARGES


@<TRIPOS>ATOM
      1 C1          1.0833   57.1005   16.2017 C.3       1 UNK         0.0000 
      2 C2          2.5745   57.1201   16.4816 C.ar      1 UNK         0.0000 
      3 C3          3.2829   58.3174   16.3989 C.ar      1 UNK         0.0000 
      4 C4          4.6479   58.3397   16.6677 C.ar      1 UNK         0.0000 
      5 C5          5.3314   57.1635   17.0133 C.ar      1 UNK         0.0000 
      6 C6          4.5996   55.9671   17.1050 C.ar      1 UNK         0.0000 
      7 C7          3.2344   55.9434   16.8334 C.ar      1 UNK         0.0000 
      8 C8          6.8393   57.2019   17.3714 C.3       1 UNK         0.0000 
      9 C9          7.0345   57.2232   18.8796 C.2       1 UNK         0.0000 
     10 O10         6.7044   58.1337   19.6418 O.2       1 UNK         0.0000 
     11 N11         7.6774   56.0739   19.1960 N.am      1 UNK         0.0000 
     12 C12         7.9270   55.2743   18.1290 C.2       1 UNK         0.0000 
     13 O13         8.2825   54.0981   18.1260 O.2       1 UNK         0.0000 
     14 N14         7.5274   55.9737   17.0616 N.am      1 UNK         0.0000 
     15 C15         8.0647   55.6908   20.5768 C.3       1 UNK         0.0000 
     16 C16         6.8385   55.3917   21.4700 C.2       1 UNK         0.0000 
     17 O17         5.7047   55.6371   21.0658 O.2       1 UNK         0.0000 
     18 N18         7.1044   54.8776   22.6874 N.am      1 UNK         0.0000 
     19 C19         6.1673   54.6205   23.6818 C.2       1 UNK         0.0000 
     20 C20         4.8549   54.0915   23.6555 C.2       1 UNK         0.0000 
     21 C21         4.2684   54.1130   24.9583 C.2       1 UNK         0.0000 
     22 C22         5.1806   54.5279   25.9417 C.2       1 UNK         0.0000 
     23 S23         6.7011   55.0043   25.2785 S.3       1 UNK         0.0000 
     24 C24         4.9348   54.4806   27.4424 C.3       1 UNK         0.0000 
     25 C25         3.4177   54.4801   27.7088 C.3       1 UNK         0.0000 
     26 C26         2.7086   53.4123   26.8653 C.3       1 UNK         0.0000 
     27 C27         2.8561   53.6382   25.3417 C.3       1 UNK         0.0000 
     28 C28         4.2419   53.4826   22.4843 C.2       1 UNK         0.0000 
     29 O29         4.8892   52.8143   21.6811 O.2       1 UNK         0.0000 
     30 N30         2.9375   53.7028   22.3215 N.am      1 UNK         0.0000 
     31 C31         7.6227   58.3998   16.7647 C.3       1 UNK         0.0000 
     32 H32         0.8176   57.8562   15.4602 H         1 UNK         0.0000 
     33 H33         0.7730   56.1362   15.7950 H         1 UNK         0.0000 
     34 H34         0.5220   57.2974   17.1163 H         1 UNK         0.0000 
     35 H35         2.7796   59.2412   16.1482 H         1 UNK         0.0000 
     36 H36         5.1516   59.2947   16.6205 H         1 UNK         0.0000 
     37 H37         5.0807   55.0449   17.3977 H         1 UNK         0.0000 
     38 H38         2.6925   55.0127   16.9154 H         1 UNK         0.0000 
     39 H39         7.9105   55.8166   16.1419 H         1 UNK         0.0000 
     40 H40         8.6402   56.4966   21.0299 H         1 UNK         0.0000 
     41 H41         8.7258   54.8276   20.5612 H         1 UNK         0.0000 
     42 H42         8.0736   54.8962   22.9891 H         1 UNK         0.0000 
     43 H43         5.4293   55.2968   27.9649 H         1 UNK         0.0000 
     44 H44         5.3726   53.5657   27.8459 H         1 UNK         0.0000 
     45 H45         2.9871   55.4559   27.4912 H         1 UNK         0.0000 
     46 H46         3.2337   54.3002   28.7683 H         1 UNK         0.0000 
     47 H47         1.6497   53.3710   27.1263 H         1 UNK         0.0000 
     48 H48         3.1158   52.4405   27.1353 H         1 UNK         0.0000 
     49 H49         2.5894   52.7176   24.8214 H         1 UNK         0.0000 
     50 H50         2.1303   54.3843   25.0168 H         1 UNK         0.0000 
     51 H51         2.4884   53.3722   21.4798 H         1 UNK         0.0000 
     52 H52         2.4365   54.2992   22.9585 H         1 UNK         0.0000 
     53 H53         7.3087   59.3572   17.1856 H         1 UNK         0.0000 
     54 H54         8.6984   58.3231   16.9348 H         1 UNK         0.0000 
     55 H55         7.4740   58.4584   15.6853 H         1 UNK         0.0000 
@<TRIPOS>BOND
     1    1    2 1    
     2    1   32 1    
     3    1   33 1    
     4    1   34 1    
     5    2    7 ar   
     6    2    3 ar   
     7    3    4 ar   
     8    3   35 1    
     9    4    5 ar   
    10    4   36 1    
    11    5    6 ar   
    12    5    8 1    
    13    6    7 ar   
    14    6   37 1    
    15    7   38 1    
    16    8   14 1    
    17    8    9 1    
    18    8   31 1    
    19    9   10 2    
    20    9   11 am   BACKBONE|DICT|INTERRES
    21   11   12 am   BACKBONE|DICT|INTERRES
    22   11   15 1    
    23   12   13 2    
    24   12   14 am   BACKBONE|DICT|INTERRES
    25   14   39 1    
    26   15   16 1    
    27   15   40 1    
    28   15   41 1    
    29   16   17 2    
    30   16   18 am   BACKBONE|DICT|INTERRES
    31   18   19 am   BACKBONE|DICT|INTERRES
    32   18   42 1    
    33   19   23 1    
    34   19   20 2    
    35   20   21 1    
    36   20   28 1    
    37   21   27 1    
    38   21   22 2    
    39   22   23 1    
    40   22   24 1    
    41   24   25 1    
    42   24   43 1    
    43   24   44 1    
    44   25   26 1    
    45   25   45 1    
    46   25   46 1    
    47   26   27 1    
    48   26   47 1    
    49   26   48 1    
    50   27   49 1    
    51   27   50 1    
    52   28   29 2    
    53   28   30 am   BACKBONE|DICT|INTERRES
    54   30   51 1    
    55   30   52 1    
    56   31   53 1    
    57   31   54 1    
    58   31   55 1    
@<TRIPOS>SUBSTRUCTURE
     1 UNK         1 GROUP             0       ****    0 ROOT    
