@<TRIPOS>MOLECULE
ZINC09578810_5073
65   69    1
SMALL
USER_CHARGES


@<TRIPOS>ATOM
      1 C1          1.3172   53.9762   30.3448 C.ar      1 UNK         0.0000 
      2 C2          2.0944   52.8387   30.1480 C.ar      1 UNK         0.0000 
      3 C3          2.9385   52.7607   29.0423 C.ar      1 UNK         0.0000 
      4 C4          2.9814   53.8096   28.1145 C.ar      1 UNK         0.0000 
      5 C5          2.2431   54.9705   28.3580 C.ar      1 UNK         0.0000 
      6 C6          1.4116   55.0548   29.4710 C.ar      1 UNK         0.0000 
      7 C7          3.8359   53.6696   26.8366 C.3       1 UNK         0.0000 
      8 H8          4.2693   52.6706   26.8815 H         1 UNK         0.0000 
      9 C9          5.0280   54.6634   26.8760 C.3       1 UNK         0.0000 
     10 O10         5.9666   54.3775   25.8456 O.3       1 UNK         0.0000 
     11 C11         5.4113   54.3652   24.5867 C.ar      1 UNK         0.0000 
     12 C12         6.3143   54.5598   23.5418 C.ar      1 UNK         0.0000 
     13 C13         5.8766   54.4979   22.2226 C.ar      1 UNK         0.0000 
     14 C14         4.5346   54.2477   21.9530 C.ar      1 UNK         0.0000 
     15 C15         3.6328   54.0541   22.9979 C.ar      1 UNK         0.0000 
     16 C16         4.0439   54.0967   24.3522 C.ar      1 UNK         0.0000 
     17 N17         3.1975   53.7933   25.4786 N.am      1 UNK         0.0000 
     18 C18         1.8998   53.3792   25.2927 C.2       1 UNK         0.0000 
     19 O19         1.1269   53.9243   24.4991 O.2       1 UNK         0.0000 
     20 C20         1.4055   52.0966   26.0032 C.3       1 UNK         0.0000 
     21 C21        -0.2593   51.1109   27.6375 C.3       1 UNK         0.0000 
     22 C22        -1.6600   51.2720   28.2468 C.3       1 UNK         0.0000 
     23 C23        -2.7513   51.0920   27.1614 C.3       1 UNK         0.0000 
     24 C24        -2.5168   52.0489   25.9588 C.3       1 UNK         0.0000 
     25 C25        -1.0982   51.8851   25.3803 C.3       1 UNK         0.0000 
     26 C26        -4.1627   51.2941   27.7748 C.2       1 UNK         0.0000 
     27 O27        -4.9599   52.0699   27.2417 O.2       1 UNK         0.0000 
     28 N28        -4.4321   50.6179   28.9146 N.am      1 UNK         0.0000 
     29 C29        -5.5693   50.7520   29.7405 C.ar      1 UNK         0.0000 
     30 C30        -6.8584   50.9607   29.2220 C.ar      1 UNK         0.0000 
     31 C31        -7.9466   51.1200   30.0809 C.ar      1 UNK         0.0000 
     32 C32        -7.7624   51.0733   31.4620 C.ar      1 UNK         0.0000 
     33 C33        -6.4886   50.8595   31.9866 C.ar      1 UNK         0.0000 
     34 C34        -5.3968   50.6907   31.1320 C.ar      1 UNK         0.0000 
     35 O35        -4.1564   50.4967   31.6817 O.3       1 UNK         0.0000 
     36 H36         0.6592   54.0323   31.2014 H         1 UNK         0.0000 
     37 H37         2.0361   52.0239   30.8530 H         1 UNK         0.0000 
     38 H38         3.5295   51.8689   28.8890 H         1 UNK         0.0000 
     39 H39         2.3034   55.8081   27.6817 H         1 UNK         0.0000 
     40 H40         0.8349   55.9509   29.6532 H         1 UNK         0.0000 
     41 H41         5.5490   54.6124   27.8332 H         1 UNK         0.0000 
     42 H42         4.6793   55.6897   26.7490 H         1 UNK         0.0000 
     43 H43         7.3599   54.7445   23.7527 H         1 UNK         0.0000 
     44 H44         6.5750   54.6456   21.4137 H         1 UNK         0.0000 
     45 H45         4.1905   54.2004   20.9286 H         1 UNK         0.0000 
     46 H46         2.6186   53.8445   22.7021 H         1 UNK         0.0000 
     47 H47         1.4398   51.2822   25.2805 H         1 UNK         0.0000 
     48 H48         2.0138   51.7942   26.8475 H         1 UNK         0.0000 
     49 H49        -0.0955   50.1133   27.2197 H         1 UNK         0.0000 
     50 H50         0.4886   51.3064   28.4047 H         1 UNK         0.0000 
     51 H51        -1.7418   50.5069   29.0194 H         1 UNK         0.0000 
     52 H52        -1.6822   52.2570   28.6988 H         1 UNK         0.0000 
     53 H53        -2.7509   50.0557   26.8159 H         1 UNK         0.0000 
     54 H54        -2.5913   53.0941   26.2698 H         1 UNK         0.0000 
     55 H55        -3.2093   51.8333   25.1439 H         1 UNK         0.0000 
     56 H56        -0.9393   52.6198   24.5912 H         1 UNK         0.0000 
     57 H57        -0.9139   50.8819   24.9869 H         1 UNK         0.0000 
     58 H58        -3.6790   50.0772   29.3216 H         1 UNK         0.0000 
     59 H59        -7.0281   50.9945   28.1546 H         1 UNK         0.0000 
     60 H60        -8.9347   51.2760   29.6734 H         1 UNK         0.0000 
     61 H61        -8.6073   51.1941   32.1254 H         1 UNK         0.0000 
     62 H62        -6.3452   50.8205   33.0566 H         1 UNK         0.0000 
     63 H63        -4.0305   50.9149   32.5538 H         1 UNK         0.0000 
     64 N64        -0.0679   52.1591   26.5079 N.4       1 UNK         0.0000 
     65 H65        -0.2188   53.0835   26.8981 H         1 UNK         0.0000 
@<TRIPOS>BOND
     1    1    6 ar   
     2    1    2 ar   
     3    1   36 1    
     4    2    3 ar   
     5    2   37 1    
     6    3    4 ar   
     7    3   38 1    
     8    4    5 ar   
     9    4    7 1    
    10    5    6 ar   
    11    5   39 1    
    12    6   40 1    
    13    7    8 1    
    14    7   17 1    
    15    7    9 1    
    16    9   10 1    
    17    9   41 1    
    18    9   42 1    
    19   10   11 1    
    20   11   16 ar   
    21   11   12 ar   
    22   12   13 ar   
    23   12   43 1    
    24   13   14 ar   
    25   13   44 1    
    26   14   15 ar   
    27   14   45 1    
    28   15   16 ar   
    29   15   46 1    
    30   16   17 1    
    31   17   18 am   BACKBONE|DICT|INTERRES
    32   18   19 2    
    33   18   20 1    
    34   20   47 1    
    35   20   48 1    
    36   20   64 1    
    37   21   22 1    
    38   21   49 1    
    39   21   50 1    
    40   21   64 1    
    41   22   23 1    
    42   22   51 1    
    43   22   52 1    
    44   23   24 1    
    45   23   26 1    
    46   23   53 1    
    47   24   25 1    
    48   24   54 1    
    49   24   55 1    
    50   25   56 1    
    51   25   57 1    
    52   25   64 1    
    53   26   27 2    
    54   26   28 am   BACKBONE|DICT|INTERRES
    55   28   29 1    
    56   28   58 1    
    57   29   34 ar   
    58   29   30 ar   
    59   30   31 ar   
    60   30   59 1    
    61   31   32 ar   
    62   31   60 1    
    63   32   33 ar   
    64   32   61 1    
    65   33   34 ar   
    66   33   62 1    
    67   34   35 1    
    68   35   63 1    
    69   64   65 1    
@<TRIPOS>SUBSTRUCTURE
     1 UNK         1 GROUP             0       ****    0 ROOT    
