@<TRIPOS>MOLECULE
ZINC21710601_2466
65   69    1
SMALL
USER_CHARGES


@<TRIPOS>ATOM
      1 C1          5.0937   54.1148   28.2657 C.ar      1 UNK         0.0000 
      2 C2          5.8734   54.4822   27.1707 C.ar      1 UNK         0.0000 
      3 C3          5.3489   54.4957   25.8633 C.ar      1 UNK         0.0000 
      4 C4          4.0003   54.1371   25.6972 C.ar      1 UNK         0.0000 
      5 C5          3.2215   53.7206   26.7848 C.ar      1 UNK         0.0000 
      6 C6          3.7701   53.7316   28.0713 C.ar      1 UNK         0.0000 
      7 N7          1.9138   53.2850   26.5380 N.pl3     1 UNK         0.0000 
      8 S8          0.9322   52.3996   27.7186 S.o2      1 UNK         0.0000 
      9 O9          1.7891   51.3683   28.3158 O.2       1 UNK         0.0000 
     10 O10         0.2807   53.4178   28.5504 O.2       1 UNK         0.0000 
     11 C11        -0.3070   51.5922   26.7194 C.ar      1 UNK         0.0000 
     12 C12        -1.5182   52.2214   26.4471 C.ar      1 UNK         0.0000 
     13 C13        -2.4482   51.5980   25.6188 C.ar      1 UNK         0.0000 
     14 C14        -2.1952   50.3431   25.0541 C.ar      1 UNK         0.0000 
     15 C15        -0.9764   49.6890   25.3565 C.ar      1 UNK         0.0000 
     16 C16        -0.0459   50.3360   26.1757 C.ar      1 UNK         0.0000 
     17 C17        -0.6939   48.2657   24.8785 C.3       1 UNK         0.0000 
     18 C18        -1.5539   47.8517   23.6727 C.3       1 UNK         0.0000 
     19 C19        -3.0278   48.2052   23.9215 C.3       1 UNK         0.0000 
     20 C20        -3.1998   49.7262   24.0784 C.3       1 UNK         0.0000 
     21 C21         6.2330   55.0017   24.7278 C.2       1 UNK         0.0000 
     22 O22         7.1044   55.8015   25.0584 O.2       1 UNK         0.0000 
     23 N23         6.0869   54.6278   23.4162 N.am      1 UNK         0.0000 
     24 C24         5.3726   53.4249   22.9642 C.3       1 UNK         0.0000 
     25 C25         4.4304   53.8424   21.8213 C.3       1 UNK         0.0000 
     26 C26         5.2184   54.3985   20.6254 C.3       1 UNK         0.0000 
     27 C27         6.1405   55.5495   21.0927 C.3       1 UNK         0.0000 
     28 H28         5.5098   56.4194   21.2817 H         1 UNK         0.0000 
     29 C29         6.9727   55.2270   22.3781 C.3       1 UNK         0.0000 
     30 C30         7.0853   55.9369   19.9408 C.2       1 UNK         0.0000 
     31 O31         8.1158   55.2965   19.7376 O.2       1 UNK         0.0000 
     32 N32         6.7199   56.9887   19.1872 N.am      1 UNK         0.0000 
     33 C33         7.4276   57.4335   17.9912 C.3       1 UNK         0.0000 
     34 C34         7.7736   58.8968   17.8770 C.3       1 UNK         0.0000 
     35 C35         8.8732   57.8791   18.0819 C.3       1 UNK         0.0000 
     36 H36         5.5111   54.1288   29.2673 H         1 UNK         0.0000 
     37 H37         6.8969   54.7766   27.3610 H         1 UNK         0.0000 
     38 H38         3.5345   54.1929   24.7228 H         1 UNK         0.0000 
     39 H39         3.1828   53.4416   28.9290 H         1 UNK         0.0000 
     40 H40         1.6104   53.2434   25.5787 H         1 UNK         0.0000 
     41 H41        -1.7301   53.1942   26.8616 H         1 UNK         0.0000 
     42 H42        -3.3742   52.1082   25.3955 H         1 UNK         0.0000 
     43 H43         0.8799   49.8325   26.4140 H         1 UNK         0.0000 
     44 H44         0.3658   48.1348   24.6525 H         1 UNK         0.0000 
     45 H45        -0.9105   47.6016   25.7150 H         1 UNK         0.0000 
     46 H46        -1.4442   46.7829   23.4903 H         1 UNK         0.0000 
     47 H47        -1.1963   48.3550   22.7735 H         1 UNK         0.0000 
     48 H48        -3.3833   47.6954   24.8191 H         1 UNK         0.0000 
     49 H49        -3.6457   47.8440   23.0976 H         1 UNK         0.0000 
     50 H50        -4.2207   49.9540   24.3902 H         1 UNK         0.0000 
     51 H51        -3.0639   50.2004   23.1057 H         1 UNK         0.0000 
     52 H52         4.8503   52.9008   23.7528 H         1 UNK         0.0000 
     53 H53         6.1145   52.7228   22.5789 H         1 UNK         0.0000 
     54 H54         3.6993   54.5694   22.1760 H         1 UNK         0.0000 
     55 H55         3.8541   52.9754   21.4949 H         1 UNK         0.0000 
     56 H56         4.4950   54.7347   19.8768 H         1 UNK         0.0000 
     57 H57         5.8008   53.5549   20.2477 H         1 UNK         0.0000 
     58 H58         7.7502   54.4958   22.1542 H         1 UNK         0.0000 
     59 H59         7.4389   56.1473   22.7272 H         1 UNK         0.0000 
     60 H60         5.7965   57.3760   19.3203 H         1 UNK         0.0000 
     61 H61         7.1239   56.9063   17.0858 H         1 UNK         0.0000 
     62 H62         7.4954   59.5653   18.6928 H         1 UNK         0.0000 
     63 H63         7.6564   59.3787   16.9062 H         1 UNK         0.0000 
     64 H64         9.5382   57.6303   17.2553 H         1 UNK         0.0000 
     65 H65         9.3796   57.8141   19.0451 H         1 UNK         0.0000 
@<TRIPOS>BOND
     1    1    6 ar   
     2    1    2 ar   
     3    1   36 1    
     4    2    3 ar   
     5    2   37 1    
     6    3    4 ar   
     7    3   21 1    
     8    4    5 ar   
     9    4   38 1    
    10    5    6 ar   
    11    5    7 1    
    12    6   39 1    
    13    7    8 1    
    14    7   40 1    
    15    8    9 2    
    16    8   10 2    
    17    8   11 1    
    18   11   16 ar   
    19   11   12 ar   
    20   12   13 ar   
    21   12   41 1    
    22   13   14 ar   
    23   13   42 1    
    24   14   20 1    
    25   14   15 ar   
    26   15   16 ar   
    27   15   17 1    
    28   16   43 1    
    29   17   18 1    
    30   17   44 1    
    31   17   45 1    
    32   18   19 1    
    33   18   46 1    
    34   18   47 1    
    35   19   20 1    
    36   19   48 1    
    37   19   49 1    
    38   20   50 1    
    39   20   51 1    
    40   21   22 2    
    41   21   23 am   BACKBONE|DICT|INTERRES
    42   23   29 1    
    43   23   24 1    
    44   24   25 1    
    45   24   52 1    
    46   24   53 1    
    47   25   26 1    
    48   25   54 1    
    49   25   55 1    
    50   26   27 1    
    51   26   56 1    
    52   26   57 1    
    53   27   28 1    
    54   27   29 1    
    55   27   30 1    
    56   29   58 1    
    57   29   59 1    
    58   30   31 2    
    59   30   32 am   BACKBONE|DICT|INTERRES
    60   32   33 1    
    61   32   60 1    
    62   33   35 1    
    63   33   34 1    
    64   33   61 1    
    65   34   35 1    
    66   34   62 1    
    67   34   63 1    
    68   35   64 1    
    69   35   65 1    
@<TRIPOS>SUBSTRUCTURE
     1 UNK         1 GROUP             0       ****    0 ROOT    
