@<TRIPOS>MOLECULE
ZINC45254024_6125
56   60    1
SMALL
USER_CHARGES


@<TRIPOS>ATOM
      1 C1         -4.5231   51.4458   24.2226 C.3       1 UNK         0.0000 
      2 C2         -3.2642   51.8562   25.0131 C.3       1 UNK         0.0000 
      3 C3         -2.7143   50.6752   25.8343 C.3       1 UNK         0.0000 
      4 N4         -1.3266   50.6867   25.4672 N.pl3     1 UNK         0.0000 
      5 C5         -1.2076   51.4661   24.3209 C.2       1 UNK         0.0000 
      6 N6         -2.2108   52.2130   24.0660 N.2       1 UNK         0.0000 
      7 C7          0.1690   51.1368   23.7278 C.3       1 UNK         0.0000 
      8 N8          0.6104   50.0281   24.5886 N.2       1 UNK         0.0000 
      9 C9         -0.3348   49.6967   25.3675 C.2       1 UNK         0.0000 
     10 N10        -0.4955   48.4969   26.0812 N.pl3     1 UNK         0.0000 
     11 C11         0.1918   50.5502   22.2812 C.ar      1 UNK         0.0000 
     12 C12         1.3896   50.0016   21.7899 C.ar      1 UNK         0.0000 
     13 C13         1.4681   49.4861   20.5003 C.ar      1 UNK         0.0000 
     14 C14         0.3387   49.4938   19.6809 C.ar      1 UNK         0.0000 
     15 C15        -0.8546   50.0387   20.1488 C.ar      1 UNK         0.0000 
     16 C16        -0.9304   50.5629   21.4368 C.ar      1 UNK         0.0000 
     17 O17         0.3763   49.0094   18.3950 O.3       1 UNK         0.0000 
     18 C18         0.6351   47.6149   18.2423 C.3       1 UNK         0.0000 
     19 F19        -0.1807   46.8745   18.9977 F         1 UNK         0.0000 
     20 F20         0.3953   47.2983   16.9709 F         1 UNK         0.0000 
     21 F21         1.9050   47.3094   18.5079 F         1 UNK         0.0000 
     22 C22         1.1462   52.3349   23.8976 C.ar      1 UNK         0.0000 
     23 C23         1.5698   53.0889   22.7922 C.ar      1 UNK         0.0000 
     24 C24         2.5174   54.0968   22.9351 C.ar      1 UNK         0.0000 
     25 C25         3.0455   54.3862   24.1896 C.ar      1 UNK         0.0000 
     26 C26         2.6244   53.6826   25.3215 C.ar      1 UNK         0.0000 
     27 C27         1.6662   52.6746   25.1589 C.ar      1 UNK         0.0000 
     28 C28         3.1916   53.9749   26.6667 C.ar      1 UNK         0.0000 
     29 C29         2.3448   54.1288   27.7739 C.ar      1 UNK         0.0000 
     30 C30         2.8758   54.3987   29.0343 C.ar      1 UNK         0.0000 
     31 C31         4.2598   54.4968   29.1602 C.ar      1 UNK         0.0000 
     32 N32         5.1055   54.3478   28.1127 N.ar      1 UNK         0.0000 
     33 C33         4.5768   54.0920   26.8881 C.ar      1 UNK         0.0000 
     34 F34         5.4398   53.9321   25.8573 F         1 UNK         0.0000 
     35 C35        -3.5579   53.0754   25.9126 C.3       1 UNK         0.0000 
     36 H36        -4.3108   50.6580   23.4981 H         1 UNK         0.0000 
     37 H37        -5.3014   51.0740   24.8898 H         1 UNK         0.0000 
     38 H38        -4.9450   52.2920   23.6818 H         1 UNK         0.0000 
     39 H39        -2.8395   50.7878   26.9124 H         1 UNK         0.0000 
     40 H40        -3.1640   49.7249   25.5395 H         1 UNK         0.0000 
     41 H41        -0.9227   48.5204   27.0195 H         1 UNK         0.0000 
     42 H42         0.2804   47.8466   26.1032 H         1 UNK         0.0000 
     43 H43         2.2708   49.9840   22.4164 H         1 UNK         0.0000 
     44 H44         2.4074   49.0917   20.1401 H         1 UNK         0.0000 
     45 H45        -1.7233   50.0569   19.5073 H         1 UNK         0.0000 
     46 H46        -1.8733   50.9757   21.7599 H         1 UNK         0.0000 
     47 H47         1.1873   52.8911   21.8016 H         1 UNK         0.0000 
     48 H48         2.8425   54.6553   22.0693 H         1 UNK         0.0000 
     49 H49         3.7845   55.1679   24.2814 H         1 UNK         0.0000 
     50 H50         1.3517   52.1121   26.0263 H         1 UNK         0.0000 
     51 H51         1.2732   54.0496   27.6566 H         1 UNK         0.0000 
     52 H52         2.2243   54.5307   29.8851 H         1 UNK         0.0000 
     53 H53         4.7180   54.7114   30.1120 H         1 UNK         0.0000 
     54 H54        -4.3430   52.8509   26.6353 H         1 UNK         0.0000 
     55 H55        -2.6750   53.3781   26.4773 H         1 UNK         0.0000 
     56 H56        -3.8879   53.9358   25.3289 H         1 UNK         0.0000 
@<TRIPOS>BOND
     1    1    2 1    
     2    1   36 1    
     3    1   37 1    
     4    1   38 1    
     5    2    6 1    
     6    2    3 1    
     7    2   35 1    
     8    3    4 1    
     9    3   39 1    
    10    3   40 1    
    11    4    9 1    
    12    4    5 1    
    13    5    6 2    
    14    5    7 1    
    15    7    8 1    
    16    7   11 1    
    17    7   22 1    
    18    8    9 2    
    19    9   10 1    
    20   10   41 1    
    21   10   42 1    
    22   11   16 ar   
    23   11   12 ar   
    24   12   13 ar   
    25   12   43 1    
    26   13   14 ar   
    27   13   44 1    
    28   14   15 ar   
    29   14   17 1    
    30   15   16 ar   
    31   15   45 1    
    32   16   46 1    
    33   17   18 1    
    34   18   19 1    
    35   18   20 1    
    36   18   21 1    
    37   22   27 ar   
    38   22   23 ar   
    39   23   24 ar   
    40   23   47 1    
    41   24   25 ar   
    42   24   48 1    
    43   25   26 ar   
    44   25   49 1    
    45   26   27 ar   
    46   26   28 1    
    47   27   50 1    
    48   28   33 ar   
    49   28   29 ar   
    50   29   30 ar   
    51   29   51 1    
    52   30   31 ar   
    53   30   52 1    
    54   31   32 ar   
    55   31   53 1    
    56   32   33 ar   
    57   33   34 1    
    58   35   54 1    
    59   35   55 1    
    60   35   56 1    
@<TRIPOS>SUBSTRUCTURE
     1 UNK         1 GROUP             0       ****    0 ROOT    
