@<TRIPOS>MOLECULE
ZINC33255654_4035
70   74    1
SMALL
USER_CHARGES


@<TRIPOS>ATOM
      1 C1          3.9223   54.2092   26.6855 C.3       1 UNK         0.0000 
      2 C2          4.2730   54.2285   25.2044 C.ar      1 UNK         0.0000 
      3 C3          3.2678   53.9737   24.2673 C.ar      1 UNK         0.0000 
      4 C4          3.5580   53.9744   22.9039 C.ar      1 UNK         0.0000 
      5 C5          4.8522   54.2500   22.4613 C.ar      1 UNK         0.0000 
      6 C6          5.8665   54.4963   23.3953 C.ar      1 UNK         0.0000 
      7 C7          5.5825   54.4936   24.7666 C.ar      1 UNK         0.0000 
      8 C8          6.7032   54.7583   25.7619 C.3       1 UNK         0.0000 
      9 N9          5.0708   54.2226   21.0783 N.am      1 UNK         0.0000 
     10 C10         5.9052   54.9735   20.3323 C.2       1 UNK         0.0000 
     11 O11         6.5884   55.8935   20.7903 O.2       1 UNK         0.0000 
     12 C12         5.9739   54.6532   18.8098 C.3       1 UNK         0.0000 
     13 H13         7.0520   54.6127   18.6412 H         1 UNK         0.0000 
     14 C14         5.3904   55.8115   17.9696 C.3       1 UNK         0.0000 
     15 C15         3.8550   55.7758   17.9299 C.3       1 UNK         0.0000 
     16 C16         3.3024   54.3730   17.5941 C.3       1 UNK         0.0000 
     17 N17         3.8224   53.3506   18.5255 N.pl3     1 UNK         0.0000 
     18 C18         5.2981   53.3033   18.4071 C.3       1 UNK         0.0000 
     19 C19         3.0312   52.4254   19.2199 C.ar      1 UNK         0.0000 
     20 C20         3.5883   51.5511   20.1673 C.ar      1 UNK         0.0000 
     21 C21         2.7733   50.7205   20.9265 C.ar      1 UNK         0.0000 
     22 C22         1.3768   50.7781   20.7495 C.ar      1 UNK         0.0000 
     23 C23         0.4875   49.9740   21.4987 C.ar      1 UNK         0.0000 
     24 C24        -0.8890   50.1019   21.3224 C.ar      1 UNK         0.0000 
     25 C25        -1.3933   50.9837   20.3663 C.ar      1 UNK         0.0000 
     26 C26        -0.5372   51.7675   19.5947 C.ar      1 UNK         0.0000 
     27 C27         0.8632   51.6907   19.7811 C.ar      1 UNK         0.0000 
     28 N28         1.6826   52.4928   19.0424 N.ar      1 UNK         0.0000 
     29 S29        -1.9983   49.1258   22.3383 S.o2      1 UNK         0.0000 
     30 O30        -3.2892   49.1063   21.6384 O.2       1 UNK         0.0000 
     31 O31        -1.2977   47.8731   22.6508 O.2       1 UNK         0.0000 
     32 N32        -2.2187   50.0288   23.8537 N.pl3     1 UNK         0.0000 
     33 C33        -1.1570   49.9715   24.8932 C.3       1 UNK         0.0000 
     34 C34        -0.1745   51.1594   24.7835 C.3       1 UNK         0.0000 
     35 C35        -0.9113   52.5135   24.7004 C.3       1 UNK         0.0000 
     36 C36        -2.0407   52.5204   23.6442 C.3       1 UNK         0.0000 
     37 C37        -2.9789   51.3051   23.8224 C.3       1 UNK         0.0000 
     38 H38         2.8588   54.0320   26.8608 H         1 UNK         0.0000 
     39 H39         4.4872   53.4281   27.1981 H         1 UNK         0.0000 
     40 H40         4.1850   55.1613   27.1529 H         1 UNK         0.0000 
     41 H41         2.2588   53.7610   24.5931 H         1 UNK         0.0000 
     42 H42         2.7652   53.7733   22.1963 H         1 UNK         0.0000 
     43 H43         6.8752   54.6893   23.0602 H         1 UNK         0.0000 
     44 H44         7.6615   54.8992   25.2597 H         1 UNK         0.0000 
     45 H45         6.8040   53.9183   26.4518 H         1 UNK         0.0000 
     46 H46         6.4839   55.6488   26.3529 H         1 UNK         0.0000 
     47 H47         4.4280   53.6524   20.5433 H         1 UNK         0.0000 
     48 H48         5.7901   56.7761   18.2858 H         1 UNK         0.0000 
     49 H49         5.8157   55.7490   16.9686 H         1 UNK         0.0000 
     50 H50         3.4434   56.0960   18.8802 H         1 UNK         0.0000 
     51 H51         3.4922   56.4965   17.1967 H         1 UNK         0.0000 
     52 H52         2.2140   54.4239   17.6191 H         1 UNK         0.0000 
     53 H53         3.5688   54.0891   16.5734 H         1 UNK         0.0000 
     54 H54         5.5224   53.0819   17.3606 H         1 UNK         0.0000 
     55 H55         5.7487   52.4967   18.9800 H         1 UNK         0.0000 
     56 H56         4.6533   51.4961   20.3313 H         1 UNK         0.0000 
     57 H57         3.1951   50.0413   21.6539 H         1 UNK         0.0000 
     58 H58         0.8855   49.2905   22.2342 H         1 UNK         0.0000 
     59 H59        -2.4593   51.0637   20.2203 H         1 UNK         0.0000 
     60 H60        -0.9325   52.4479   18.8544 H         1 UNK         0.0000 
     61 H61        -1.6481   50.0005   25.8689 H         1 UNK         0.0000 
     62 H62        -0.6408   49.0116   24.8395 H         1 UNK         0.0000 
     63 H63         0.4960   51.1568   25.6430 H         1 UNK         0.0000 
     64 H64         0.4689   51.0364   23.9154 H         1 UNK         0.0000 
     65 H65        -0.1937   53.3043   24.4842 H         1 UNK         0.0000 
     66 H66        -1.3401   52.7447   25.6786 H         1 UNK         0.0000 
     67 H67        -1.6107   52.5199   22.6426 H         1 UNK         0.0000 
     68 H68        -2.6161   53.4438   23.7232 H         1 UNK         0.0000 
     69 H69        -3.7436   51.2527   23.0445 H         1 UNK         0.0000 
     70 H70        -3.5030   51.3971   24.7761 H         1 UNK         0.0000 
@<TRIPOS>BOND
     1    1    2 1    
     2    1   38 1    
     3    1   39 1    
     4    1   40 1    
     5    2    7 ar   
     6    2    3 ar   
     7    3    4 ar   
     8    3   41 1    
     9    4    5 ar   
    10    4   42 1    
    11    5    6 ar   
    12    5    9 1    
    13    6    7 ar   
    14    6   43 1    
    15    7    8 1    
    16    8   44 1    
    17    8   45 1    
    18    8   46 1    
    19    9   10 am   BACKBONE|DICT|INTERRES
    20    9   47 1    
    21   10   11 2    
    22   10   12 1    
    23   12   13 1    
    24   12   18 1    
    25   12   14 1    
    26   14   15 1    
    27   14   48 1    
    28   14   49 1    
    29   15   16 1    
    30   15   50 1    
    31   15   51 1    
    32   16   17 1    
    33   16   52 1    
    34   16   53 1    
    35   17   18 1    
    36   17   19 1    
    37   18   54 1    
    38   18   55 1    
    39   19   28 ar   
    40   19   20 ar   
    41   20   21 ar   
    42   20   56 1    
    43   21   22 ar   
    44   21   57 1    
    45   22   27 ar   
    46   22   23 ar   
    47   23   24 ar   
    48   23   58 1    
    49   24   25 ar   
    50   24   29 1    
    51   25   26 ar   
    52   25   59 1    
    53   26   27 ar   
    54   26   60 1    
    55   27   28 ar   
    56   29   30 2    
    57   29   31 2    
    58   29   32 1    
    59   32   37 1    
    60   32   33 1    
    61   33   34 1    
    62   33   61 1    
    63   33   62 1    
    64   34   35 1    
    65   34   63 1    
    66   34   64 1    
    67   35   36 1    
    68   35   65 1    
    69   35   66 1    
    70   36   37 1    
    71   36   67 1    
    72   36   68 1    
    73   37   69 1    
    74   37   70 1    
@<TRIPOS>SUBSTRUCTURE
     1 UNK         1 GROUP             0       ****    0 ROOT    
