@<TRIPOS>MOLECULE
ZINC34920468_979
50   54    1
SMALL
USER_CHARGES


@<TRIPOS>ATOM
      1 C1          1.4250   48.3868   20.5999 C.3       1 UNK         0.0000 
      2 O2          0.2884   48.6748   21.4150 O.3       1 UNK         0.0000 
      3 C3          0.4813   49.6663   22.3488 C.ar      1 UNK         0.0000 
      4 C4          0.5055   49.3352   23.7020 C.ar      1 UNK         0.0000 
      5 C5          0.7053   50.3237   24.6652 C.ar      1 UNK         0.0000 
      6 C6          0.9227   51.6621   24.2974 C.ar      1 UNK         0.0000 
      7 C7          0.8365   51.9843   22.9334 C.ar      1 UNK         0.0000 
      8 C8          0.6211   50.9995   21.9543 C.ar      1 UNK         0.0000 
      9 O9          0.5111   51.2507   20.6010 O.3       1 UNK         0.0000 
     10 C10         0.9311   52.4980   20.0912 C.3       1 UNK         0.0000 
     11 C11         1.0508   52.7910   25.3586 C.3       1 UNK         0.0000 
     12 H12         0.6267   53.6778   24.8918 H         1 UNK         0.0000 
     13 C13         0.3679   52.5131   26.6856 C.2       1 UNK         0.0000 
     14 C14         1.2757   52.7661   27.6416 C.2       1 UNK         0.0000 
     15 C15         2.5458   53.2269   27.1110 C.2       1 UNK         0.0000 
     16 O16         3.5416   53.5575   27.7656 O.2       1 UNK         0.0000 
     17 N17         2.4123   53.2339   25.7504 N.am      1 UNK         0.0000 
     18 C18         3.3881   53.6965   24.8346 C.2       1 UNK         0.0000 
     19 N19         3.1630   53.8128   23.5524 N.2       1 UNK         0.0000 
     20 C20         4.2607   54.2225   22.8617 C.ar      1 UNK         0.0000 
     21 C21         4.3023   54.4408   21.4783 C.ar      1 UNK         0.0000 
     22 C22         5.4885   54.8949   20.9042 C.ar      1 UNK         0.0000 
     23 C23         6.6228   55.1312   21.6768 C.ar      1 UNK         0.0000 
     24 C24         6.6188   54.9057   23.0553 C.ar      1 UNK         0.0000 
     25 C25         5.4200   54.4684   23.6420 C.ar      1 UNK         0.0000 
     26 S26         5.0325   54.1606   25.3227 S.3       1 UNK         0.0000 
     27 Cl27        8.0512   55.6967   20.8962 Cl        1 UNK         0.0000 
     28 O28         1.1627   52.6997   28.9255 O.co2     1 UNK         0.0000 
     29 C29        -1.0412   52.0922   26.8833 C.2       1 UNK         0.0000 
     30 O30        -1.4022   51.6818   27.9854 O.2       1 UNK         0.0000 
     31 C31        -2.0317   52.1827   25.7965 C.2       1 UNK         0.0000 
     32 C32        -2.0235   52.8799   24.5846 C.2       1 UNK         0.0000 
     33 C33        -3.1810   52.7178   23.8331 C.2       1 UNK         0.0000 
     34 C34        -4.1206   51.9176   24.4571 C.2       1 UNK         0.0000 
     35 S35        -3.5609   51.3531   25.9945 S.3       1 UNK         0.0000 
     36 H36         1.2151   47.5042   19.9942 H         1 UNK         0.0000 
     37 H37         2.3047   48.1641   21.2086 H         1 UNK         0.0000 
     38 H38         1.6755   49.1987   19.9157 H         1 UNK         0.0000 
     39 H39         0.3719   48.3082   24.0111 H         1 UNK         0.0000 
     40 H40         0.7057   50.0360   25.7063 H         1 UNK         0.0000 
     41 H41         0.9156   53.0171   22.6390 H         1 UNK         0.0000 
     42 H42         0.8468   52.4979   19.0040 H         1 UNK         0.0000 
     43 H43         0.3047   53.2962   20.4786 H         1 UNK         0.0000 
     44 H44         1.9720   52.6896   20.3460 H         1 UNK         0.0000 
     45 H45         3.4329   54.2756   20.8638 H         1 UNK         0.0000 
     46 H46         5.5244   55.0735   19.8388 H         1 UNK         0.0000 
     47 H47         7.5043   55.0905   23.6463 H         1 UNK         0.0000 
     48 H48        -1.2274   53.5087   24.2265 H         1 UNK         0.0000 
     49 H49        -3.3131   53.1883   22.8738 H         1 UNK         0.0000 
     50 H50        -5.1015   51.6394   24.0964 H         1 UNK         0.0000 
@<TRIPOS>BOND
     1    1    2 1    
     2    1   36 1    
     3    1   37 1    
     4    1   38 1    
     5    2    3 1    
     6    3    8 ar   
     7    3    4 ar   
     8    4    5 ar   
     9    4   39 1    
    10    5    6 ar   
    11    5   40 1    
    12    6    7 ar   
    13    6   11 1    
    14    7    8 ar   
    15    7   41 1    
    16    8    9 1    
    17    9   10 1    
    18   10   42 1    
    19   10   43 1    
    20   10   44 1    
    21   11   12 1    
    22   11   17 1    
    23   11   13 1    
    24   13   14 2    
    25   13   29 1    
    26   14   15 1    
    27   14   28 1    
    28   15   16 2    
    29   15   17 am   BACKBONE|DICT|INTERRES
    30   17   18 am   BACKBONE|DICT|INTERRES
    31   18   26 1    
    32   18   19 2    
    33   19   20 1    
    34   20   25 ar   
    35   20   21 ar   
    36   21   22 ar   
    37   21   45 1    
    38   22   23 ar   
    39   22   46 1    
    40   23   24 ar   
    41   23   27 1    
    42   24   25 ar   
    43   24   47 1    
    44   25   26 1    
    45   29   30 2    
    46   29   31 1    
    47   31   35 1    
    48   31   32 2    
    49   32   33 1    
    50   32   48 1    
    51   33   34 2    
    52   33   49 1    
    53   34   35 1    
    54   34   50 1    
@<TRIPOS>SUBSTRUCTURE
     1 UNK         1 GROUP             0       ****    0 ROOT    
