@<TRIPOS>MOLECULE
ZINC09104301_2695
49   53    1
SMALL
USER_CHARGES


@<TRIPOS>ATOM
      1 C1          6.1847   54.0982   26.3972 C.ar      1 UNK         0.0000 
      2 C2          6.7550   54.4979   25.1926 C.ar      1 UNK         0.0000 
      3 C3          5.9612   54.6774   24.0649 C.ar      1 UNK         0.0000 
      4 C4          4.5821   54.4964   24.1393 C.ar      1 UNK         0.0000 
      5 C5          3.9977   54.1224   25.3442 C.ar      1 UNK         0.0000 
      6 C6          4.8051   53.9036   26.4694 C.ar      1 UNK         0.0000 
      7 N7          4.2841   53.2979   27.6157 N.am      1 UNK         0.0000 
      8 C8          3.0991   53.5704   28.1953 C.2       1 UNK         0.0000 
      9 O9          2.5207   54.6541   28.0914 O.2       1 UNK         0.0000 
     10 C10         2.4284   52.3837   28.9284 C.3       1 UNK         0.0000 
     11 H11         3.1315   51.5533   28.8561 H         1 UNK         0.0000 
     12 C12         2.1706   52.6822   30.4339 C.3       1 UNK         0.0000 
     13 C13         0.8012   53.3232   30.7367 C.3       1 UNK         0.0000 
     14 C14        -0.3703   52.4466   30.2506 C.3       1 UNK         0.0000 
     15 C15        -0.1284   52.0683   28.8129 C.2       1 UNK         0.0000 
     16 C16         1.1254   52.0112   28.2082 C.2       1 UNK         0.0000 
     17 N17         1.1045   51.6644   26.9359 N.2       1 UNK         0.0000 
     18 C18        -0.0967   51.3840   26.5022 C.2       1 UNK         0.0000 
     19 S19        -1.3519   51.5652   27.6769 S.3       1 UNK         0.0000 
     20 N20        -0.3982   50.9359   25.2268 N.am      1 UNK         0.0000 
     21 C21         0.1851   51.4073   24.1013 C.2       1 UNK         0.0000 
     22 O22         0.9556   52.3725   24.0749 O.2       1 UNK         0.0000 
     23 C23        -0.2017   50.7140   22.8158 C.ar      1 UNK         0.0000 
     24 C24        -0.1193   51.4174   21.5903 C.ar      1 UNK         0.0000 
     25 C25        -0.4307   50.7992   20.3715 C.ar      1 UNK         0.0000 
     26 C26        -0.8112   49.4642   20.4081 C.ar      1 UNK         0.0000 
     27 C27        -0.8904   48.7697   21.5812 C.ar      1 UNK         0.0000 
     28 C28        -0.5996   49.3595   22.8061 C.ar      1 UNK         0.0000 
     29 O29        -1.2962   47.4971   21.3263 O.3       1 UNK         0.0000 
     30 C30        -1.2510   47.3635   19.9303 C.3       1 UNK         0.0000 
     31 O31        -1.1717   48.6516   19.3802 O.3       1 UNK         0.0000 
     32 Cl32        6.7041   55.1023   22.5648 Cl        1 UNK         0.0000 
     33 H33         6.8155   53.9066   27.2550 H         1 UNK         0.0000 
     34 H34         7.8213   54.6324   25.1064 H         1 UNK         0.0000 
     35 H35         3.9675   54.6256   23.2593 H         1 UNK         0.0000 
     36 H36         2.9338   53.9376   25.3774 H         1 UNK         0.0000 
     37 H37         4.7871   52.4809   27.9289 H         1 UNK         0.0000 
     38 H38         2.9773   53.2855   30.8510 H         1 UNK         0.0000 
     39 H39         2.2173   51.7409   30.9845 H         1 UNK         0.0000 
     40 H40         0.7466   54.3041   30.2622 H         1 UNK         0.0000 
     41 H41         0.6988   53.5001   31.8090 H         1 UNK         0.0000 
     42 H42        -1.2954   52.9928   30.3177 H         1 UNK         0.0000 
     43 H43        -0.4944   51.5626   30.8767 H         1 UNK         0.0000 
     44 H44        -1.2319   50.3737   25.1292 H         1 UNK         0.0000 
     45 H45         0.2003   52.4507   21.5731 H         1 UNK         0.0000 
     46 H46        -0.3608   51.3440   19.4399 H         1 UNK         0.0000 
     47 H47        -0.6563   48.7724   23.7130 H         1 UNK         0.0000 
     48 H48        -0.3591   46.8001   19.6487 H         1 UNK         0.0000 
     49 H49        -2.1400   46.8484   19.5637 H         1 UNK         0.0000 
@<TRIPOS>BOND
     1    1    6 ar   
     2    1    2 ar   
     3    1   33 1    
     4    2    3 ar   
     5    2   34 1    
     6    3    4 ar   
     7    3   32 1    
     8    4    5 ar   
     9    4   35 1    
    10    5    6 ar   
    11    5   36 1    
    12    6    7 1    
    13    7    8 am   BACKBONE|DICT|INTERRES
    14    7   37 1    
    15    8    9 2    
    16    8   10 1    
    17   10   11 1    
    18   10   16 1    
    19   10   12 1    
    20   12   13 1    
    21   12   38 1    
    22   12   39 1    
    23   13   14 1    
    24   13   40 1    
    25   13   41 1    
    26   14   15 1    
    27   14   42 1    
    28   14   43 1    
    29   15   19 1    
    30   15   16 2    
    31   16   17 1    
    32   17   18 2    
    33   18   19 1    
    34   18   20 am   BACKBONE|DICT|INTERRES
    35   20   21 am   BACKBONE|DICT|INTERRES
    36   20   44 1    
    37   21   22 2    
    38   21   23 1    
    39   23   28 ar   
    40   23   24 ar   
    41   24   25 ar   
    42   24   45 1    
    43   25   26 ar   
    44   25   46 1    
    45   26   31 1    
    46   26   27 ar   
    47   27   28 ar   
    48   27   29 1    
    49   28   47 1    
    50   29   30 1    
    51   30   31 1    
    52   30   48 1    
    53   30   49 1    
@<TRIPOS>SUBSTRUCTURE
     1 UNK         1 GROUP             0       ****    0 ROOT    
