@<TRIPOS>MOLECULE
ZINC39597281_2151
69   72    1
SMALL
USER_CHARGES


@<TRIPOS>ATOM
      1 C1         -0.6999   50.4436   21.0035 C.3       1 UNK         0.0000 
      2 C2          0.6677   50.9760   21.5475 C.3       1 UNK         0.0000 
      3 C3          1.3823   51.7748   20.3994 C.3       1 UNK         0.0000 
      4 C4          1.8630   50.8894   19.2262 C.3       1 UNK         0.0000 
      5 C5          2.7103   49.7035   19.7189 C.3       1 UNK         0.0000 
      6 C6          2.0262   48.9012   20.8453 C.3       1 UNK         0.0000 
      7 C7          1.5958   49.8136   22.0147 C.3       1 UNK         0.0000 
      8 C8          0.4386   51.9654   22.7491 C.2       1 UNK         0.0000 
      9 O9          1.3295   52.7801   23.0207 O.2       1 UNK         0.0000 
     10 N10        -0.6968   51.9300   23.4946 N.am      1 UNK         0.0000 
     11 C11        -1.0871   53.0928   24.3075 C.3       1 UNK         0.0000 
     12 C12        -1.5750   52.4967   25.6447 C.3       1 UNK         0.0000 
     13 H13        -2.3709   53.1350   26.0229 H         1 UNK         0.0000 
     14 C14        -2.1070   51.0865   25.2607 C.3       1 UNK         0.0000 
     15 C15        -1.1212   50.6788   24.1485 C.3       1 UNK         0.0000 
     16 C16        -2.2165   49.9970   26.3598 C.3       1 UNK         0.0000 
     17 C17        -3.2446   50.3732   27.4509 C.3       1 UNK         0.0000 
     18 N18        -4.6274   50.5340   26.7873 N.4       1 UNK         0.0000 
     19 C19        -4.6306   51.5325   25.6081 C.3       1 UNK         0.0000 
     20 C20        -3.5256   51.1200   24.6108 C.3       1 UNK         0.0000 
     21 C21        -0.5094   52.4876   26.7761 C.2       1 UNK         0.0000 
     22 O22        -0.8940   52.4960   27.9426 O.2       1 UNK         0.0000 
     23 N23         0.7988   52.4971   26.4598 N.am      1 UNK         0.0000 
     24 C24         1.8803   52.5213   27.4557 C.3       1 UNK         0.0000 
     25 C25         3.1105   53.3697   27.1238 C.ar      1 UNK         0.0000 
     26 C26         3.3799   53.7737   25.8079 C.ar      1 UNK         0.0000 
     27 C27         4.5334   54.4967   25.5056 C.ar      1 UNK         0.0000 
     28 C28         5.4298   54.8331   26.5163 C.ar      1 UNK         0.0000 
     29 C29         5.1642   54.4587   27.8321 C.ar      1 UNK         0.0000 
     30 C30         4.0164   53.7247   28.1418 C.ar      1 UNK         0.0000 
     31 O31         3.7870   53.4103   29.4602 O.3       1 UNK         0.0000 
     32 C32         4.1738   52.0961   29.8389 C.3       1 UNK         0.0000 
     33 H33        -0.6298   50.0923   19.9760 H         1 UNK         0.0000 
     34 H34        -1.0653   49.5817   21.5575 H         1 UNK         0.0000 
     35 H35        -1.4798   51.2087   21.0005 H         1 UNK         0.0000 
     36 H36         0.7431   52.5743   20.0197 H         1 UNK         0.0000 
     37 H37         2.2890   52.2539   20.7772 H         1 UNK         0.0000 
     38 H38         1.0217   50.5248   18.6370 H         1 UNK         0.0000 
     39 H39         2.4579   51.4896   18.5345 H         1 UNK         0.0000 
     40 H40         2.9599   49.0487   18.8819 H         1 UNK         0.0000 
     41 H41         3.6614   50.0970   20.0813 H         1 UNK         0.0000 
     42 H42         1.1606   48.3747   20.4432 H         1 UNK         0.0000 
     43 H43         2.7044   48.1259   21.2072 H         1 UNK         0.0000 
     44 H44         2.5120   50.2186   22.4506 H         1 UNK         0.0000 
     45 H45         1.1191   49.2100   22.7890 H         1 UNK         0.0000 
     46 H46        -1.9919   53.5383   23.8889 H         1 UNK         0.0000 
     47 H47        -0.3184   53.8486   24.4817 H         1 UNK         0.0000 
     48 H48        -0.2461   50.2649   24.6557 H         1 UNK         0.0000 
     49 H49        -1.4766   49.8688   23.5183 H         1 UNK         0.0000 
     50 H50        -2.4647   49.0228   25.9345 H         1 UNK         0.0000 
     51 H51        -1.2438   49.8435   26.8310 H         1 UNK         0.0000 
     52 H52        -3.3417   49.5962   28.2107 H         1 UNK         0.0000 
     53 H53        -3.0346   51.3155   27.9549 H         1 UNK         0.0000 
     54 H54        -4.9200   49.6259   26.4503 H         1 UNK         0.0000 
     55 H55        -5.6259   51.4805   25.1636 H         1 UNK         0.0000 
     56 H56        -4.4908   52.5250   26.0362 H         1 UNK         0.0000 
     57 H57        -3.5433   51.8138   23.7681 H         1 UNK         0.0000 
     58 H58        -3.7692   50.1513   24.1679 H         1 UNK         0.0000 
     59 H59         1.0633   52.3697   25.4940 H         1 UNK         0.0000 
     60 H60         2.1995   51.5048   27.6824 H         1 UNK         0.0000 
     61 H61         1.4976   52.8953   28.4087 H         1 UNK         0.0000 
     62 H62         2.7120   53.5139   25.0018 H         1 UNK         0.0000 
     63 H63         4.7318   54.7909   24.4847 H         1 UNK         0.0000 
     64 H64         6.3222   55.3928   26.2841 H         1 UNK         0.0000 
     65 H65         5.8507   54.7364   28.6180 H         1 UNK         0.0000 
     66 H66         4.3171   52.0601   30.9189 H         1 UNK         0.0000 
     67 H67         3.4025   51.3688   29.5908 H         1 UNK         0.0000 
     68 H68         5.1031   51.7816   29.3649 H         1 UNK         0.0000 
     69 H69        -5.3059   50.8127   27.4833 H         1 UNK         0.0000 
@<TRIPOS>BOND
     1    1    2 1    
     2    1   33 1    
     3    1   34 1    
     4    1   35 1    
     5    2    7 1    
     6    2    3 1    
     7    2    8 1    
     8    3    4 1    
     9    3   36 1    
    10    3   37 1    
    11    4    5 1    
    12    4   38 1    
    13    4   39 1    
    14    5    6 1    
    15    5   40 1    
    16    5   41 1    
    17    6    7 1    
    18    6   42 1    
    19    6   43 1    
    20    7   44 1    
    21    7   45 1    
    22    8    9 2    
    23    8   10 am   BACKBONE|DICT|INTERRES
    24   10   15 1    
    25   10   11 1    
    26   11   12 1    
    27   11   46 1    
    28   11   47 1    
    29   12   13 1    
    30   12   14 1    
    31   12   21 1    
    32   14   20 1    
    33   14   15 1    
    34   14   16 1    
    35   15   48 1    
    36   15   49 1    
    37   16   17 1    
    38   16   50 1    
    39   16   51 1    
    40   17   18 1    
    41   17   52 1    
    42   17   53 1    
    43   18   19 1    
    44   18   54 1    
    45   18   69 1    
    46   19   20 1    
    47   19   55 1    
    48   19   56 1    
    49   20   57 1    
    50   20   58 1    
    51   21   22 2    
    52   21   23 am   BACKBONE|DICT|INTERRES
    53   23   24 1    
    54   23   59 1    
    55   24   25 1    
    56   24   60 1    
    57   24   61 1    
    58   25   30 ar   
    59   25   26 ar   
    60   26   27 ar   
    61   26   62 1    
    62   27   28 ar   
    63   27   63 1    
    64   28   29 ar   
    65   28   64 1    
    66   29   30 ar   
    67   29   65 1    
    68   30   31 1    
    69   31   32 1    
    70   32   66 1    
    71   32   67 1    
    72   32   68 1    
@<TRIPOS>SUBSTRUCTURE
     1 UNK         1 GROUP             0       ****    0 ROOT    
