@<TRIPOS>MOLECULE
ZINC44944179_5358
76   80    1
SMALL
USER_CHARGES


@<TRIPOS>ATOM
      1 C1          5.6664   54.3200   28.1243 C.ar      1 UNK         0.0000 
      2 C2          6.2838   54.4833   26.8851 C.ar      1 UNK         0.0000 
      3 C3          5.5156   54.4567   25.7262 C.ar      1 UNK         0.0000 
      4 C4          4.1335   54.2484   25.8056 C.ar      1 UNK         0.0000 
      5 C5          3.5222   54.0966   27.0526 C.ar      1 UNK         0.0000 
      6 C6          4.2902   54.1306   28.2145 C.ar      1 UNK         0.0000 
      7 C7          3.2860   54.1895   24.5372 C.3       1 UNK         0.0000 
      8 O8          4.0339   53.5975   23.4779 O.3       1 UNK         0.0000 
      9 C9          3.5261   53.7698   22.1552 C.3       1 UNK         0.0000 
     10 H10         3.3693   54.8391   21.9953 H         1 UNK         0.0000 
     11 C11         2.1758   53.0243   21.9547 C.3       1 UNK         0.0000 
     12 C12         2.3089   51.4929   21.9592 C.3       1 UNK         0.0000 
     13 C13         3.3527   51.0323   20.9301 C.3       1 UNK         0.0000 
     14 C14         4.7050   51.7296   21.1536 C.3       1 UNK         0.0000 
     15 C15         4.6355   53.2743   21.1776 C.3       1 UNK         0.0000 
     16 H16         5.6005   53.6194   21.5593 H         1 UNK         0.0000 
     17 N17         4.4622   53.7603   19.8086 N.am      1 UNK         0.0000 
     18 C18         4.9990   54.8967   19.3302 C.2       1 UNK         0.0000 
     19 O19         5.6632   55.6610   20.0354 O.2       1 UNK         0.0000 
     20 C20         4.7221   55.2300   17.8437 C.3       1 UNK         0.0000 
     21 H21         3.6920   54.8850   17.7234 H         1 UNK         0.0000 
     22 C22         4.7222   56.7580   17.5504 C.3       1 UNK         0.0000 
     23 C23         4.7089   57.0235   16.0505 C.2       1 UNK         0.0000 
     24 C24         4.8810   56.0795   15.1043 C.2       1 UNK         0.0000 
     25 C25         5.1874   54.6068   15.3760 C.3       1 UNK         0.0000 
     26 C26         5.5566   54.3270   16.8635 C.3       1 UNK         0.0000 
     27 H27         5.3193   53.2933   17.1128 H         1 UNK         0.0000 
     28 C28         7.1045   54.4857   17.0291 C.2       1 UNK         0.0000 
     29 O29         7.5471   55.5953   17.3392 O.2       1 UNK         0.0000 
     30 N30         7.9179   53.3956   16.9707 N.am      1 UNK         0.0000 
     31 C31         7.5293   52.0978   16.3718 C.3       1 UNK         0.0000 
     32 C32         8.5030   51.7614   15.2102 C.3       1 UNK         0.0000 
     33 N33         9.9088   51.8703   15.6485 N.pl3     1 UNK         0.0000 
     34 C34        10.2159   53.2178   16.1600 C.3       1 UNK         0.0000 
     35 C35         9.3301   53.5265   17.3722 C.3       1 UNK         0.0000 
     36 C36        10.8711   50.8213   15.5674 C.ar      1 UNK         0.0000 
     37 C37        10.8409   49.8549   14.5492 C.ar      1 UNK         0.0000 
     38 C38        11.8520   48.8939   14.4816 C.ar      1 UNK         0.0000 
     39 C39        12.8666   48.8840   15.4420 C.ar      1 UNK         0.0000 
     40 C40        12.8613   49.8545   16.4468 C.ar      1 UNK         0.0000 
     41 N41        11.8836   50.7793   16.4618 N.pl3     1 UNK         0.0000 
     42 H42         6.2678   54.3459   29.0215 H         1 UNK         0.0000 
     43 H43         7.3522   54.6180   26.8314 H         1 UNK         0.0000 
     44 H44         5.9957   54.5777   24.7642 H         1 UNK         0.0000 
     45 H45         2.4535   53.9437   27.1256 H         1 UNK         0.0000 
     46 H46         3.8218   54.0110   29.1790 H         1 UNK         0.0000 
     47 H47         2.9717   55.2041   24.2855 H         1 UNK         0.0000 
     48 H48         2.3902   53.5948   24.7233 H         1 UNK         0.0000 
     49 H49         1.4140   53.3724   22.6523 H         1 UNK         0.0000 
     50 H50         1.7969   53.2960   20.9704 H         1 UNK         0.0000 
     51 H51         2.5884   51.1461   22.9553 H         1 UNK         0.0000 
     52 H52         1.3412   51.0357   21.7396 H         1 UNK         0.0000 
     53 H53         3.4895   49.9533   20.9919 H         1 UNK         0.0000 
     54 H54         2.9928   51.2375   19.9207 H         1 UNK         0.0000 
     55 H55         5.4009   51.4134   20.3782 H         1 UNK         0.0000 
     56 H56         5.1459   51.3768   22.0811 H         1 UNK         0.0000 
     57 H57         3.8470   53.2220   19.2153 H         1 UNK         0.0000 
     58 H58         5.6351   57.2254   17.9200 H         1 UNK         0.0000 
     59 H59         3.9061   57.2635   18.0719 H         1 UNK         0.0000 
     60 H60         4.5260   58.0351   15.7187 H         1 UNK         0.0000 
     61 H61         4.8231   56.4014   14.0747 H         1 UNK         0.0000 
     62 H62         5.9262   54.2039   14.6804 H         1 UNK         0.0000 
     63 H63         4.2729   54.0629   15.1405 H         1 UNK         0.0000 
     64 H64         6.5137   52.0955   15.9738 H         1 UNK         0.0000 
     65 H65         7.6076   51.3445   17.1580 H         1 UNK         0.0000 
     66 H66         8.3510   52.4162   14.3523 H         1 UNK         0.0000 
     67 H67         8.3120   50.7433   14.8757 H         1 UNK         0.0000 
     68 H68        11.2720   53.3176   16.4070 H         1 UNK         0.0000 
     69 H69        10.0266   53.9288   15.3533 H         1 UNK         0.0000 
     70 H70         9.5021   52.7531   18.1172 H         1 UNK         0.0000 
     71 H71         9.5979   54.4757   17.8480 H         1 UNK         0.0000 
     72 H72        10.0732   49.8649   13.7868 H         1 UNK         0.0000 
     73 H73        11.8587   48.1650   13.6821 H         1 UNK         0.0000 
     74 H74        13.6483   48.1383   15.3919 H         1 UNK         0.0000 
     75 H75        13.6060   49.9278   17.2282 H         1 UNK         0.0000 
     76 H76        11.8859   51.4704   17.1996 H         1 UNK         0.0000 
@<TRIPOS>BOND
     1    1    6 ar   
     2    1    2 ar   
     3    1   42 1    
     4    2    3 ar   
     5    2   43 1    
     6    3    4 ar   
     7    3   44 1    
     8    4    5 ar   
     9    4    7 1    
    10    5    6 ar   
    11    5   45 1    
    12    6   46 1    
    13    7    8 1    
    14    7   47 1    
    15    7   48 1    
    16    8    9 1    
    17    9   10 1    
    18    9   15 1    
    19    9   11 1    
    20   11   12 1    
    21   11   49 1    
    22   11   50 1    
    23   12   13 1    
    24   12   51 1    
    25   12   52 1    
    26   13   14 1    
    27   13   53 1    
    28   13   54 1    
    29   14   15 1    
    30   14   55 1    
    31   14   56 1    
    32   15   16 1    
    33   15   17 1    
    34   17   18 am   BACKBONE|DICT|INTERRES
    35   17   57 1    
    36   18   19 2    
    37   18   20 1    
    38   20   21 1    
    39   20   26 1    
    40   20   22 1    
    41   22   23 1    
    42   22   58 1    
    43   22   59 1    
    44   23   24 2    
    45   23   60 1    
    46   24   25 1    
    47   24   61 1    
    48   25   26 1    
    49   25   62 1    
    50   25   63 1    
    51   26   27 1    
    52   26   28 1    
    53   28   29 2    
    54   28   30 am   BACKBONE|DICT|INTERRES
    55   30   35 1    
    56   30   31 1    
    57   31   32 1    
    58   31   64 1    
    59   31   65 1    
    60   32   33 1    
    61   32   66 1    
    62   32   67 1    
    63   33   34 1    
    64   33   36 1    
    65   34   35 1    
    66   34   68 1    
    67   34   69 1    
    68   35   70 1    
    69   35   71 1    
    70   36   41 ar   
    71   36   37 ar   
    72   37   38 ar   
    73   37   72 1    
    74   38   39 ar   
    75   38   73 1    
    76   39   40 ar   
    77   39   74 1    
    78   40   41 ar   
    79   40   75 1    
    80   41   76 1    
@<TRIPOS>SUBSTRUCTURE
     1 UNK         1 GROUP             0       ****    0 ROOT    
