@<TRIPOS>MOLECULE
ZINC03012012_1236
51   55    1
SMALL
USER_CHARGES


@<TRIPOS>ATOM
      1 C1          6.5331   53.3743   17.6631 C.ar      1 UNK         0.0000 
      2 C2          7.0185   53.2386   16.3675 C.ar      1 UNK         0.0000 
      3 C3          6.7979   54.2511   15.4360 C.ar      1 UNK         0.0000 
      4 C4          6.0910   55.3982   15.7922 C.ar      1 UNK         0.0000 
      5 C5          5.5952   55.5307   17.0854 C.ar      1 UNK         0.0000 
      6 C6          5.8164   54.5204   18.0283 C.ar      1 UNK         0.0000 
      7 C7          5.2671   54.6654   19.4449 C.3       1 UNK         0.0000 
      8 H8          4.6836   55.5871   19.4250 H         1 UNK         0.0000 
      9 C9          4.3210   53.5060   19.8339 C.3       1 UNK         0.0000 
     10 C10         3.7505   53.6309   21.2652 C.3       1 UNK         0.0000 
     11 H11         3.1035   54.5021   21.2815 H         1 UNK         0.0000 
     12 N12         4.8617   53.9857   22.1550 N.pl3     1 UNK         0.0000 
     13 C13         5.9894   54.6839   21.7802 C.ar      1 UNK         0.0000 
     14 C14         6.6507   54.9717   22.9551 C.ar      1 UNK         0.0000 
     15 C15         5.8676   54.4522   23.9987 C.ar      1 UNK         0.0000 
     16 N16         4.7761   53.9055   23.4949 N.2       1 UNK         0.0000 
     17 C17         6.1860   54.5635   25.4095 C.2       1 UNK         0.0000 
     18 O18         7.0963   55.2954   25.8074 O.2       1 UNK         0.0000 
     19 N19         5.4161   53.8148   26.2246 N.am      1 UNK         0.0000 
     20 C20         5.5157   53.7367   27.6838 C.3       1 UNK         0.0000 
     21 C21         4.1579   53.7193   28.3894 C.ar      1 UNK         0.0000 
     22 C22         3.1468   54.6178   27.9926 C.ar      1 UNK         0.0000 
     23 C23         1.9099   54.6577   28.6478 C.ar      1 UNK         0.0000 
     24 C24         1.7019   53.7536   29.6817 C.ar      1 UNK         0.0000 
     25 C25         2.6579   52.8505   30.0527 C.ar      1 UNK         0.0000 
     26 C26         3.9049   52.8080   29.4314 C.ar      1 UNK         0.0000 
     27 O27         2.1902   52.0992   31.0863 O.3       1 UNK         0.0000 
     28 C28         0.8513   52.4967   31.2814 C.3       1 UNK         0.0000 
     29 O29         0.6146   53.6280   30.4865 O.3       1 UNK         0.0000 
     30 N30         6.3050   54.8975   20.4524 N.pl3     1 UNK         0.0000 
     31 C31         2.9012   52.4046   21.6789 C.3       1 UNK         0.0000 
     32 F32         1.9063   52.1996   20.8162 F         1 UNK         0.0000 
     33 F33         3.6365   51.2941   21.6817 F         1 UNK         0.0000 
     34 F34         2.3488   52.5382   22.8854 F         1 UNK         0.0000 
     35 Cl35        7.4003   54.0820   13.8283 Cl        1 UNK         0.0000 
     36 H36         6.6983   52.5794   18.3763 H         1 UNK         0.0000 
     37 H37         7.5576   52.3459   16.0870 H         1 UNK         0.0000 
     38 H38         5.9207   56.1791   15.0651 H         1 UNK         0.0000 
     39 H39         5.0411   56.4204   17.3500 H         1 UNK         0.0000 
     40 H40         4.8303   52.5462   19.7281 H         1 UNK         0.0000 
     41 H41         3.4979   53.4459   19.1190 H         1 UNK         0.0000 
     42 H42         7.5801   55.5076   23.0463 H         1 UNK         0.0000 
     43 H43         4.8281   53.1207   25.7872 H         1 UNK         0.0000 
     44 H44         6.0975   54.5680   28.0882 H         1 UNK         0.0000 
     45 H45         6.0772   52.8325   27.9269 H         1 UNK         0.0000 
     46 H46         3.3305   55.2968   27.1734 H         1 UNK         0.0000 
     47 H47         1.1521   55.3704   28.3538 H         1 UNK         0.0000 
     48 H48         4.6615   52.1053   29.7470 H         1 UNK         0.0000 
     49 H49         0.1738   51.7007   30.9629 H         1 UNK         0.0000 
     50 H50         0.6686   52.7309   32.3329 H         1 UNK         0.0000 
     51 H51         6.8761   55.6924   20.2097 H         1 UNK         0.0000 
@<TRIPOS>BOND
     1    1    6 ar   
     2    1    2 ar   
     3    1   36 1    
     4    2    3 ar   
     5    2   37 1    
     6    3    4 ar   
     7    3   35 1    
     8    4    5 ar   
     9    4   38 1    
    10    5    6 ar   
    11    5   39 1    
    12    6    7 1    
    13    7    8 1    
    14    7   30 1    
    15    7    9 1    
    16    9   10 1    
    17    9   40 1    
    18    9   41 1    
    19   10   11 1    
    20   10   12 1    
    21   10   31 1    
    22   12   16 ar   
    23   12   13 ar   
    24   13   14 ar   
    25   13   30 1    
    26   14   15 ar   
    27   14   42 1    
    28   15   16 ar   
    29   15   17 1    
    30   17   18 2    
    31   17   19 am   BACKBONE|DICT|INTERRES
    32   19   20 1    
    33   19   43 1    
    34   20   21 1    
    35   20   44 1    
    36   20   45 1    
    37   21   26 ar   
    38   21   22 ar   
    39   22   23 ar   
    40   22   46 1    
    41   23   24 ar   
    42   23   47 1    
    43   24   29 1    
    44   24   25 ar   
    45   25   26 ar   
    46   25   27 1    
    47   26   48 1    
    48   27   28 1    
    49   28   29 1    
    50   28   49 1    
    51   28   50 1    
    52   30   51 1    
    53   31   32 1    
    54   31   33 1    
    55   31   34 1    
@<TRIPOS>SUBSTRUCTURE
     1 UNK         1 GROUP             0       ****    0 ROOT    
