@<TRIPOS>MOLECULE
ZINC55166298_1607
33   34    1
SMALL
USER_CHARGES


@<TRIPOS>ATOM
      1 C1          6.6261   53.7042   28.1264 C.3       1 UNK         0.0000 
      2 C2          5.3446   54.4457   27.6829 C.3       1 UNK         0.0000 
      3 H3          5.5269   55.4976   27.8985 H         1 UNK         0.0000 
      4 C4          4.1006   54.0430   28.4877 C.ar      1 UNK         0.0000 
      5 C5          3.1566   55.0068   28.8707 C.ar      1 UNK         0.0000 
      6 C6          2.0410   54.6587   29.6266 C.ar      1 UNK         0.0000 
      7 C7          1.8484   53.3278   30.0146 C.ar      1 UNK         0.0000 
      8 C8          2.7714   52.3589   29.6145 C.ar      1 UNK         0.0000 
      9 C9          3.8981   52.7157   28.8807 C.ar      1 UNK         0.0000 
     10 C10         0.6642   52.9206   30.8870 C.3       1 UNK         0.0000 
     11 F11         0.0721   53.9791   31.4423 F         1 UNK         0.0000 
     12 F12        -0.2274   52.2755   30.1371 F         1 UNK         0.0000 
     13 F13         1.0895   52.1117   31.8591 F         1 UNK         0.0000 
     14 N14         5.0973   54.3204   26.2443 N.am      1 UNK         0.0000 
     15 C15         5.9078   54.7604   25.2609 C.2       1 UNK         0.0000 
     16 O16         6.9749   55.3371   25.4819 O.2       1 UNK         0.0000 
     17 C17         5.4487   54.4960   23.9024 C.ar      1 UNK         0.0000 
     18 N18         6.2317   54.7022   22.8344 N.2       1 UNK         0.0000 
     19 C19         5.4474   54.4517   21.8190 C.ar      1 UNK         0.0000 
     20 N20         4.2206   54.0777   22.2707 N.pl3     1 UNK         0.0000 
     21 H21         3.4162   53.8431   21.7063 H         1 UNK         0.0000 
     22 N22         4.2140   54.0978   23.6020 N.2       1 UNK         0.0000 
     23 N23         5.7472   54.5675   20.4955 N.pl3     1 UNK         0.0000 
     24 H24         6.7913   53.8191   29.1969 H         1 UNK         0.0000 
     25 H25         6.5942   52.6380   27.8980 H         1 UNK         0.0000 
     26 H26         7.5116   54.1154   27.6425 H         1 UNK         0.0000 
     27 H27         3.2703   56.0396   28.5863 H         1 UNK         0.0000 
     28 H28         1.3396   55.4301   29.9152 H         1 UNK         0.0000 
     29 H29         2.6154   51.3214   29.8710 H         1 UNK         0.0000 
     30 H30         4.6009   51.9497   28.5928 H         1 UNK         0.0000 
     31 H31         4.1678   54.0334   25.9797 H         1 UNK         0.0000 
     32 H32         6.6617   54.8723   20.1920 H         1 UNK         0.0000 
     33 H33         5.1095   54.2722   19.7706 H         1 UNK         0.0000 
@<TRIPOS>BOND
     1    1    2 1    
     2    1   24 1    
     3    1   25 1    
     4    1   26 1    
     5    2    3 1    
     6    2    4 1    
     7    2   14 1    
     8    4    9 ar   
     9    4    5 ar   
    10    5    6 ar   
    11    5   27 1    
    12    6    7 ar   
    13    6   28 1    
    14    7    8 ar   
    15    7   10 1    
    16    8    9 ar   
    17    8   29 1    
    18    9   30 1    
    19   10   11 1    
    20   10   12 1    
    21   10   13 1    
    22   14   15 am   BACKBONE|DICT|INTERRES
    23   14   31 1    
    24   15   16 2    
    25   15   17 1    
    26   17   22 ar   
    27   17   18 ar   
    28   18   19 ar   
    29   19   20 ar   
    30   19   23 1    
    31   20   21 1    
    32   20   22 ar   
    33   23   32 1    
    34   23   33 1    
@<TRIPOS>SUBSTRUCTURE
     1 UNK         1 GROUP             0       ****    0 ROOT    
