@<TRIPOS>MOLECULE
ZINC62051910_1613
35   36    1
SMALL
USER_CHARGES


@<TRIPOS>ATOM
      1 C1          5.8580   54.3571   27.3430 C.3       1 UNK         0.0000 
      2 C2          4.5634   53.8174   26.7010 C.3       1 UNK         0.0000 
      3 H3          4.8582   52.8923   26.2174 H         1 UNK         0.0000 
      4 C4          4.0329   54.7675   25.6027 C.3       1 UNK         0.0000 
      5 C5          3.1150   54.0962   24.5837 C.ar      1 UNK         0.0000 
      6 C6          3.5559   53.8953   23.2717 C.ar      1 UNK         0.0000 
      7 C7          2.7145   53.2956   22.3381 C.ar      1 UNK         0.0000 
      8 C8          1.4346   52.8966   22.7158 C.ar      1 UNK         0.0000 
      9 C9          0.9884   53.0940   24.0200 C.ar      1 UNK         0.0000 
     10 C10         1.8283   53.6963   24.9523 C.ar      1 UNK         0.0000 
     11 F11         0.6140   52.3197   21.8092 F         1 UNK         0.0000 
     12 N12         3.4668   53.4813   27.6631 N.pl3     1 UNK         0.0000 
     13 S13         3.7675   53.3055   29.3903 S.o2      1 UNK         0.0000 
     14 O14         4.2479   51.9505   29.6763 O.2       1 UNK         0.0000 
     15 O15         4.4616   54.4968   29.8747 O.2       1 UNK         0.0000 
     16 C16         2.1150   53.4320   30.0840 C.ar      1 UNK         0.0000 
     17 C17         1.4629   52.4968   30.8680 C.ar      1 UNK         0.0000 
     18 N18         0.3030   53.0983   31.2627 N.pl3     1 UNK         0.0000 
     19 H19        -0.3919   52.6771   31.8782 H         1 UNK         0.0000 
     20 N20         0.1853   54.3424   30.7808 N.2       1 UNK         0.0000 
     21 C21         1.2747   54.5523   30.0746 C.ar      1 UNK         0.0000 
     22 N22         1.5046   55.7583   29.4858 N.pl3     1 UNK         0.0000 
     23 H23         6.6247   54.5279   26.5872 H         1 UNK         0.0000 
     24 H24         5.6982   55.3028   27.8567 H         1 UNK         0.0000 
     25 H25         6.2803   53.6475   28.0554 H         1 UNK         0.0000 
     26 H26         4.8710   55.2117   25.0627 H         1 UNK         0.0000 
     27 H27         3.5096   55.6112   26.0544 H         1 UNK         0.0000 
     28 H28         4.5460   54.2052   22.9701 H         1 UNK         0.0000 
     29 H29         3.0455   53.1472   21.3208 H         1 UNK         0.0000 
     30 H30        -0.0063   52.7836   24.3039 H         1 UNK         0.0000 
     31 H31         1.4759   53.8562   25.9604 H         1 UNK         0.0000 
     32 H32         3.0263   52.6220   27.3260 H         1 UNK         0.0000 
     33 H33         1.7321   51.5149   31.2165 H         1 UNK         0.0000 
     34 H34         2.3718   55.9405   29.0011 H         1 UNK         0.0000 
     35 H35         0.8638   56.5298   29.5898 H         1 UNK         0.0000 
@<TRIPOS>BOND
     1    1    2 1    
     2    1   23 1    
     3    1   24 1    
     4    1   25 1    
     5    2    3 1    
     6    2    4 1    
     7    2   12 1    
     8    4    5 1    
     9    4   26 1    
    10    4   27 1    
    11    5   10 ar   
    12    5    6 ar   
    13    6    7 ar   
    14    6   28 1    
    15    7    8 ar   
    16    7   29 1    
    17    8    9 ar   
    18    8   11 1    
    19    9   10 ar   
    20    9   30 1    
    21   10   31 1    
    22   12   13 1    
    23   12   32 1    
    24   13   14 2    
    25   13   15 2    
    26   13   16 1    
    27   16   21 ar   
    28   16   17 ar   
    29   17   18 ar   
    30   17   33 1    
    31   18   19 1    
    32   18   20 ar   
    33   20   21 ar   
    34   21   22 1    
    35   22   34 1    
    36   22   35 1    
@<TRIPOS>SUBSTRUCTURE
     1 UNK         1 GROUP             0       ****    0 ROOT    
