@<TRIPOS>MOLECULE
ZINC15738731_3258
51   53    1
SMALL
USER_CHARGES


@<TRIPOS>ATOM
      1 C1          3.3842   54.2087   22.8430 C.3       1 UNK         0.0000 
      2 C2          3.5443   54.0987   24.3572 C.ar      1 UNK         0.0000 
      3 C3          4.6286   54.7382   24.9685 C.ar      1 UNK         0.0000 
      4 C4          4.8158   54.6643   26.3465 C.ar      1 UNK         0.0000 
      5 C5          3.9172   53.9474   27.1354 C.ar      1 UNK         0.0000 
      6 C6          2.8405   53.2966   26.5333 C.ar      1 UNK         0.0000 
      7 C7          2.6398   53.3599   25.1440 C.ar      1 UNK         0.0000 
      8 N8          1.6290   52.6297   24.4843 N.am      1 UNK         0.0000 
      9 C9          0.5532   51.9769   24.9837 C.2       1 UNK         0.0000 
     10 O10         0.1550   52.0964   26.1411 O.2       1 UNK         0.0000 
     11 C11        -0.1968   50.9913   24.0588 C.3       1 UNK         0.0000 
     12 N12         0.4062   50.9077   22.7208 N.am      1 UNK         0.0000 
     13 C13        -0.0875   51.4874   21.6150 C.2       1 UNK         0.0000 
     14 O14        -1.1575   52.0962   21.5726 O.2       1 UNK         0.0000 
     15 C15         0.7813   51.4006   20.4724 C.2       1 UNK         0.0000 
     16 C16         1.8309   50.5416   20.1440 C.2       1 UNK         0.0000 
     17 C17         2.2844   50.9278   18.8811 C.2       1 UNK         0.0000 
     18 C18         1.4698   51.9678   18.4686 C.2       1 UNK         0.0000 
     19 O19         0.5437   52.2348   19.4241 O.3       1 UNK         0.0000 
     20 Br20        1.4357   53.0141   16.8794 Br        1 UNK         0.0000 
     21 S21         4.1872   53.8038   28.9025 S.o2      1 UNK         0.0000 
     22 O22         4.5661   52.4125   29.1691 O.2       1 UNK         0.0000 
     23 O23         5.0894   54.8949   29.2808 O.2       1 UNK         0.0000 
     24 N24         2.6241   54.1048   29.6814 N.pl3     1 UNK         0.0000 
     25 C25         1.6758   52.9665   29.7838 C.3       1 UNK         0.0000 
     26 C26         0.7286   53.1957   30.9702 C.3       1 UNK         0.0000 
     27 C27         0.0273   54.5646   30.8612 C.3       1 UNK         0.0000 
     28 C28         0.9762   55.7471   30.5451 C.3       1 UNK         0.0000 
     29 C29         1.9848   55.4186   29.4231 C.3       1 UNK         0.0000 
     30 H30         4.1044   54.8956   22.3957 H         1 UNK         0.0000 
     31 H31         3.5033   53.2314   22.3733 H         1 UNK         0.0000 
     32 H32         2.3866   54.5738   22.5925 H         1 UNK         0.0000 
     33 H33         5.3379   55.2970   24.3754 H         1 UNK         0.0000 
     34 H34         5.6647   55.1587   26.7965 H         1 UNK         0.0000 
     35 H35         2.2090   52.6825   27.1491 H         1 UNK         0.0000 
     36 H36         1.7646   52.5387   23.4895 H         1 UNK         0.0000 
     37 H37        -1.2487   51.2757   24.0091 H         1 UNK         0.0000 
     38 H38        -0.1585   50.0000   24.5108 H         1 UNK         0.0000 
     39 H39         1.2556   50.3682   22.6466 H         1 UNK         0.0000 
     40 H40         2.2364   49.7393   20.7426 H         1 UNK         0.0000 
     41 H41         3.1030   50.4967   18.3200 H         1 UNK         0.0000 
     42 H42         1.0450   52.9476   28.8947 H         1 UNK         0.0000 
     43 H43         2.2141   52.0238   29.8816 H         1 UNK         0.0000 
     44 H44        -0.0184   52.4005   31.0124 H         1 UNK         0.0000 
     45 H45         1.2802   53.1232   31.9076 H         1 UNK         0.0000 
     46 H46        -0.4955   54.7607   31.7918 H         1 UNK         0.0000 
     47 H47        -0.7272   54.4967   30.0774 H         1 UNK         0.0000 
     48 H48         1.5043   56.0521   31.4466 H         1 UNK         0.0000 
     49 H49         0.3918   56.6254   30.2720 H         1 UNK         0.0000 
     50 H50         2.7416   56.1981   29.3270 H         1 UNK         0.0000 
     51 H51         1.4053   55.3387   28.5015 H         1 UNK         0.0000 
@<TRIPOS>BOND
     1    1    2 1    
     2    1   30 1    
     3    1   31 1    
     4    1   32 1    
     5    2    7 ar   
     6    2    3 ar   
     7    3    4 ar   
     8    3   33 1    
     9    4    5 ar   
    10    4   34 1    
    11    5    6 ar   
    12    5   21 1    
    13    6    7 ar   
    14    6   35 1    
    15    7    8 1    
    16    8    9 am   BACKBONE|DICT|INTERRES
    17    8   36 1    
    18    9   10 2    
    19    9   11 1    
    20   11   12 1    
    21   11   37 1    
    22   11   38 1    
    23   12   13 am   BACKBONE|DICT|INTERRES
    24   12   39 1    
    25   13   14 2    
    26   13   15 1    
    27   15   19 1    
    28   15   16 2    
    29   16   17 1    
    30   16   40 1    
    31   17   18 2    
    32   17   41 1    
    33   18   19 1    
    34   18   20 1    
    35   21   22 2    
    36   21   23 2    
    37   21   24 1    
    38   24   29 1    
    39   24   25 1    
    40   25   26 1    
    41   25   42 1    
    42   25   43 1    
    43   26   27 1    
    44   26   44 1    
    45   26   45 1    
    46   27   28 1    
    47   27   46 1    
    48   27   47 1    
    49   28   29 1    
    50   28   48 1    
    51   28   49 1    
    52   29   50 1    
    53   29   51 1    
@<TRIPOS>SUBSTRUCTURE
     1 UNK         1 GROUP             0       ****    0 ROOT    
