@<TRIPOS>MOLECULE
ZINC20289034_3168
67   70    1
SMALL
USER_CHARGES


@<TRIPOS>ATOM
      1 C1          5.6258   53.2986   17.5442 C.3       1 UNK         0.0000 
      2 C2          4.7942   54.4478   18.1611 C.3       1 UNK         0.0000 
      3 H3          3.9555   53.9793   18.6755 H         1 UNK         0.0000 
      4 C4          5.5825   55.3077   19.2087 C.3       1 UNK         0.0000 
      5 H5          4.8868   56.0971   19.4840 H         1 UNK         0.0000 
      6 C6          6.7860   56.0091   18.5739 C.2       1 UNK         0.0000 
      7 C7          6.8493   57.2978   18.0372 C.2       1 UNK         0.0000 
      8 C8          8.1068   57.6672   17.5540 C.2       1 UNK         0.0000 
      9 C9          9.0445   56.6622   17.7053 C.2       1 UNK         0.0000 
     10 S10         8.3591   55.2522   18.4341 S.3       1 UNK         0.0000 
     11 N11         5.9047   54.6322   20.4938 N.3       1 UNK         0.0000 
     12 C12         4.7407   53.9669   21.1010 C.3       1 UNK         0.0000 
     13 C13         5.0304   53.3568   22.4878 C.3       1 UNK         0.0000 
     14 N14         5.6742   54.2831   23.4335 N.pl3     1 UNK         0.0000 
     15 C15         6.8461   54.9150   22.8114 C.3       1 UNK         0.0000 
     16 C16         6.5461   55.5552   21.4442 C.3       1 UNK         0.0000 
     17 C17         5.4470   54.2682   24.8080 C.ar      1 UNK         0.0000 
     18 C18         6.4970   54.4499   25.7195 C.ar      1 UNK         0.0000 
     19 C19         6.2651   54.4494   27.0911 C.ar      1 UNK         0.0000 
     20 C20         4.9700   54.2716   27.5677 C.ar      1 UNK         0.0000 
     21 C21         3.9117   54.0966   26.6804 C.ar      1 UNK         0.0000 
     22 C22         4.1489   54.0968   25.3078 C.ar      1 UNK         0.0000 
     23 F23         4.7351   54.2749   28.9007 F         1 UNK         0.0000 
     24 N24         4.1384   55.2906   17.1482 N.am      1 UNK         0.0000 
     25 C25         3.1182   54.8951   16.3515 C.2       1 UNK         0.0000 
     26 O26         2.7228   53.7298   16.2963 O.2       1 UNK         0.0000 
     27 C27         2.4738   55.9617   15.5292 C.2       1 UNK         0.0000 
     28 O28         1.9487   55.7072   14.4422 O.2       1 UNK         0.0000 
     29 N29         2.4460   57.1928   16.0868 N.am      1 UNK         0.0000 
     30 C30         1.6981   58.3327   15.5410 C.3       1 UNK         0.0000 
     31 C31         0.1692   58.2331   15.6095 C.ar      1 UNK         0.0000 
     32 C32        -0.5945   59.0174   14.7426 C.ar      1 UNK         0.0000 
     33 C33        -1.9860   58.9511   14.7765 C.ar      1 UNK         0.0000 
     34 C34        -2.6314   58.0923   15.6789 C.ar      1 UNK         0.0000 
     35 C35        -1.8639   57.3005   16.5323 C.ar      1 UNK         0.0000 
     36 C36        -0.4746   57.3663   16.5010 C.ar      1 UNK         0.0000 
     37 O37        -4.0016   57.9650   15.7932 O.3       1 UNK         0.0000 
     38 C38        -4.8422   58.6997   14.9103 C.3       1 UNK         0.0000 
     39 H39         6.1939   52.7785   18.3168 H         1 UNK         0.0000 
     40 H40         4.9910   52.5400   17.0813 H         1 UNK         0.0000 
     41 H41         6.3401   53.6585   16.8017 H         1 UNK         0.0000 
     42 H42         5.9994   57.9655   18.0058 H         1 UNK         0.0000 
     43 H43         8.3184   58.6321   17.1152 H         1 UNK         0.0000 
     44 H44        10.0890   56.6779   17.4269 H         1 UNK         0.0000 
     45 H45         3.9322   54.6896   21.2375 H         1 UNK         0.0000 
     46 H46         4.4017   53.1383   20.4790 H         1 UNK         0.0000 
     47 H47         5.7246   52.5258   22.3575 H         1 UNK         0.0000 
     48 H48         4.1218   52.9010   22.8798 H         1 UNK         0.0000 
     49 H49         7.6106   54.1449   22.6896 H         1 UNK         0.0000 
     50 H50         7.2736   55.6723   23.4689 H         1 UNK         0.0000 
     51 H51         7.4951   55.9221   21.0524 H         1 UNK         0.0000 
     52 H52         5.9026   56.4092   21.6402 H         1 UNK         0.0000 
     53 H53         7.5051   54.5674   25.3594 H         1 UNK         0.0000 
     54 H54         7.0809   54.5856   27.7877 H         1 UNK         0.0000 
     55 H55         2.9095   53.9599   27.0588 H         1 UNK         0.0000 
     56 H56         3.3143   53.9746   24.6331 H         1 UNK         0.0000 
     57 H57         4.4523   56.2444   17.0975 H         1 UNK         0.0000 
     58 H58         2.8474   57.3309   17.0004 H         1 UNK         0.0000 
     59 H59         2.0063   58.4886   14.5030 H         1 UNK         0.0000 
     60 H60         2.0008   59.2305   16.0819 H         1 UNK         0.0000 
     61 H61        -0.1136   59.6844   14.0429 H         1 UNK         0.0000 
     62 H62        -2.5460   59.5748   14.0952 H         1 UNK         0.0000 
     63 H63        -2.3499   56.6310   17.2240 H         1 UNK         0.0000 
     64 H64         0.0952   56.7460   17.1767 H         1 UNK         0.0000 
     65 H65        -5.8845   58.4668   15.1302 H         1 UNK         0.0000 
     66 H66        -4.6589   58.4308   13.8679 H         1 UNK         0.0000 
     67 H67        -4.7125   59.7760   15.0317 H         1 UNK         0.0000 
@<TRIPOS>BOND
     1    1    2 1    
     2    1   39 1    
     3    1   40 1    
     4    1   41 1    
     5    2    3 1    
     6    2    4 1    
     7    2   24 1    
     8    4    5 1    
     9    4    6 1    
    10    4   11 1    
    11    6   10 1    
    12    6    7 2    
    13    7    8 1    
    14    7   42 1    
    15    8    9 2    
    16    8   43 1    
    17    9   10 1    
    18    9   44 1    
    19   11   16 1    
    20   11   12 1    
    21   12   13 1    
    22   12   45 1    
    23   12   46 1    
    24   13   14 1    
    25   13   47 1    
    26   13   48 1    
    27   14   15 1    
    28   14   17 1    
    29   15   16 1    
    30   15   49 1    
    31   15   50 1    
    32   16   51 1    
    33   16   52 1    
    34   17   22 ar   
    35   17   18 ar   
    36   18   19 ar   
    37   18   53 1    
    38   19   20 ar   
    39   19   54 1    
    40   20   21 ar   
    41   20   23 1    
    42   21   22 ar   
    43   21   55 1    
    44   22   56 1    
    45   24   25 am   BACKBONE|DICT|INTERRES
    46   24   57 1    
    47   25   26 2    
    48   25   27 1    
    49   27   28 2    
    50   27   29 am   BACKBONE|DICT|INTERRES
    51   29   30 1    
    52   29   58 1    
    53   30   31 1    
    54   30   59 1    
    55   30   60 1    
    56   31   36 ar   
    57   31   32 ar   
    58   32   33 ar   
    59   32   61 1    
    60   33   34 ar   
    61   33   62 1    
    62   34   35 ar   
    63   34   37 1    
    64   35   36 ar   
    65   35   63 1    
    66   36   64 1    
    67   37   38 1    
    68   38   65 1    
    69   38   66 1    
    70   38   67 1    
@<TRIPOS>SUBSTRUCTURE
     1 UNK         1 GROUP             0       ****    0 ROOT    
