@<TRIPOS>MOLECULE
ZINC33960366_3775
49   51    1
SMALL
USER_CHARGES


@<TRIPOS>ATOM
      1 C1          2.5482   51.4871   20.0006 C.3       1 UNK         0.0000 
      2 C2          2.1032   51.5638   21.4558 C.ar      1 UNK         0.0000 
      3 C3          2.0623   52.8118   22.0809 C.ar      1 UNK         0.0000 
      4 C4          1.6909   52.9286   23.4174 C.ar      1 UNK         0.0000 
      5 C5          1.3561   51.7945   24.1588 C.ar      1 UNK         0.0000 
      6 C6          1.3822   50.5379   23.5333 C.ar      1 UNK         0.0000 
      7 C7          1.7556   50.4164   22.1892 C.ar      1 UNK         0.0000 
      8 C8          1.7682   49.0282   21.5688 C.3       1 UNK         0.0000 
      9 N9          1.1042   52.0091   25.5253 N.am      1 UNK         0.0000 
     10 C10         0.7044   51.1606   26.4981 C.2       1 UNK         0.0000 
     11 O11         0.3194   50.0130   26.2858 O.2       1 UNK         0.0000 
     12 C12         0.7790   51.6963   27.9654 C.3       1 UNK         0.0000 
     13 C13        -0.3221   51.0745   28.8832 C.3       1 UNK         0.0000 
     14 C14        -0.3369   52.0150   30.1060 C.3       1 UNK         0.0000 
     15 C15         0.7142   53.0748   29.7370 C.3       1 UNK         0.0000 
     16 C16         0.5302   53.2008   28.1940 C.3       1 UNK         0.0000 
     17 C17        -0.8953   53.4877   27.6730 C.3       1 UNK         0.0000 
     18 C18         1.5158   54.2537   27.5755 C.3       1 UNK         0.0000 
     19 C19         2.0922   52.3643   29.8665 C.2       1 UNK         0.0000 
     20 N20         2.9397   52.4972   30.8049 N.2       1 UNK         0.0000 
     21 O21         4.1489   51.8302   30.5633 O.3       1 UNK         0.0000 
     22 C22         2.1615   51.4771   28.6088 C.3       1 UNK         0.0000 
     23 C23         0.5451   54.3720   30.5653 C.3       1 UNK         0.0000 
     24 H24         1.7235   51.1637   19.3647 H         1 UNK         0.0000 
     25 H25         2.9160   52.4445   19.6288 H         1 UNK         0.0000 
     26 H26         3.3577   50.7644   19.8857 H         1 UNK         0.0000 
     27 H27         2.3326   53.6972   21.5281 H         1 UNK         0.0000 
     28 H28         1.6901   53.9082   23.8736 H         1 UNK         0.0000 
     29 H29         1.1531   49.6373   24.0827 H         1 UNK         0.0000 
     30 H30         2.6330   48.4653   21.9213 H         1 UNK         0.0000 
     31 H31         0.8653   48.4968   21.8681 H         1 UNK         0.0000 
     32 H32         1.7676   49.0384   20.4791 H         1 UNK         0.0000 
     33 H33         1.3044   52.9447   25.8373 H         1 UNK         0.0000 
     34 H34        -0.0953   50.0968   29.1574 H         1 UNK         0.0000 
     35 H35        -1.3015   50.9221   28.4308 H         1 UNK         0.0000 
     36 H36        -0.1581   51.5431   31.0714 H         1 UNK         0.0000 
     37 H37        -1.2956   52.4935   30.1961 H         1 UNK         0.0000 
     38 H38        -0.8896   53.2967   26.6016 H         1 UNK         0.0000 
     39 H39        -1.6832   52.7638   27.8240 H         1 UNK         0.0000 
     40 H40        -1.2425   54.4967   27.8392 H         1 UNK         0.0000 
     41 H41         1.5045   54.2851   26.4904 H         1 UNK         0.0000 
     42 H42         1.2473   55.2577   27.9056 H         1 UNK         0.0000 
     43 H43         2.5564   54.1079   27.8630 H         1 UNK         0.0000 
     44 H44         4.0674   51.5594   29.6454 H         1 UNK         0.0000 
     45 H45         2.9770   51.7933   27.9583 H         1 UNK         0.0000 
     46 H46         2.3047   50.4324   28.8706 H         1 UNK         0.0000 
     47 H47        -0.4455   54.8052   30.4358 H         1 UNK         0.0000 
     48 H48         0.6643   54.1742   31.6318 H         1 UNK         0.0000 
     49 H49         1.2792   55.1307   30.2936 H         1 UNK         0.0000 
@<TRIPOS>BOND
     1    1    2 1    
     2    1   24 1    
     3    1   25 1    
     4    1   26 1    
     5    2    7 ar   
     6    2    3 ar   
     7    3    4 ar   
     8    3   27 1    
     9    4    5 ar   
    10    4   28 1    
    11    5    6 ar   
    12    5    9 1    
    13    6    7 ar   
    14    6   29 1    
    15    7    8 1    
    16    8   30 1    
    17    8   31 1    
    18    8   32 1    
    19    9   10 am   BACKBONE|DICT|INTERRES
    20    9   33 1    
    21   10   11 2    
    22   10   12 1    
    23   12   16 1    
    24   12   22 1    
    25   12   13 1    
    26   13   14 1    
    27   13   34 1    
    28   13   35 1    
    29   14   15 1    
    30   14   36 1    
    31   14   37 1    
    32   15   16 1    
    33   15   19 1    
    34   15   23 1    
    35   16   17 1    
    36   16   18 1    
    37   17   38 1    
    38   17   39 1    
    39   17   40 1    
    40   18   41 1    
    41   18   42 1    
    42   18   43 1    
    43   19   20 2    
    44   19   22 1    
    45   20   21 1    
    46   21   44 1    
    47   22   45 1    
    48   22   46 1    
    49   23   47 1    
    50   23   48 1    
    51   23   49 1    
@<TRIPOS>SUBSTRUCTURE
     1 UNK         1 GROUP             0       ****    0 ROOT    
