ZINC01876431_4641
                    3D
 Schrodinger Suite 2024-2.
 50 53  0  0  1  0            999 V2000
    5.7393   54.7882   26.8725 C   0  0  0  0  0  0
    5.4297   54.4975   25.4153 C   0  0  0  0  0  0
    6.4736   54.3688   24.4995 C   0  0  0  0  0  0
    6.1993   54.0993   23.1637 C   0  0  0  0  0  0
    4.8749   53.9594   22.7192 C   0  0  0  0  0  0
    3.8297   54.0962   23.6490 C   0  0  0  0  0  0
    4.1077   54.3651   24.9884 C   0  0  0  0  0  0
    4.5955   53.7086   21.3437 N   0  0  0  0  0  0
    5.1611   54.5098   20.3586 C   0  0  0  0  0  0
    4.9003   54.3507   19.0468 C   0  0  0  0  0  0
    3.9928   53.2993   18.6063 C   0  0  0  0  0  0
    3.5420   52.5375   19.6349 N   0  0  0  0  0  0
    3.7811   52.6437   20.9779 C   0  0  0  0  0  0
    3.2698   51.8173   21.7325 O   0  0  0  0  0  0
    3.6620   53.1012   17.4411 O   0  0  0  0  0  0
    5.7347   55.3189   18.2403 C   0  0  2  0  0  0
    6.3587   56.1653   19.3810 C   0  0  0  0  0  0
    7.0217   57.1966   19.2798 O   0  0  0  0  0  0
    6.0128   55.5570   20.5263 N   0  0  0  0  0  0
    4.9083   56.2645   17.3069 C   0  0  0  0  0  0
    5.6711   57.2021   16.7346 F   0  0  0  0  0  0
    4.3387   55.6006   16.2992 F   0  0  0  0  0  0
    3.9271   56.8962   17.9501 F   0  0  0  0  0  0
    6.6933   54.5440   17.4087 N   0  0  0  0  0  0
    7.9553   54.1148   17.6328 C   0  0  0  0  0  0
    8.6445   54.4981   18.5792 O   0  0  0  0  0  0
    8.4962   53.0896   16.6557 C   0  0  0  0  0  0
    9.7792   52.5557   16.8511 C   0  0  0  0  0  0
   10.2906   51.5809   15.9962 C   0  0  0  0  0  0
    9.5364   51.1347   14.9127 C   0  0  0  0  0  0
    8.2625   51.6619   14.6766 C   0  0  0  0  0  0
    7.7512   52.6301   15.5522 C   0  0  0  0  0  0
    7.4349   51.1853   13.4850 C   0  0  0  0  0  0
    7.7510   49.9361   13.1370 F   0  0  0  0  0  0
    6.1277   51.2224   13.7525 F   0  0  0  0  0  0
    7.6744   51.9861   12.4468 F   0  0  0  0  0  0
    6.6021   55.4485   26.9631 H   0  0  0  0  0  0
    4.9068   55.2958   27.3609 H   0  0  0  0  0  0
    5.9571   53.8665   27.4108 H   0  0  0  0  0  0
    7.5039   54.4735   24.8137 H   0  0  0  0  0  0
    7.0313   54.0065   22.4823 H   0  0  0  0  0  0
    2.8017   53.9970   23.3365 H   0  0  0  0  0  0
    3.2945   54.4720   25.6889 H   0  0  0  0  0  0
    2.9541   51.7661   19.3626 H   0  0  0  0  0  0
    6.3066   55.8811   21.4354 H   0  0  0  0  0  0
    6.2294   54.0689   16.6506 H   0  0  0  0  0  0
   10.3905   52.8791   17.6830 H   0  0  0  0  0  0
   11.2733   51.1725   16.1745 H   0  0  0  0  0  0
    9.9467   50.3815   14.2573 H   0  0  0  0  0  0
    6.7611   53.0176   15.3554 H   0  0  0  0  0  0
  1  2  1  0  0  0
  1 37  1  0  0  0
  1 38  1  0  0  0
  1 39  1  0  0  0
  2  7  2  0  0  0
  2  3  1  0  0  0
  3  4  2  0  0  0
  3 40  1  0  0  0
  4  5  1  0  0  0
  4 41  1  0  0  0
  5  6  2  0  0  0
  5  8  1  0  0  0
  6  7  1  0  0  0
  6 42  1  0  0  0
  7 43  1  0  0  0
  8  9  1  0  0  0
  8 13  1  0  0  0
  9 19  1  0  0  0
  9 10  2  0  0  0
 10 11  1  0  0  0
 10 16  1  0  0  0
 11 12  1  0  0  0
 11 15  2  0  0  0
 12 13  1  0  0  0
 12 44  1  0  0  0
 13 14  2  0  0  0
 16 17  1  0  0  0
 16 20  1  0  0  0
 16 24  1  0  0  0
 17 18  2  0  0  0
 17 19  1  0  0  0
 19 45  1  0  0  0
 20 21  1  0  0  0
 20 22  1  0  0  0
 20 23  1  0  0  0
 24 25  1  0  0  0
 24 46  1  0  0  0
 25 26  2  0  0  0
 25 27  1  0  0  0
 27 32  2  0  0  0
 27 28  1  0  0  0
 28 29  2  0  0  0
 28 47  1  0  0  0
 29 30  1  0  0  0
 29 48  1  0  0  0
 30 31  2  0  0  0
 30 49  1  0  0  0
 31 32  1  0  0  0
 31 33  1  0  0  0
 32 50  1  0  0  0
 33 34  1  0  0  0
 33 35  1  0  0  0
 33 36  1  0  0  0
M  END
> <i_i_glide_confnum>
2

> <i_i_glide_lignum>
4642

> <i_i_glide_posenum>
286

> <i_i_glide_rotatable_bonds>
6

> <i_m_Source_File_Index>
5243

> <b_m_subgroup_collapsed>
0

> <r_i_docking_score>
-5.03942

> <r_i_glide_ecoul>
-0.502904

> <r_i_glide_eff_state_penalty>
0

> <r_i_glide_einternal>
2.62696

> <r_i_glide_emodel>
-53.3161

> <r_i_glide_energy>
-41.5658

> <r_i_glide_erotb>
0.31235

> <r_i_glide_esite>
-0.0506007

> <r_i_glide_evdw>
-41.0629

> <r_i_glide_gscore>
-5.03942

> <r_i_glide_hbond>
-0.10951

> <r_i_glide_ligand_efficiency>
-0.139984

> <r_i_glide_ligand_efficiency_ln>
-1.09946

> <r_i_glide_ligand_efficiency_sa>
-0.462216

> <r_i_glide_lipo>
-2.32808

> <r_i_glide_metal>
0

> <r_i_glide_rewards>
-0.734995

> <s_i_glide_gridfile>
wee1_glide-grid

> <s_m_Source_File>
wee1_decoys_glide_SP.sdf

> <s_m_Source_Path>
/Users/zhangxujun/Desktop

> <s_m_entry_id>
5518

> <s_m_entry_name>
wee1_decoys_glide_SP.5243

> <s_m_subgroup_title>
wee1_decoys_glide_SP

> <s_m_subgroupid>
wee1_decoys_glide_SP


$$$$
