@<TRIPOS>MOLECULE
ZINC13347542_4526
51   54    1
SMALL
USER_CHARGES


@<TRIPOS>ATOM
      1 C1         10.2280   49.2157   14.6099 C.3       1 UNK         0.0000 
      2 C2         10.6101   50.6676   14.8273 C.ar      1 UNK         0.0000 
      3 C3         10.5078   51.2393   16.0988 C.ar      1 UNK         0.0000 
      4 C4         10.8526   52.5746   16.2887 C.ar      1 UNK         0.0000 
      5 C5         11.2942   53.3394   15.2050 C.ar      1 UNK         0.0000 
      6 C6         11.3847   52.7695   13.9314 C.ar      1 UNK         0.0000 
      7 C7         11.0466   51.4322   13.7445 C.ar      1 UNK         0.0000 
      8 S8         11.7171   55.0611   15.4511 S.o2      1 UNK         0.0000 
      9 O9         12.4012   55.5301   14.2403 O.2       1 UNK         0.0000 
     10 O10        12.3427   55.1866   16.7738 O.2       1 UNK         0.0000 
     11 N11        10.1658   55.9144   15.4872 N.pl3     1 UNK         0.0000 
     12 C12         9.3364   56.0151   16.5706 C.2       1 UNK         0.0000 
     13 N13         9.5845   55.5387   17.7562 N.2       1 UNK         0.0000 
     14 C14         8.5723   55.7997   18.6197 C.ar      1 UNK         0.0000 
     15 C15         8.5663   55.4220   19.9653 C.ar      1 UNK         0.0000 
     16 C16         7.4386   55.6970   20.7376 C.ar      1 UNK         0.0000 
     17 C17         6.3580   56.4008   20.1864 C.ar      1 UNK         0.0000 
     18 C18         6.3533   56.8203   18.8550 C.ar      1 UNK         0.0000 
     19 C19         7.4699   56.5018   18.0702 C.ar      1 UNK         0.0000 
     20 S20         7.8059   56.8404   16.3777 S.3       1 UNK         0.0000 
     21 N21         7.4653   55.2975   22.0818 N.am      1 UNK         0.0000 
     22 C22         6.4188   54.8227   22.7902 C.2       1 UNK         0.0000 
     23 O23         5.3427   54.4969   22.2911 O.2       1 UNK         0.0000 
     24 N24         6.7057   54.7908   24.1049 N.am      1 UNK         0.0000 
     25 C25         5.8722   54.5066   25.2035 C.ar      1 UNK         0.0000 
     26 C26         6.5015   54.3900   26.4465 C.ar      1 UNK         0.0000 
     27 C27         5.7658   54.1236   27.6014 C.ar      1 UNK         0.0000 
     28 C28         4.3792   53.9761   27.5298 C.ar      1 UNK         0.0000 
     29 C29         3.7387   54.0963   26.2926 C.ar      1 UNK         0.0000 
     30 C30         4.4775   54.3634   25.1376 C.ar      1 UNK         0.0000 
     31 F31         2.3970   53.9481   26.2027 F         1 UNK         0.0000 
     32 C32         3.5747   53.6770   28.7843 C.3       1 UNK         0.0000 
     33 H33         9.4900   48.8966   15.3438 H         1 UNK         0.0000 
     34 H34         9.7782   49.0734   13.6257 H         1 UNK         0.0000 
     35 H35        11.1097   48.5754   14.6820 H         1 UNK         0.0000 
     36 H36        10.1662   50.6522   16.9389 H         1 UNK         0.0000 
     37 H37        10.7760   53.0117   17.2756 H         1 UNK         0.0000 
     38 H38        11.7217   53.3561   13.0889 H         1 UNK         0.0000 
     39 H39        11.1283   50.9885   12.7612 H         1 UNK         0.0000 
     40 H40         9.8893   56.2653   14.5859 H         1 UNK         0.0000 
     41 H41         9.4204   54.9037   20.3712 H         1 UNK         0.0000 
     42 H42         5.5072   56.6297   20.8044 H         1 UNK         0.0000 
     43 H43         5.5132   57.3610   18.4412 H         1 UNK         0.0000 
     44 H44         8.3722   55.2974   22.5382 H         1 UNK         0.0000 
     45 H45         7.6683   54.9825   24.3352 H         1 UNK         0.0000 
     46 H46         7.5687   54.4953   26.5363 H         1 UNK         0.0000 
     47 H47         6.2802   54.0353   28.5480 H         1 UNK         0.0000 
     48 H48         3.9369   54.4563   24.2084 H         1 UNK         0.0000 
     49 H49         4.2137   53.5348   29.6590 H         1 UNK         0.0000 
     50 H50         2.9885   52.7665   28.6427 H         1 UNK         0.0000 
     51 H51         2.8740   54.4889   28.9845 H         1 UNK         0.0000 
@<TRIPOS>BOND
     1    1    2 1    
     2    1   33 1    
     3    1   34 1    
     4    1   35 1    
     5    2    7 ar   
     6    2    3 ar   
     7    3    4 ar   
     8    3   36 1    
     9    4    5 ar   
    10    4   37 1    
    11    5    6 ar   
    12    5    8 1    
    13    6    7 ar   
    14    6   38 1    
    15    7   39 1    
    16    8    9 2    
    17    8   10 2    
    18    8   11 1    
    19   11   12 1    
    20   11   40 1    
    21   12   20 1    
    22   12   13 2    
    23   13   14 1    
    24   14   19 ar   
    25   14   15 ar   
    26   15   16 ar   
    27   15   41 1    
    28   16   17 ar   
    29   16   21 1    
    30   17   18 ar   
    31   17   42 1    
    32   18   19 ar   
    33   18   43 1    
    34   19   20 1    
    35   21   22 am   BACKBONE|DICT|INTERRES
    36   21   44 1    
    37   22   23 2    
    38   22   24 am   BACKBONE|DICT|INTERRES
    39   24   25 1    
    40   24   45 1    
    41   25   30 ar   
    42   25   26 ar   
    43   26   27 ar   
    44   26   46 1    
    45   27   28 ar   
    46   27   47 1    
    47   28   29 ar   
    48   28   32 1    
    49   29   30 ar   
    50   29   31 1    
    51   30   48 1    
    52   32   49 1    
    53   32   50 1    
    54   32   51 1    
@<TRIPOS>SUBSTRUCTURE
     1 UNK         1 GROUP             0       ****    0 ROOT    
