ZINC09598267_6111
                    3D
 Schrodinger Suite 2024-2.
 70 74  0  0  1  0            999 V2000
    8.7010   50.5577   11.3845 C   0  0  0  0  0  0
    8.0065   51.1024   12.6194 C   0  0  0  0  0  0
    6.7062   50.7011   12.9351 C   0  0  0  0  0  0
    6.0850   51.1980   14.0802 C   0  0  0  0  0  0
    6.7602   52.0969   14.9069 C   0  0  0  0  0  0
    8.0617   52.5038   14.5838 C   0  0  0  0  0  0
    8.6799   52.0090   13.4375 C   0  0  0  0  0  0
    6.1112   52.5004   16.0831 N   0  0  0  0  0  0
    6.1473   53.7232   16.6555 C   0  0  0  0  0  0
    6.7792   54.6663   16.1781 O   0  0  0  0  0  0
    5.4299   53.8328   17.9276 C   0  0  0  0  0  0
    4.2202   53.2486   18.1578 C   0  0  0  0  0  0
    3.7036   53.2108   19.4284 N   0  0  0  0  0  0
    4.3521   53.6531   20.5560 C   0  0  0  0  0  0
    5.5041   54.3683   20.4507 C   0  0  0  0  0  0
    6.1791   54.5942   19.0617 C   0  0  2  0  0  0
    7.1693   54.1380   19.1241 H   0  0  0  0  0  0
    6.3808   56.0663   18.7078 C   0  0  0  0  0  0
    5.5064   56.9792   18.1266 C   0  0  0  0  0  0
    6.0863   58.2133   17.8259 C   0  0  0  0  0  0
    7.4289   58.3058   18.1601 C   0  0  0  0  0  0
    7.9456   56.8102   18.8698 S   0  0  0  0  0  0
    8.3911   59.4515   17.9783 C   0  0  0  0  0  0
    6.1692   54.8962   21.6629 C   0  0  0  0  0  0
    7.2480   55.4846   21.6282 O   0  0  0  0  0  0
    5.5295   54.5780   23.0215 C   0  0  0  0  0  0
    3.9921   54.3589   22.9757 C   0  0  1  0  0  0
    3.5054   55.2966   22.7115 H   0  0  0  0  0  0
    3.6414   53.3323   21.8707 C   0  0  0  0  0  0
    3.3904   53.9999   24.3549 C   0  0  0  0  0  0
    2.0639   53.5619   24.4520 C   0  0  0  0  0  0
    1.5139   53.2046   25.6801 C   0  0  0  0  0  0
    2.2669   53.2982   26.8613 C   0  0  0  0  0  0
    3.5873   53.7670   26.7936 C   0  0  0  0  0  0
    4.1318   54.1095   25.5431 C   0  0  0  0  0  0
    4.2908   53.8553   27.9848 O   0  0  0  0  0  0
    5.6516   54.2771   27.9757 C   0  0  0  0  0  0
    1.7800   52.9461   28.1094 O   0  0  0  0  0  0
    0.4810   52.3739   28.2226 C   0  0  0  0  0  0
    3.2978   52.5747   17.1453 C   0  0  0  0  0  0
    9.1531   51.3720   10.8194 H   0  0  0  0  0  0
    8.0103   50.0397   10.7202 H   0  0  0  0  0  0
    9.5037   49.8781   11.6731 H   0  0  0  0  0  0
    6.1793   49.9958   12.3087 H   0  0  0  0  0  0
    5.0896   50.8646   14.3339 H   0  0  0  0  0  0
    8.6082   53.1801   15.2243 H   0  0  0  0  0  0
    9.6882   52.3142   13.1974 H   0  0  0  0  0  0
    5.5260   51.8072   16.5396 H   0  0  0  0  0  0
    2.7346   52.9509   19.5207 H   0  0  0  0  0  0
    4.4769   56.7377   17.9042 H   0  0  0  0  0  0
    5.5421   59.0274   17.3639 H   0  0  0  0  0  0
    7.9294   60.2759   17.4351 H   0  0  0  0  0  0
    8.7357   59.8427   18.9335 H   0  0  0  0  0  0
    9.2724   59.1503   17.4106 H   0  0  0  0  0  0
    5.8273   55.3696   23.7070 H   0  0  0  0  0  0
    6.0002   53.6588   23.3717 H   0  0  0  0  0  0
    2.5630   53.3884   21.7202 H   0  0  0  0  0  0
    3.9180   52.3093   22.1321 H   0  0  0  0  0  0
    1.4401   53.4879   23.5744 H   0  0  0  0  0  0
    0.4914   52.8577   25.6965 H   0  0  0  0  0  0
    5.1496   54.4557   25.5038 H   0  0  0  0  0  0
    6.0303   54.2948   28.9965 H   0  0  0  0  0  0
    6.2797   53.5952   27.3989 H   0  0  0  0  0  0
    5.7570   55.2867   27.5778 H   0  0  0  0  0  0
    0.2844   52.1300   29.2656 H   0  0  0  0  0  0
   -0.2931   53.0697   27.8960 H   0  0  0  0  0  0
    0.3988   51.4475   27.6503 H   0  0  0  0  0  0
    3.4065   51.4896   17.2059 H   0  0  0  0  0  0
    2.2523   52.8206   17.3412 H   0  0  0  0  0  0
    3.5050   52.8876   16.1214 H   0  0  0  0  0  0
  1  2  1  0  0  0
  1 41  1  0  0  0
  1 42  1  0  0  0
  1 43  1  0  0  0
  2  7  2  0  0  0
  2  3  1  0  0  0
  3  4  2  0  0  0
  3 44  1  0  0  0
  4  5  1  0  0  0
  4 45  1  0  0  0
  5  6  2  0  0  0
  5  8  1  0  0  0
  6  7  1  0  0  0
  6 46  1  0  0  0
  7 47  1  0  0  0
  8  9  1  0  0  0
  8 48  1  0  0  0
  9 10  2  0  0  0
  9 11  1  0  0  0
 11 16  1  0  0  0
 11 12  2  0  0  0
 12 13  1  0  0  0
 12 40  1  0  0  0
 13 14  1  0  0  0
 13 49  1  0  0  0
 14 29  1  0  0  0
 14 15  2  0  0  0
 15 16  1  0  0  0
 15 24  1  0  0  0
 16 17  1  0  0  0
 16 18  1  0  0  0
 18 22  1  0  0  0
 18 19  2  0  0  0
 19 20  1  0  0  0
 19 50  1  0  0  0
 20 21  2  0  0  0
 20 51  1  0  0  0
 21 22  1  0  0  0
 21 23  1  0  0  0
 23 52  1  0  0  0
 23 53  1  0  0  0
 23 54  1  0  0  0
 24 25  2  0  0  0
 24 26  1  0  0  0
 26 27  1  0  0  0
 26 55  1  0  0  0
 26 56  1  0  0  0
 27 28  1  0  0  0
 27 29  1  0  0  0
 27 30  1  0  0  0
 29 57  1  0  0  0
 29 58  1  0  0  0
 30 35  2  0  0  0
 30 31  1  0  0  0
 31 32  2  0  0  0
 31 59  1  0  0  0
 32 33  1  0  0  0
 32 60  1  0  0  0
 33 34  2  0  0  0
 33 38  1  0  0  0
 34 35  1  0  0  0
 34 36  1  0  0  0
 35 61  1  0  0  0
 36 37  1  0  0  0
 37 62  1  0  0  0
 37 63  1  0  0  0
 37 64  1  0  0  0
 38 39  1  0  0  0
 39 65  1  0  0  0
 39 66  1  0  0  0
 39 67  1  0  0  0
 40 68  1  0  0  0
 40 69  1  0  0  0
 40 70  1  0  0  0
M  END
> <i_i_glide_confnum>
124

> <i_i_glide_lignum>
6112

> <i_i_glide_posenum>
380

> <i_i_glide_rotatable_bonds>
7

> <i_m_Source_File_Index>
4335

> <b_m_subgroup_collapsed>
0

> <r_i_docking_score>
-4.96193

> <r_i_glide_ecoul>
-3.6626

> <r_i_glide_eff_state_penalty>
0

> <r_i_glide_einternal>
10.0875

> <r_i_glide_emodel>
-52.5167

> <r_i_glide_energy>
-44.8907

> <r_i_glide_erotb>
0.368587

> <r_i_glide_esite>
-0.0876467

> <r_i_glide_evdw>
-41.2281

> <r_i_glide_gscore>
-4.96193

> <r_i_glide_hbond>
-0.115148

> <r_i_glide_ligand_efficiency>
-0.130577

> <r_i_glide_ligand_efficiency_ln>
-1.06994

> <r_i_glide_ligand_efficiency_sa>
-0.438997

> <r_i_glide_lipo>
-2.30619

> <r_i_glide_metal>
0

> <r_i_glide_rewards>
-0.210737

> <s_i_glide_gridfile>
wee1_glide-grid

> <s_m_Source_File>
wee1_decoys_glide_SP.sdf

> <s_m_Source_Path>
/Users/zhangxujun/Desktop

> <s_m_entry_id>
4610

> <s_m_entry_name>
wee1_decoys_glide_SP.4335

> <s_m_subgroup_title>
wee1_decoys_glide_SP

> <s_m_subgroupid>
wee1_decoys_glide_SP


$$$$
