ZINC11293270_97
                    3D
 Schrodinger Suite 2024-2.
 52 55  0  0  1  0            999 V2000
    3.2998   53.9024   26.4528 C   0  0  0  0  0  0
    4.6804   54.0983   26.4095 C   0  0  0  0  0  0
    5.3755   54.3500   27.6031 C   0  0  0  0  0  0
    4.6619   54.4969   28.7887 C   0  0  0  0  0  0
    3.2800   54.3144   28.8456 C   0  0  0  0  0  0
    2.5888   53.9937   27.6519 C   0  0  0  0  0  0
    1.2450   53.6850   27.6006 O   0  0  0  0  0  0
    0.7127   52.9078   28.6680 C   0  0  0  0  0  0
    0.3372   53.7749   29.8739 C   0  0  0  0  0  0
    1.3168   54.9308   30.1116 C   0  0  0  0  0  0
    2.6757   54.4998   30.0768 O   0  0  0  0  0  0
    7.1035   54.4164   27.6818 Cl  0  0  0  0  0  0
    5.3199   53.8880   25.1805 N   0  0  0  0  0  0
    6.1719   54.7272   24.5658 C   0  0  0  0  0  0
    6.4397   55.8550   24.9771 O   0  0  0  0  0  0
    6.8462   54.1896   23.3014 C   0  0  0  0  0  0
    6.7042   55.3016   21.8651 S   0  0  0  0  0  0
    5.5042   54.4541   20.8901 C   0  0  0  0  0  0
    5.4884   54.5062   19.5802 N   0  0  0  0  0  0
    4.5169   53.6959   19.0092 N   0  0  0  0  0  0
    3.7972   53.0693   19.9030 C   0  0  0  0  0  0
    4.2270   53.4609   21.5457 S   0  0  0  0  0  0
    2.7990   52.1850   19.5884 N   0  0  0  0  0  0
    1.9505   51.4383   20.5073 C   0  0  0  0  0  0
    0.6972   50.9523   19.7515 C   0  0  0  0  0  0
   -0.2426   50.2151   20.7303 C   0  0  0  0  0  0
    0.4810   49.0454   21.4415 C   0  0  0  0  0  0
    1.8266   49.4689   22.0790 C   0  0  0  0  0  0
    2.7158   50.2199   21.0659 C   0  0  0  0  0  0
    2.7598   53.6476   25.5518 H   0  0  0  0  0  0
    5.2011   54.7542   29.6825 H   0  0  0  0  0  0
   -0.1741   52.3888   28.3025 H   0  0  0  0  0  0
    1.4053   52.1086   28.9452 H   0  0  0  0  0  0
   -0.6619   54.1801   29.7314 H   0  0  0  0  0  0
    0.2793   53.1459   30.7628 H   0  0  0  0  0  0
    1.1585   55.7446   29.3995 H   0  0  0  0  0  0
    1.1147   55.3741   31.0872 H   0  0  0  0  0  0
    5.0935   53.0215   24.7185 H   0  0  0  0  0  0
    7.9037   54.0910   23.5311 H   0  0  0  0  0  0
    6.5222   53.1798   23.0557 H   0  0  0  0  0  0
    2.7448   51.8460   18.6374 H   0  0  0  0  0  0
    1.6445   52.1006   21.3200 H   0  0  0  0  0  0
    0.1713   51.7927   19.2945 H   0  0  0  0  0  0
    0.9774   50.2712   18.9444 H   0  0  0  0  0  0
   -0.6210   50.9176   21.4755 H   0  0  0  0  0  0
   -1.1158   49.8385   20.1948 H   0  0  0  0  0  0
   -0.1700   48.6106   22.2019 H   0  0  0  0  0  0
    0.6686   48.2517   20.7149 H   0  0  0  0  0  0
    1.6383   50.1049   22.9462 H   0  0  0  0  0  0
    2.3534   48.5937   22.4612 H   0  0  0  0  0  0
    2.9957   49.5425   20.2564 H   0  0  0  0  0  0
    3.6407   50.5296   21.5520 H   0  0  0  0  0  0
  1  6  2  0  0  0
  1  2  1  0  0  0
  1 30  1  0  0  0
  2  3  2  0  0  0
  2 13  1  0  0  0
  3  4  1  0  0  0
  3 12  1  0  0  0
  4  5  2  0  0  0
  4 31  1  0  0  0
  5 11  1  0  0  0
  5  6  1  0  0  0
  6  7  1  0  0  0
  7  8  1  0  0  0
  8  9  1  0  0  0
  8 32  1  0  0  0
  8 33  1  0  0  0
  9 10  1  0  0  0
  9 34  1  0  0  0
  9 35  1  0  0  0
 10 11  1  0  0  0
 10 36  1  0  0  0
 10 37  1  0  0  0
 13 14  1  0  0  0
 13 38  1  0  0  0
 14 15  2  0  0  0
 14 16  1  0  0  0
 16 17  1  0  0  0
 16 39  1  0  0  0
 16 40  1  0  0  0
 17 18  1  0  0  0
 18 22  1  0  0  0
 18 19  2  0  0  0
 19 20  1  0  0  0
 20 21  2  0  0  0
 21 22  1  0  0  0
 21 23  1  0  0  0
 23 24  1  0  0  0
 23 41  1  0  0  0
 24 29  1  0  0  0
 24 25  1  0  0  0
 24 42  1  0  0  0
 25 26  1  0  0  0
 25 43  1  0  0  0
 25 44  1  0  0  0
 26 27  1  0  0  0
 26 45  1  0  0  0
 26 46  1  0  0  0
 27 28  1  0  0  0
 27 47  1  0  0  0
 27 48  1  0  0  0
 28 29  1  0  0  0
 28 49  1  0  0  0
 28 50  1  0  0  0
 29 51  1  0  0  0
 29 52  1  0  0  0
M  END
> <i_i_glide_confnum>
217

> <i_i_glide_lignum>
98

> <i_i_glide_posenum>
192

> <i_i_glide_rotatable_bonds>
7

> <i_m_Source_File_Index>
2012

> <b_m_subgroup_collapsed>
0

> <r_i_docking_score>
-6.60938

> <r_i_glide_ecoul>
-4.43708

> <r_i_glide_eff_state_penalty>
0

> <r_i_glide_einternal>
4.78611

> <r_i_glide_emodel>
-68.8684

> <r_i_glide_energy>
-50.5699

> <r_i_glide_erotb>
0.582131

> <r_i_glide_esite>
-0.0656147

> <r_i_glide_evdw>
-46.1328

> <r_i_glide_gscore>
-6.60938

> <r_i_glide_hbond>
-0.32

> <r_i_glide_ligand_efficiency>
-0.22791

> <r_i_glide_ligand_efficiency_ln>
-1.51338

> <r_i_glide_ligand_efficiency_sa>
-0.70021

> <r_i_glide_lipo>
-3.07711

> <r_i_glide_metal>
0

> <r_i_glide_rewards>
-0.756585

> <s_i_glide_gridfile>
wee1_glide-grid

> <s_m_Source_File>
wee1_decoys_glide_SP.sdf

> <s_m_Source_Path>
/Users/zhangxujun/Desktop

> <s_m_entry_id>
2287

> <s_m_entry_name>
wee1_decoys_glide_SP.2012

> <s_m_subgroup_title>
wee1_decoys_glide_SP

> <s_m_subgroupid>
wee1_decoys_glide_SP


$$$$
