@<TRIPOS>MOLECULE
ZINC13247930_5628
46   47    1
SMALL
USER_CHARGES


@<TRIPOS>ATOM
      1 C1          7.0485   53.0504   28.0811 C.3       1 UNK         0.0000 
      2 C2          7.0214   53.8484   26.7796 C.3       1 UNK         0.0000 
      3 N3          5.8713   54.7183   26.5158 N.pl3     1 UNK         0.0000 
      4 C4          5.9969   55.6403   25.3863 C.3       1 UNK         0.0000 
      5 C5          6.5512   55.0140   24.0978 C.3       1 UNK         0.0000 
      6 C6          4.5854   54.3980   27.0269 C.ar      1 UNK         0.0000 
      7 C7          4.4132   54.4971   28.4130 C.ar      1 UNK         0.0000 
      8 C8          3.2048   54.1803   29.0166 C.ar      1 UNK         0.0000 
      9 C9          2.1216   53.7601   28.2495 C.ar      1 UNK         0.0000 
     10 C10         2.2622   53.6963   26.8593 C.ar      1 UNK         0.0000 
     11 C11         3.4773   54.0134   26.2300 C.ar      1 UNK         0.0000 
     12 N12         3.6118   53.8802   24.8340 N.pl3     1 UNK         0.0000 
     13 S13         2.3271   53.3701   23.7174 S.o2      1 UNK         0.0000 
     14 O14         1.3957   54.4968   23.6227 O.2       1 UNK         0.0000 
     15 O15         1.8729   52.0696   24.2132 O.2       1 UNK         0.0000 
     16 C16         3.1107   53.1596   22.1102 C.ar      1 UNK         0.0000 
     17 C17         4.0828   54.0947   21.7380 C.ar      1 UNK         0.0000 
     18 C18         4.8123   53.9710   20.5456 C.ar      1 UNK         0.0000 
     19 C19         4.5095   52.8973   19.6983 C.ar      1 UNK         0.0000 
     20 C20         3.5047   51.9921   20.0291 C.ar      1 UNK         0.0000 
     21 C21         2.7976   52.1133   21.2239 C.ar      1 UNK         0.0000 
     22 Br22        1.4181   50.8356   21.5488 Br        1 UNK         0.0000 
     23 C23         5.8966   54.9489   20.1934 C.2       1 UNK         0.0000 
     24 O24         6.6552   54.6632   19.2400 O.co2     1 UNK         0.0000 
     25 C25         0.8193   53.3711   28.9448 C.3       1 UNK         0.0000 
     26 F26        -0.1840   53.2122   28.0834 F         1 UNK         0.0000 
     27 F27         1.0022   52.2216   29.5954 F         1 UNK         0.0000 
     28 F28         0.4695   54.3079   29.8267 F         1 UNK         0.0000 
     29 H29         7.9041   52.3787   28.0818 H         1 UNK         0.0000 
     30 H30         7.1505   53.6980   28.9504 H         1 UNK         0.0000 
     31 H31         6.1532   52.4412   28.1923 H         1 UNK         0.0000 
     32 H32         7.1048   53.1475   25.9500 H         1 UNK         0.0000 
     33 H33         7.9043   54.4825   26.7673 H         1 UNK         0.0000 
     34 H34         5.0348   56.0969   25.1862 H         1 UNK         0.0000 
     35 H35         6.6603   56.4527   25.6836 H         1 UNK         0.0000 
     36 H36         6.6448   55.7648   23.3164 H         1 UNK         0.0000 
     37 H37         7.5374   54.5980   24.2537 H         1 UNK         0.0000 
     38 H38         5.9450   54.1962   23.7213 H         1 UNK         0.0000 
     39 H39         5.2272   54.8362   29.0366 H         1 UNK         0.0000 
     40 H40         3.1150   54.2551   30.0866 H         1 UNK         0.0000 
     41 H41         1.4148   53.3793   26.2725 H         1 UNK         0.0000 
     42 H42         4.5478   53.9423   24.4649 H         1 UNK         0.0000 
     43 H43         4.2839   54.9200   22.4006 H         1 UNK         0.0000 
     44 H44         5.0467   52.7520   18.7700 H         1 UNK         0.0000 
     45 H45         3.2849   51.1843   19.3459 H         1 UNK         0.0000 
     46 O46         5.9967   55.9913   20.8811 O.co2     1 UNK         0.0000 
@<TRIPOS>BOND
     1    1    2 1    
     2    1   29 1    
     3    1   30 1    
     4    1   31 1    
     5    2    3 1    
     6    2   32 1    
     7    2   33 1    
     8    3    4 1    
     9    3    6 1    
    10    4    5 1    
    11    4   34 1    
    12    4   35 1    
    13    5   36 1    
    14    5   37 1    
    15    5   38 1    
    16    6   11 ar   
    17    6    7 ar   
    18    7    8 ar   
    19    7   39 1    
    20    8    9 ar   
    21    8   40 1    
    22    9   10 ar   
    23    9   25 1    
    24   10   11 ar   
    25   10   41 1    
    26   11   12 1    
    27   12   13 1    
    28   12   42 1    
    29   13   14 2    
    30   13   15 2    
    31   13   16 1    
    32   16   21 ar   
    33   16   17 ar   
    34   17   18 ar   
    35   17   43 1    
    36   18   19 ar   
    37   18   23 1    
    38   19   20 ar   
    39   19   44 1    
    40   20   21 ar   
    41   20   45 1    
    42   21   22 1    
    43   23   24 2    
    44   23   46 1    
    45   25   26 1    
    46   25   27 1    
    47   25   28 1    
@<TRIPOS>SUBSTRUCTURE
     1 UNK         1 GROUP             0       ****    0 ROOT    
