@<TRIPOS>MOLECULE
ZINC12881564_5330
54   57    1
SMALL
USER_CHARGES


@<TRIPOS>ATOM
      1 C1          0.6244   49.5090   25.7008 C.3       1 UNK         0.0000 
      2 C2         -0.5479   49.0994   24.8235 C.ar      1 UNK         0.0000 
      3 C3         -1.3452   48.0419   25.2729 C.ar      1 UNK         0.0000 
      4 C4         -2.4766   47.6490   24.5628 C.ar      1 UNK         0.0000 
      5 C5         -2.8236   48.3095   23.3867 C.ar      1 UNK         0.0000 
      6 C6         -2.0462   49.3724   22.9302 C.ar      1 UNK         0.0000 
      7 C7         -0.9048   49.7739   23.6336 C.ar      1 UNK         0.0000 
      8 N8         -0.2412   50.9043   23.1314 N.am      1 UNK         0.0000 
      9 C9          1.0593   51.0090   22.7942 C.2       1 UNK         0.0000 
     10 O10         1.8809   50.0955   22.8812 O.2       1 UNK         0.0000 
     11 C11         1.4660   52.3958   22.2697 C.3       1 UNK         0.0000 
     12 C12         3.1781   51.8436   20.4022 C.3       1 UNK         0.0000 
     13 C13         4.4307   52.5530   19.9114 C.3       1 UNK         0.0000 
     14 C14         4.2273   53.9817   20.3964 C.3       1 UNK         0.0000 
     15 C15         3.5442   53.8718   21.7769 C.3       1 UNK         0.0000 
     16 H16         2.7078   54.5727   21.8088 H         1 UNK         0.0000 
     17 C17         4.4025   54.0607   23.0327 C.ar      1 UNK         0.0000 
     18 C18         5.7962   53.9550   22.9944 C.ar      1 UNK         0.0000 
     19 C19         6.5594   54.1831   24.1366 C.ar      1 UNK         0.0000 
     20 C20         5.9508   54.5109   25.3474 C.ar      1 UNK         0.0000 
     21 C21         4.5460   54.5846   25.4086 C.ar      1 UNK         0.0000 
     22 C22         3.7921   54.3716   24.2525 C.ar      1 UNK         0.0000 
     23 O23         3.8790   54.8962   26.5676 O.3       1 UNK         0.0000 
     24 C24         4.0539   54.0046   27.6586 C.3       1 UNK         0.0000 
     25 C25         5.3734   54.2257   28.4056 C.3       1 UNK         0.0000 
     26 C26         6.6209   53.9420   27.5618 C.3       1 UNK         0.0000 
     27 O27         6.7490   54.7949   26.4318 O.3       1 UNK         0.0000 
     28 I28        -3.6735   46.0966   25.2874 I         1 UNK         0.0000 
     29 H29         0.8448   50.5724   25.6146 H         1 UNK         0.0000 
     30 H30         0.3951   49.3336   26.7540 H         1 UNK         0.0000 
     31 H31         1.5037   48.9170   25.4444 H         1 UNK         0.0000 
     32 H32        -1.1012   47.5384   26.1986 H         1 UNK         0.0000 
     33 H33        -3.7053   48.0110   22.8383 H         1 UNK         0.0000 
     34 H34        -2.3422   49.8841   22.0254 H         1 UNK         0.0000 
     35 H35        -0.8452   51.6737   22.8862 H         1 UNK         0.0000 
     36 H36         0.8527   52.7445   21.4367 H         1 UNK         0.0000 
     37 H37         1.3824   53.1132   23.0850 H         1 UNK         0.0000 
     38 H38         3.2558   50.7576   20.4778 H         1 UNK         0.0000 
     39 H39         2.3144   52.1026   19.7862 H         1 UNK         0.0000 
     40 H40         5.3237   52.1012   20.3457 H         1 UNK         0.0000 
     41 H41         4.5332   52.4977   18.8257 H         1 UNK         0.0000 
     42 H42         5.1382   54.5791   20.3961 H         1 UNK         0.0000 
     43 H43         3.5530   54.4962   19.7094 H         1 UNK         0.0000 
     44 H44         6.3037   53.7021   22.0805 H         1 UNK         0.0000 
     45 H45         7.6351   54.1036   24.0821 H         1 UNK         0.0000 
     46 H46         2.7197   54.4718   24.3168 H         1 UNK         0.0000 
     47 H47         3.9426   52.9662   27.3376 H         1 UNK         0.0000 
     48 H48         3.2243   54.1798   28.3440 H         1 UNK         0.0000 
     49 H49         5.3888   53.5792   29.2810 H         1 UNK         0.0000 
     50 H50         5.4185   55.2507   28.7793 H         1 UNK         0.0000 
     51 H51         6.6647   52.8950   27.2594 H         1 UNK         0.0000 
     52 H52         7.5033   54.0966   28.1824 H         1 UNK         0.0000 
     53 N53         2.9486   52.4400   21.8102 N.4       1 UNK         0.0000 
     54 H54         3.5082   51.8935   22.4506 H         1 UNK         0.0000 
@<TRIPOS>BOND
     1    1    2 1    
     2    1   29 1    
     3    1   30 1    
     4    1   31 1    
     5    2    7 ar   
     6    2    3 ar   
     7    3    4 ar   
     8    3   32 1    
     9    4    5 ar   
    10    4   28 1    
    11    5    6 ar   
    12    5   33 1    
    13    6    7 ar   
    14    6   34 1    
    15    7    8 1    
    16    8    9 am   BACKBONE|DICT|INTERRES
    17    8   35 1    
    18    9   10 2    
    19    9   11 1    
    20   11   36 1    
    21   11   37 1    
    22   11   53 1    
    23   12   13 1    
    24   12   38 1    
    25   12   39 1    
    26   12   53 1    
    27   13   14 1    
    28   13   40 1    
    29   13   41 1    
    30   14   15 1    
    31   14   42 1    
    32   14   43 1    
    33   15   16 1    
    34   15   17 1    
    35   15   53 1    
    36   17   22 ar   
    37   17   18 ar   
    38   18   19 ar   
    39   18   44 1    
    40   19   20 ar   
    41   19   45 1    
    42   20   27 1    
    43   20   21 ar   
    44   21   22 ar   
    45   21   23 1    
    46   22   46 1    
    47   23   24 1    
    48   24   25 1    
    49   24   47 1    
    50   24   48 1    
    51   25   26 1    
    52   25   49 1    
    53   25   50 1    
    54   26   27 1    
    55   26   51 1    
    56   26   52 1    
    57   53   54 1    
@<TRIPOS>SUBSTRUCTURE
     1 UNK         1 GROUP             0       ****    0 ROOT    
