@<TRIPOS>MOLECULE
ZINC22573063_4331
40   41    1
SMALL
USER_CHARGES


@<TRIPOS>ATOM
      1 C1          4.2801   54.6692   29.6828 C.3       1 UNK         0.0000 
      2 C2          3.5851   53.6957   28.7569 C.2       1 UNK         0.0000 
      3 N3          2.7543   52.8562   29.2614 N.2       1 UNK         0.0000 
      4 N4          2.1145   51.9584   28.4633 N.pl3     1 UNK         0.0000 
      5 S5          0.3773   52.1571   28.1753 S.o2      1 UNK         0.0000 
      6 O6         -0.3214   51.3000   29.1343 O.2       1 UNK         0.0000 
      7 O7          0.0547   53.5858   28.0955 O.2       1 UNK         0.0000 
      8 C8          0.1455   51.4390   26.5378 C.ar      1 UNK         0.0000 
      9 C9          0.1893   52.2297   25.3865 C.ar      1 UNK         0.0000 
     10 C10         0.1069   51.6428   24.1257 C.ar      1 UNK         0.0000 
     11 C11        -0.0307   50.2608   24.0158 C.ar      1 UNK         0.0000 
     12 C12        -0.1066   49.4678   25.1571 C.ar      1 UNK         0.0000 
     13 C13        -0.0255   50.0618   26.4119 C.ar      1 UNK         0.0000 
     14 Br14       -0.1157   49.4487   22.2969 Br        1 UNK         0.0000 
     15 C15         3.8911   53.9120   27.3276 C.ar      1 UNK         0.0000 
     16 C16         2.8576   54.0915   26.4101 C.ar      1 UNK         0.0000 
     17 C17         3.1053   54.1774   25.0508 C.ar      1 UNK         0.0000 
     18 C18         4.4118   54.1470   24.5859 C.ar      1 UNK         0.0000 
     19 C19         5.4753   54.0962   25.5016 C.ar      1 UNK         0.0000 
     20 C20         5.2105   53.9553   26.8615 C.ar      1 UNK         0.0000 
     21 N21         4.5299   54.1409   23.1906 N.am      1 UNK         0.0000 
     22 C22         5.6352   54.1157   22.4245 C.2       1 UNK         0.0000 
     23 O23         6.7809   54.0973   22.8792 O.2       1 UNK         0.0000 
     24 C24         5.3990   54.0673   20.8977 C.3       1 UNK         0.0000 
     25 F25         6.3010   54.8248   20.2693 F         1 UNK         0.0000 
     26 F26         4.1756   54.4967   20.5895 F         1 UNK         0.0000 
     27 F27         5.5016   52.8086   20.4720 F         1 UNK         0.0000 
     28 H28         5.3054   54.8963   29.3892 H         1 UNK         0.0000 
     29 H29         3.7244   55.6051   29.6817 H         1 UNK         0.0000 
     30 H30         4.3026   54.2993   30.7070 H         1 UNK         0.0000 
     31 H31         2.2408   50.9972   28.7893 H         1 UNK         0.0000 
     32 H32         0.3039   53.2960   25.4557 H         1 UNK         0.0000 
     33 H33         0.1583   52.2544   23.2370 H         1 UNK         0.0000 
     34 H34        -0.2208   48.3963   25.0791 H         1 UNK         0.0000 
     35 H35        -0.0937   49.4338   27.2817 H         1 UNK         0.0000 
     36 H36         1.8419   54.1526   26.7453 H         1 UNK         0.0000 
     37 H37         2.2722   54.2639   24.3674 H         1 UNK         0.0000 
     38 H38         6.5072   54.0858   25.1935 H         1 UNK         0.0000 
     39 H39         6.0442   53.8391   27.5394 H         1 UNK         0.0000 
     40 H40         3.6522   54.1523   22.6913 H         1 UNK         0.0000 
@<TRIPOS>BOND
     1    1    2 1    
     2    1   28 1    
     3    1   29 1    
     4    1   30 1    
     5    2    3 2    
     6    2   15 1    
     7    3    4 1    
     8    4    5 1    
     9    4   31 1    
    10    5    6 2    
    11    5    7 2    
    12    5    8 1    
    13    8   13 ar   
    14    8    9 ar   
    15    9   10 ar   
    16    9   32 1    
    17   10   11 ar   
    18   10   33 1    
    19   11   12 ar   
    20   11   14 1    
    21   12   13 ar   
    22   12   34 1    
    23   13   35 1    
    24   15   20 ar   
    25   15   16 ar   
    26   16   17 ar   
    27   16   36 1    
    28   17   18 ar   
    29   17   37 1    
    30   18   19 ar   
    31   18   21 1    
    32   19   20 ar   
    33   19   38 1    
    34   20   39 1    
    35   21   22 am   BACKBONE|DICT|INTERRES
    36   21   40 1    
    37   22   23 2    
    38   22   24 1    
    39   24   25 1    
    40   24   26 1    
    41   24   27 1    
@<TRIPOS>SUBSTRUCTURE
     1 UNK         1 GROUP             0       ****    0 ROOT    
