@<TRIPOS>MOLECULE
ZINC33263360_3272
55   58    1
SMALL
USER_CHARGES


@<TRIPOS>ATOM
      1 C1         -0.0748   48.1243   24.5749 C.3       1 UNK         0.0000 
      2 C2         -0.5878   49.5171   24.8653 C.ar      1 UNK         0.0000 
      3 C3         -1.3547   50.1948   23.9147 C.ar      1 UNK         0.0000 
      4 C4         -1.8338   51.4774   24.1843 C.ar      1 UNK         0.0000 
      5 C5         -1.5383   52.0877   25.4031 C.ar      1 UNK         0.0000 
      6 C6         -0.7513   51.4280   26.3507 C.ar      1 UNK         0.0000 
      7 C7         -0.2855   50.1334   26.0807 C.ar      1 UNK         0.0000 
      8 N8         -0.5042   52.0993   27.5551 N.am      1 UNK         0.0000 
      9 C9          0.5916   52.0230   28.3415 C.2       1 UNK         0.0000 
     10 O10         1.5563   51.2988   28.0934 O.2       1 UNK         0.0000 
     11 C11         0.5696   52.9124   29.6171 C.3       1 UNK         0.0000 
     12 H12        -0.2809   52.5319   30.1893 H         1 UNK         0.0000 
     13 C13         0.3037   54.3906   29.2160 C.3       1 UNK         0.0000 
     14 C14         1.5061   55.1238   28.5954 C.3       1 UNK         0.0000 
     15 C15         2.7663   54.9726   29.4596 C.3       1 UNK         0.0000 
     16 N16         2.9667   53.5289   29.6877 N.am      1 UNK         0.0000 
     17 C17         1.8905   52.8419   30.4433 C.3       1 UNK         0.0000 
     18 C18         4.0655   52.8361   29.2926 C.2       1 UNK         0.0000 
     19 O19         4.3043   51.6968   29.6842 O.2       1 UNK         0.0000 
     20 C20         4.9646   53.4429   28.3529 C.2       1 UNK         0.0000 
     21 N21         6.2428   53.6954   28.4813 N.2       1 UNK         0.0000 
     22 N22         6.8249   54.1910   27.3280 N.2       1 UNK         0.0000 
     23 C23         5.9983   54.2723   26.3156 C.2       1 UNK         0.0000 
     24 S24         4.3733   53.7911   26.7518 S.3       1 UNK         0.0000 
     25 C25         6.2802   54.7972   25.0129 C.2       1 UNK         0.0000 
     26 O26         7.1044   55.6966   24.8982 O.2       1 UNK         0.0000 
     27 N27         5.6151   54.2115   23.9942 N.am      1 UNK         0.0000 
     28 C28         5.7011   54.4813   22.6148 C.ar      1 UNK         0.0000 
     29 C29         4.7099   53.8969   21.8172 C.ar      1 UNK         0.0000 
     30 C30         4.7017   54.0961   20.4364 C.ar      1 UNK         0.0000 
     31 C31         5.6851   54.8821   19.8410 C.ar      1 UNK         0.0000 
     32 C32         6.6837   55.4619   20.6216 C.ar      1 UNK         0.0000 
     33 C33         6.7015   55.2596   22.0040 C.ar      1 UNK         0.0000 
     34 Cl34        7.9056   56.4164   19.8688 Cl        1 UNK         0.0000 
     35 H35         0.3609   48.0964   23.5786 H         1 UNK         0.0000 
     36 H36         0.7044   47.8351   25.2800 H         1 UNK         0.0000 
     37 H37        -0.8851   47.3977   24.6207 H         1 UNK         0.0000 
     38 H38        -1.5879   49.7252   22.9690 H         1 UNK         0.0000 
     39 H39        -2.4322   51.9955   23.4505 H         1 UNK         0.0000 
     40 H40        -1.9194   53.0794   25.6010 H         1 UNK         0.0000 
     41 H41         0.2830   49.5886   26.8214 H         1 UNK         0.0000 
     42 H42        -1.2019   52.7758   27.8123 H         1 UNK         0.0000 
     43 H43        -0.0539   54.8974   30.1122 H         1 UNK         0.0000 
     44 H44        -0.5720   54.4835   28.5802 H         1 UNK         0.0000 
     45 H45         1.2737   56.1836   28.4808 H         1 UNK         0.0000 
     46 H46         1.6964   54.7481   27.5910 H         1 UNK         0.0000 
     47 H47         2.5860   55.4316   30.4316 H         1 UNK         0.0000 
     48 H48         3.6384   55.4849   29.0513 H         1 UNK         0.0000 
     49 H49         2.1384   51.8211   30.7400 H         1 UNK         0.0000 
     50 H50         1.7326   53.3535   31.3906 H         1 UNK         0.0000 
     51 H51         4.9529   53.4953   24.2490 H         1 UNK         0.0000 
     52 H52         3.9315   53.2891   22.2579 H         1 UNK         0.0000 
     53 H53         3.9276   53.6465   19.8289 H         1 UNK         0.0000 
     54 H54         5.6748   55.0363   18.7716 H         1 UNK         0.0000 
     55 H55         7.5047   55.7043   22.5705 H         1 UNK         0.0000 
@<TRIPOS>BOND
     1    1    2 1    
     2    1   35 1    
     3    1   36 1    
     4    1   37 1    
     5    2    7 ar   
     6    2    3 ar   
     7    3    4 ar   
     8    3   38 1    
     9    4    5 ar   
    10    4   39 1    
    11    5    6 ar   
    12    5   40 1    
    13    6    7 ar   
    14    6    8 1    
    15    7   41 1    
    16    8    9 am   BACKBONE|DICT|INTERRES
    17    8   42 1    
    18    9   10 2    
    19    9   11 1    
    20   11   12 1    
    21   11   17 1    
    22   11   13 1    
    23   13   14 1    
    24   13   43 1    
    25   13   44 1    
    26   14   15 1    
    27   14   45 1    
    28   14   46 1    
    29   15   16 1    
    30   15   47 1    
    31   15   48 1    
    32   16   17 1    
    33   16   18 am   BACKBONE|DICT|INTERRES
    34   17   49 1    
    35   17   50 1    
    36   18   19 2    
    37   18   20 1    
    38   20   24 1    
    39   20   21 2    
    40   21   22 1    
    41   22   23 2    
    42   23   24 1    
    43   23   25 1    
    44   25   26 2    
    45   25   27 am   BACKBONE|DICT|INTERRES
    46   27   28 1    
    47   27   51 1    
    48   28   33 ar   
    49   28   29 ar   
    50   29   30 ar   
    51   29   52 1    
    52   30   31 ar   
    53   30   53 1    
    54   31   32 ar   
    55   31   54 1    
    56   32   33 ar   
    57   32   34 1    
    58   33   55 1    
@<TRIPOS>SUBSTRUCTURE
     1 UNK         1 GROUP             0       ****    0 ROOT    
