@<TRIPOS>MOLECULE
ZINC12767545_4225
55   59    1
SMALL
USER_CHARGES


@<TRIPOS>ATOM
      1 C1         -2.6119   46.2527   26.1269 C.3       1 UNK         0.0000 
      2 C2         -1.8840   47.1838   25.1634 C.2       1 UNK         0.0000 
      3 O3         -1.6956   46.8239   24.0016 O.2       1 UNK         0.0000 
      4 N4         -1.5138   48.3669   25.6817 N.am      1 UNK         0.0000 
      5 C5         -0.8380   49.4205   25.0581 C.ar      1 UNK         0.0000 
      6 C6          0.2296   49.2209   24.1743 C.ar      1 UNK         0.0000 
      7 C7          0.9305   50.3195   23.6797 C.ar      1 UNK         0.0000 
      8 C8          0.5576   51.6085   24.0636 C.ar      1 UNK         0.0000 
      9 C9         -0.5283   51.8088   24.9156 C.ar      1 UNK         0.0000 
     10 C10        -1.2122   50.7122   25.4299 C.ar      1 UNK         0.0000 
     11 S11         1.5044   52.9975   23.5044 S.3       1 UNK         0.0000 
     12 C12         2.4794   53.4292   24.9374 C.ar      1 UNK         0.0000 
     13 C13         3.7702   53.9727   24.8094 C.ar      1 UNK         0.0000 
     14 N14         4.5141   54.2909   25.9033 N.ar      1 UNK         0.0000 
     15 C15         3.9735   54.0543   27.1320 C.ar      1 UNK         0.0000 
     16 C16         4.7028   54.3673   28.3028 C.ar      1 UNK         0.0000 
     17 C17         4.1464   54.1059   29.5545 C.ar      1 UNK         0.0000 
     18 C18         2.8866   53.5217   29.6727 C.ar      1 UNK         0.0000 
     19 C19         2.1382   53.2189   28.5393 C.ar      1 UNK         0.0000 
     20 C20         2.6684   53.4887   27.2575 C.ar      1 UNK         0.0000 
     21 N21         1.9301   53.1962   26.1567 N.ar      1 UNK         0.0000 
     22 N22         4.3092   54.1815   23.5352 N.pl3     1 UNK         0.0000 
     23 S23         6.0094   54.5349   23.1795 S.o2      1 UNK         0.0000 
     24 O24         6.4098   55.6967   23.9795 O.2       1 UNK         0.0000 
     25 O25         6.7684   53.2967   23.2817 O.2       1 UNK         0.0000 
     26 C26         5.9761   54.9681   21.4450 C.ar      1 UNK         0.0000 
     27 C27         5.2174   54.2058   20.5456 C.ar      1 UNK         0.0000 
     28 C28         5.0941   54.6068   19.2138 C.ar      1 UNK         0.0000 
     29 C29         5.7182   55.7775   18.7859 C.ar      1 UNK         0.0000 
     30 C30         6.5217   56.5118   19.6725 C.ar      1 UNK         0.0000 
     31 C31         6.6615   56.0967   20.9951 C.ar      1 UNK         0.0000 
     32 O32         7.1044   57.7117   19.3173 O.3       1 UNK         0.0000 
     33 C33         7.1344   57.9659   17.9075 C.3       1 UNK         0.0000 
     34 C34         5.8055   57.5461   17.2355 C.3       1 UNK         0.0000 
     35 O35         5.5502   56.1560   17.4699 O.3       1 UNK         0.0000 
     36 H36        -2.9733   46.7951   27.0022 H         1 UNK         0.0000 
     37 H37        -1.9396   45.4725   26.4817 H         1 UNK         0.0000 
     38 H38        -3.4706   45.7925   25.6398 H         1 UNK         0.0000 
     39 H39        -1.6956   48.4967   26.6796 H         1 UNK         0.0000 
     40 H40         0.5468   48.2231   23.9089 H         1 UNK         0.0000 
     41 H41         1.7774   50.1657   23.0269 H         1 UNK         0.0000 
     42 H42        -0.8104   52.8078   25.2140 H         1 UNK         0.0000 
     43 H43        -2.0237   50.8682   26.1266 H         1 UNK         0.0000 
     44 H44         5.6868   54.8080   28.2172 H         1 UNK         0.0000 
     45 H45         4.7044   54.3599   30.4428 H         1 UNK         0.0000 
     46 H46         2.4763   53.2967   30.6463 H         1 UNK         0.0000 
     47 H47         1.1570   52.7734   28.6275 H         1 UNK         0.0000 
     48 H48         3.7002   54.0041   22.7516 H         1 UNK         0.0000 
     49 H49         4.7045   53.3134   20.8750 H         1 UNK         0.0000 
     50 H50         4.4987   54.0259   18.5240 H         1 UNK         0.0000 
     51 H51         7.2631   56.6681   21.6817 H         1 UNK         0.0000 
     52 H52         7.9559   57.4034   17.4607 H         1 UNK         0.0000 
     53 H53         7.3259   59.0264   17.7381 H         1 UNK         0.0000 
     54 H54         5.8394   57.7353   16.1624 H         1 UNK         0.0000 
     55 H55         4.9912   58.1434   17.6500 H         1 UNK         0.0000 
@<TRIPOS>BOND
     1    1    2 1    
     2    1   36 1    
     3    1   37 1    
     4    1   38 1    
     5    2    3 2    
     6    2    4 am   BACKBONE|DICT|INTERRES
     7    4    5 1    
     8    4   39 1    
     9    5   10 ar   
    10    5    6 ar   
    11    6    7 ar   
    12    6   40 1    
    13    7    8 ar   
    14    7   41 1    
    15    8    9 ar   
    16    8   11 1    
    17    9   10 ar   
    18    9   42 1    
    19   10   43 1    
    20   11   12 1    
    21   12   21 ar   
    22   12   13 ar   
    23   13   14 ar   
    24   13   22 1    
    25   14   15 ar   
    26   15   20 ar   
    27   15   16 ar   
    28   16   17 ar   
    29   16   44 1    
    30   17   18 ar   
    31   17   45 1    
    32   18   19 ar   
    33   18   46 1    
    34   19   20 ar   
    35   19   47 1    
    36   20   21 ar   
    37   22   23 1    
    38   22   48 1    
    39   23   24 2    
    40   23   25 2    
    41   23   26 1    
    42   26   31 ar   
    43   26   27 ar   
    44   27   28 ar   
    45   27   49 1    
    46   28   29 ar   
    47   28   50 1    
    48   29   35 1    
    49   29   30 ar   
    50   30   31 ar   
    51   30   32 1    
    52   31   51 1    
    53   32   33 1    
    54   33   34 1    
    55   33   52 1    
    56   33   53 1    
    57   34   35 1    
    58   34   54 1    
    59   34   55 1    
@<TRIPOS>SUBSTRUCTURE
     1 UNK         1 GROUP             0       ****    0 ROOT    
