@<TRIPOS>MOLECULE
ZINC48752580_6202
56   58    1
SMALL
USER_CHARGES


@<TRIPOS>ATOM
      1 C1          2.9139   51.9722   17.6694 C.3       1 UNK         0.0000 
      2 N2          3.9219   53.0101   18.2311 N.4       1 UNK         0.0000 
      3 C3          3.6531   54.3759   17.5481 C.3       1 UNK         0.0000 
      4 C4          4.0550   53.0491   19.7946 C.3       1 UNK         0.0000 
      5 C5          4.5975   51.7234   20.3800 C.3       1 UNK         0.0000 
      6 C6          3.8992   51.5197   21.7090 C.3       1 UNK         0.0000 
      7 C7          2.4904   52.0021   21.4595 C.3       1 UNK         0.0000 
      8 C8          2.7045   53.2138   20.5597 C.3       1 UNK         0.0000 
      9 C9          5.0648   54.2061   20.1688 C.3       1 UNK         0.0000 
     10 N10         5.2479   54.3761   21.6139 N.am      1 UNK         0.0000 
     11 C11         6.3095   54.8968   22.2753 C.2       1 UNK         0.0000 
     12 O12         7.2831   55.3604   21.6811 O.2       1 UNK         0.0000 
     13 C13         6.2281   54.8961   23.7891 C.2       1 UNK         0.0000 
     14 O14         7.1044   55.4136   24.4824 O.2       1 UNK         0.0000 
     15 N15         5.1069   54.3324   24.3003 N.am      1 UNK         0.0000 
     16 C16         4.6864   54.2024   25.6269 C.ar      1 UNK         0.0000 
     17 C17         3.3377   53.8913   25.7830 C.ar      1 UNK         0.0000 
     18 C18         2.8114   53.6961   27.0515 C.ar      1 UNK         0.0000 
     19 C19         3.6302   53.8116   28.1822 C.ar      1 UNK         0.0000 
     20 C20         4.9875   54.1170   28.0186 C.ar      1 UNK         0.0000 
     21 C21         5.5180   54.3148   26.7475 C.ar      1 UNK         0.0000 
     22 C22         3.0759   53.5788   29.5631 C.2       1 UNK         0.0000 
     23 O23         3.8150   53.2470   30.4878 O.2       1 UNK         0.0000 
     24 N24         1.7532   53.7687   29.7048 N.am      1 UNK         0.0000 
     25 C25         0.9469   53.5506   30.9007 C.3       1 UNK         0.0000 
     26 C26         0.0120   52.3687   30.8697 C.3       1 UNK         0.0000 
     27 C27         1.1821   52.3631   31.8146 C.3       1 UNK         0.0000 
     28 H28         1.8986   52.3053   17.8856 H         1 UNK         0.0000 
     29 H29         3.0770   51.9205   16.5904 H         1 UNK         0.0000 
     30 H30         3.1037   50.9856   18.0855 H         1 UNK         0.0000 
     31 H31         2.7798   54.8220   18.0297 H         1 UNK         0.0000 
     32 H32         4.5417   54.9996   17.6525 H         1 UNK         0.0000 
     33 H33         3.4689   54.1995   16.4864 H         1 UNK         0.0000 
     34 H34         5.6828   51.6968   20.4516 H         1 UNK         0.0000 
     35 H35         4.3042   50.8772   19.7724 H         1 UNK         0.0000 
     36 H36         4.3946   52.1039   22.4751 H         1 UNK         0.0000 
     37 H37         3.8996   50.4950   22.0420 H         1 UNK         0.0000 
     38 H38         1.9606   52.2458   22.3826 H         1 UNK         0.0000 
     39 H39         1.9152   51.2346   20.9372 H         1 UNK         0.0000 
     40 H40         1.8594   53.2966   19.8807 H         1 UNK         0.0000 
     41 H41         2.7057   54.0967   21.2014 H         1 UNK         0.0000 
     42 H42         6.0263   54.0369   19.6814 H         1 UNK         0.0000 
     43 H43         4.7025   55.1689   19.8156 H         1 UNK         0.0000 
     44 H44         4.4630   54.0350   22.1375 H         1 UNK         0.0000 
     45 H45         4.4234   53.9933   23.6504 H         1 UNK         0.0000 
     46 H46         2.6833   53.7850   24.9289 H         1 UNK         0.0000 
     47 H47         1.7664   53.4341   27.1340 H         1 UNK         0.0000 
     48 H48         5.6442   54.2017   28.8745 H         1 UNK         0.0000 
     49 H49         6.5709   54.5252   26.6574 H         1 UNK         0.0000 
     50 H50         1.2662   54.1805   28.9248 H         1 UNK         0.0000 
     51 H51         0.5816   54.4744   31.3530 H         1 UNK         0.0000 
     52 H52        -0.9830   52.4970   31.2813 H         1 UNK         0.0000 
     53 H53         0.0200   51.6972   30.0105 H         1 UNK         0.0000 
     54 H54         2.0213   51.6967   31.6244 H         1 UNK         0.0000 
     55 H55         0.9767   52.4702   32.8804 H         1 UNK         0.0000 
     56 H56         4.8187   52.6648   17.9065 H         1 UNK         0.0000 
@<TRIPOS>BOND
     1    1    2 1    
     2    1   28 1    
     3    1   29 1    
     4    1   30 1    
     5    2    3 1    
     6    2    4 1    
     7    2   56 1    
     8    3   31 1    
     9    3   32 1    
    10    3   33 1    
    11    4    8 1    
    12    4    5 1    
    13    4    9 1    
    14    5    6 1    
    15    5   34 1    
    16    5   35 1    
    17    6    7 1    
    18    6   36 1    
    19    6   37 1    
    20    7    8 1    
    21    7   38 1    
    22    7   39 1    
    23    8   40 1    
    24    8   41 1    
    25    9   10 1    
    26    9   42 1    
    27    9   43 1    
    28   10   11 am   BACKBONE|DICT|INTERRES
    29   10   44 1    
    30   11   12 2    
    31   11   13 1    
    32   13   14 2    
    33   13   15 am   BACKBONE|DICT|INTERRES
    34   15   16 1    
    35   15   45 1    
    36   16   21 ar   
    37   16   17 ar   
    38   17   18 ar   
    39   17   46 1    
    40   18   19 ar   
    41   18   47 1    
    42   19   20 ar   
    43   19   22 1    
    44   20   21 ar   
    45   20   48 1    
    46   21   49 1    
    47   22   23 2    
    48   22   24 am   BACKBONE|DICT|INTERRES
    49   24   25 1    
    50   24   50 1    
    51   25   27 1    
    52   25   26 1    
    53   25   51 1    
    54   26   27 1    
    55   26   52 1    
    56   26   53 1    
    57   27   54 1    
    58   27   55 1    
@<TRIPOS>SUBSTRUCTURE
     1 UNK         1 GROUP             0       ****    0 ROOT    
