@<TRIPOS>MOLECULE
ZINC38560748_5308
60   62    1
SMALL
USER_CHARGES


@<TRIPOS>ATOM
      1 C1          5.0845   54.9411   26.0469 C.3       1 UNK         0.0000 
      2 C2          3.7541   54.2751   25.7527 C.ar      1 UNK         0.0000 
      3 C3          3.0881   53.5753   26.7612 C.ar      1 UNK         0.0000 
      4 C4          1.9006   52.9043   26.4751 C.ar      1 UNK         0.0000 
      5 C5          1.3677   52.9595   25.1850 C.ar      1 UNK         0.0000 
      6 C6          1.9963   53.7182   24.1943 C.ar      1 UNK         0.0000 
      7 C7          3.2004   54.3587   24.4738 C.ar      1 UNK         0.0000 
      8 S8         -0.0542   51.9473   24.7846 S.o2      1 UNK         0.0000 
      9 O9         -0.6669   52.5096   23.5748 O.2       1 UNK         0.0000 
     10 O10        -0.8315   51.8229   26.0247 O.2       1 UNK         0.0000 
     11 N11         0.7022   50.3602   24.4164 N.pl3     1 UNK         0.0000 
     12 C12         0.2056   49.2171   25.2248 C.3       1 UNK         0.0000 
     13 C13        -1.1585   48.7363   24.6832 C.3       1 UNK         0.0000 
     14 C14        -1.0826   48.4216   23.1645 C.3       1 UNK         0.0000 
     15 C15        -0.4042   49.5444   22.3345 C.3       1 UNK         0.0000 
     16 C16         0.9377   49.9429   22.9944 C.3       1 UNK         0.0000 
     17 H17         1.5570   49.0435   23.0222 H         1 UNK         0.0000 
     18 C18         1.7487   51.0402   22.2679 C.3       1 UNK         0.0000 
     19 C19         2.4402   50.6506   20.9481 C.3       1 UNK         0.0000 
     20 N20         3.1317   51.8058   20.3633 N.am      1 UNK         0.0000 
     21 C21         4.3050   52.2988   20.8266 C.2       1 UNK         0.0000 
     22 O22         4.9775   51.7185   21.6815 O.2       1 UNK         0.0000 
     23 C23         4.7143   53.6437   20.3238 C.2       1 UNK         0.0000 
     24 O24         5.3815   54.3911   21.0461 O.2       1 UNK         0.0000 
     25 N25         4.3035   53.9601   19.0690 N.am      1 UNK         0.0000 
     26 C26         4.5032   55.1827   18.3996 C.ar      1 UNK         0.0000 
     27 C27         3.5279   55.5808   17.4815 C.ar      1 UNK         0.0000 
     28 C28         3.6515   56.7949   16.8051 C.ar      1 UNK         0.0000 
     29 C29         4.7581   57.6139   17.0278 C.ar      1 UNK         0.0000 
     30 C30         5.7593   57.2201   17.9242 C.ar      1 UNK         0.0000 
     31 C31         5.6270   56.0010   18.5998 C.ar      1 UNK         0.0000 
     32 C32         6.9746   58.1088   18.1799 C.3       1 UNK         0.0000 
     33 F33         7.2655   58.8695   17.1232 F         1 UNK         0.0000 
     34 F34         8.0544   57.3813   18.4722 F         1 UNK         0.0000 
     35 F35         6.7104   58.8961   19.2227 F         1 UNK         0.0000 
     36 H36         5.1187   55.2964   27.0777 H         1 UNK         0.0000 
     37 H37         5.9004   54.2320   25.8960 H         1 UNK         0.0000 
     38 H38         5.2455   55.8073   25.4025 H         1 UNK         0.0000 
     39 H39         3.5105   53.5103   27.7536 H         1 UNK         0.0000 
     40 H40         1.4179   52.3179   27.2457 H         1 UNK         0.0000 
     41 H41         1.5866   53.7775   23.1963 H         1 UNK         0.0000 
     42 H42         3.7109   54.8974   23.6883 H         1 UNK         0.0000 
     43 H43         0.2297   49.4631   26.2878 H         1 UNK         0.0000 
     44 H44         0.9089   48.3915   25.1034 H         1 UNK         0.0000 
     45 H45        -1.9188   49.4981   24.8718 H         1 UNK         0.0000 
     46 H46        -1.4804   47.8520   25.2354 H         1 UNK         0.0000 
     47 H47        -2.0790   48.2106   22.7739 H         1 UNK         0.0000 
     48 H48        -0.5046   47.5046   23.0398 H         1 UNK         0.0000 
     49 H49        -1.0884   50.3927   22.2870 H         1 UNK         0.0000 
     50 H50        -0.2399   49.1866   21.3161 H         1 UNK         0.0000 
     51 H51         2.5271   51.3959   22.9428 H         1 UNK         0.0000 
     52 H52         1.1021   51.8859   22.0432 H         1 UNK         0.0000 
     53 H53         1.7002   50.2807   20.2375 H         1 UNK         0.0000 
     54 H54         3.1157   49.8073   21.1021 H         1 UNK         0.0000 
     55 H55         2.6080   52.3290   19.6783 H         1 UNK         0.0000 
     56 H56         3.7721   53.2696   18.5609 H         1 UNK         0.0000 
     57 H57         2.6563   54.9659   17.3049 H         1 UNK         0.0000 
     58 H58         2.8832   57.1096   16.1144 H         1 UNK         0.0000 
     59 H59         4.8288   58.5621   16.5095 H         1 UNK         0.0000 
     60 H60         6.4073   55.6962   19.2811 H         1 UNK         0.0000 
@<TRIPOS>BOND
     1    1    2 1    
     2    1   36 1    
     3    1   37 1    
     4    1   38 1    
     5    2    7 ar   
     6    2    3 ar   
     7    3    4 ar   
     8    3   39 1    
     9    4    5 ar   
    10    4   40 1    
    11    5    6 ar   
    12    5    8 1    
    13    6    7 ar   
    14    6   41 1    
    15    7   42 1    
    16    8    9 2    
    17    8   10 2    
    18    8   11 1    
    19   11   16 1    
    20   11   12 1    
    21   12   13 1    
    22   12   43 1    
    23   12   44 1    
    24   13   14 1    
    25   13   45 1    
    26   13   46 1    
    27   14   15 1    
    28   14   47 1    
    29   14   48 1    
    30   15   16 1    
    31   15   49 1    
    32   15   50 1    
    33   16   17 1    
    34   16   18 1    
    35   18   19 1    
    36   18   51 1    
    37   18   52 1    
    38   19   20 1    
    39   19   53 1    
    40   19   54 1    
    41   20   21 am   BACKBONE|DICT|INTERRES
    42   20   55 1    
    43   21   22 2    
    44   21   23 1    
    45   23   24 2    
    46   23   25 am   BACKBONE|DICT|INTERRES
    47   25   26 1    
    48   25   56 1    
    49   26   31 ar   
    50   26   27 ar   
    51   27   28 ar   
    52   27   57 1    
    53   28   29 ar   
    54   28   58 1    
    55   29   30 ar   
    56   29   59 1    
    57   30   31 ar   
    58   30   32 1    
    59   31   60 1    
    60   32   33 1    
    61   32   34 1    
    62   32   35 1    
@<TRIPOS>SUBSTRUCTURE
     1 UNK         1 GROUP             0       ****    0 ROOT    
