@<TRIPOS>MOLECULE
ZINC59116044_4757
33   36    1
SMALL
USER_CHARGES


@<TRIPOS>ATOM
      1 C1          6.4493   54.2390   26.0489 C.ar      1 UNK         0.0000 
      2 C2          6.7738   54.1840   24.6922 C.ar      1 UNK         0.0000 
      3 C3          5.7358   54.1571   23.7560 C.ar      1 UNK         0.0000 
      4 C4          4.3924   54.2378   24.1909 C.ar      1 UNK         0.0000 
      5 C5          4.0809   54.3784   25.5437 C.ar      1 UNK         0.0000 
      6 C6          5.1224   54.3050   26.4823 C.ar      1 UNK         0.0000 
      7 C7          4.8363   54.2737   27.9904 C.3       1 UNK         0.0000 
      8 C8          3.5104   53.6612   28.4173 C.2       1 UNK         0.0000 
      9 N9          2.7247   52.8920   27.6929 N.2       1 UNK         0.0000 
     10 C10         1.6472   52.6773   28.4871 C.ar      1 UNK         0.0000 
     11 C11         0.4530   51.9919   28.2345 C.ar      1 UNK         0.0000 
     12 C12        -0.4892   51.9471   29.2600 C.ar      1 UNK         0.0000 
     13 C13        -0.2366   52.5333   30.5019 C.ar      1 UNK         0.0000 
     14 C14         0.9392   53.2316   30.7734 C.ar      1 UNK         0.0000 
     15 C15         1.8646   53.2897   29.7313 C.ar      1 UNK         0.0000 
     16 O16         3.0750   53.9134   29.6900 O.3       1 UNK         0.0000 
     17 N17        -1.6964   51.2981   29.0489 N.pl3     1 UNK         0.0000 
     18 S18         3.3249   54.0962   22.8039 S.3       1 UNK         0.0000 
     19 C19         4.7541   54.0199   21.8065 C.2       1 UNK         0.0000 
     20 N20         5.9015   54.0569   22.4141 N.2       1 UNK         0.0000 
     21 N21         4.6230   53.9210   20.4590 N.pl3     1 UNK         0.0000 
     22 H22         7.2456   54.2010   26.7794 H         1 UNK         0.0000 
     23 H23         7.8005   54.1149   24.3671 H         1 UNK         0.0000 
     24 H24         3.0475   54.4688   25.8407 H         1 UNK         0.0000 
     25 H25         5.6431   53.7487   28.5035 H         1 UNK         0.0000 
     26 H26         4.8933   55.2963   28.3520 H         1 UNK         0.0000 
     27 H27         0.2696   51.5236   27.2792 H         1 UNK         0.0000 
     28 H28        -0.9760   52.4628   31.2814 H         1 UNK         0.0000 
     29 H29         1.1047   53.7000   31.7307 H         1 UNK         0.0000 
     30 H30        -1.6839   50.6286   28.2880 H         1 UNK         0.0000 
     31 H31        -2.1069   50.9293   29.8962 H         1 UNK         0.0000 
     32 H32         5.4300   53.8456   19.8580 H         1 UNK         0.0000 
     33 H33         3.7152   53.9146   20.0149 H         1 UNK         0.0000 
@<TRIPOS>BOND
     1    1    6 ar   
     2    1    2 ar   
     3    1   22 1    
     4    2    3 ar   
     5    2   23 1    
     6    3   20 1    
     7    3    4 ar   
     8    4    5 ar   
     9    4   18 1    
    10    5    6 ar   
    11    5   24 1    
    12    6    7 1    
    13    7    8 1    
    14    7   25 1    
    15    7   26 1    
    16    8   16 1    
    17    8    9 2    
    18    9   10 1    
    19   10   15 ar   
    20   10   11 ar   
    21   11   12 ar   
    22   11   27 1    
    23   12   13 ar   
    24   12   17 1    
    25   13   14 ar   
    26   13   28 1    
    27   14   15 ar   
    28   14   29 1    
    29   15   16 1    
    30   17   30 1    
    31   17   31 1    
    32   18   19 1    
    33   19   20 2    
    34   19   21 1    
    35   21   32 1    
    36   21   33 1    
@<TRIPOS>SUBSTRUCTURE
     1 UNK         1 GROUP             0       ****    0 ROOT    
