@<TRIPOS>MOLECULE
ZINC39694883_1248
66   69    1
SMALL
USER_CHARGES


@<TRIPOS>ATOM
      1 C1          3.3530   52.7639   29.0221 C.3       1 UNK         0.0000 
      2 C2          3.7319   53.3834   27.6881 C.ar      1 UNK         0.0000 
      3 C3          5.0383   53.8238   27.4558 C.ar      1 UNK         0.0000 
      4 C4          5.3839   54.3834   26.2230 C.ar      1 UNK         0.0000 
      5 C5          4.4192   54.4947   25.2190 C.ar      1 UNK         0.0000 
      6 C6          3.1115   54.0489   25.4369 C.ar      1 UNK         0.0000 
      7 C7          2.7698   53.5093   26.6820 C.ar      1 UNK         0.0000 
      8 C8          2.0407   54.2611   24.3714 C.3       1 UNK         0.0000 
      9 N9          1.7507   53.1184   23.5107 N.am      1 UNK         0.0000 
     10 C10         2.5771   52.5384   22.6240 C.2       1 UNK         0.0000 
     11 O11         3.7425   52.8981   22.4713 O.2       1 UNK         0.0000 
     12 C12         2.0631   51.3032   21.8302 C.3       1 UNK         0.0000 
     13 H13         2.7576   50.4923   22.0544 H         1 UNK         0.0000 
     14 C14         0.6396   50.8587   22.2351 C.3       1 UNK         0.0000 
     15 N15        -0.2257   51.6015   21.3117 N.am      1 UNK         0.0000 
     16 C16         0.5239   52.1500   20.1738 C.3       1 UNK         0.0000 
     17 C17         1.9481   51.5516   20.2909 C.3       1 UNK         0.0000 
     18 C18         2.0577   50.1780   19.5559 C.3       1 UNK         0.0000 
     19 C19         1.7314   50.2792   18.0501 C.3       1 UNK         0.0000 
     20 N20         2.7043   51.2969   17.4179 N.4       1 UNK         0.0000 
     21 C21         2.7815   52.6639   18.1280 C.3       1 UNK         0.0000 
     22 C22         3.0591   52.4132   19.6196 C.3       1 UNK         0.0000 
     23 C23        -1.5742   51.6960   21.3897 C.2       1 UNK         0.0000 
     24 O24        -2.2655   52.0956   20.4513 O.2       1 UNK         0.0000 
     25 C25        -2.2458   51.3663   22.6980 C.ar      1 UNK         0.0000 
     26 C26        -3.2978   50.4456   22.7414 C.ar      1 UNK         0.0000 
     27 C27        -3.9609   50.1823   23.9420 C.ar      1 UNK         0.0000 
     28 C28        -3.5897   50.8519   25.1153 C.ar      1 UNK         0.0000 
     29 C29        -2.5538   51.7949   25.0706 C.ar      1 UNK         0.0000 
     30 C30        -1.8881   52.0446   23.8704 C.ar      1 UNK         0.0000 
     31 Cl31       -2.0963   52.6863   26.4795 Cl        1 UNK         0.0000 
     32 O32        -4.2717   50.6124   26.2850 O.3       1 UNK         0.0000 
     33 C33        -3.6298   49.6985   27.1675 C.3       1 UNK         0.0000 
     34 Cl34       -5.2493   49.0306   23.9546 Cl        1 UNK         0.0000 
     35 C35         6.8002   54.8585   25.9639 C.3       1 UNK         0.0000 
     36 H36         2.4829   53.2741   29.4381 H         1 UNK         0.0000 
     37 H37         3.0845   51.7157   28.8848 H         1 UNK         0.0000 
     38 H38         4.1638   52.8276   29.7497 H         1 UNK         0.0000 
     39 H39         5.7853   53.7296   28.2312 H         1 UNK         0.0000 
     40 H40         4.6851   54.9284   24.2655 H         1 UNK         0.0000 
     41 H41         1.7580   53.1781   26.8674 H         1 UNK         0.0000 
     42 H42         1.1064   54.4966   24.8789 H         1 UNK         0.0000 
     43 H43         2.2800   55.1345   23.7634 H         1 UNK         0.0000 
     44 H44         0.8243   52.7346   23.5912 H         1 UNK         0.0000 
     45 H45         0.5314   49.7890   22.0444 H         1 UNK         0.0000 
     46 H46         0.4325   50.9868   23.2968 H         1 UNK         0.0000 
     47 H47         0.6252   53.2225   20.3413 H         1 UNK         0.0000 
     48 H48         0.0713   52.0129   19.1937 H         1 UNK         0.0000 
     49 H49         3.0369   49.7196   19.7107 H         1 UNK         0.0000 
     50 H50         1.3430   49.4701   19.9744 H         1 UNK         0.0000 
     51 H51         1.9088   49.3359   17.5288 H         1 UNK         0.0000 
     52 H52         0.7200   50.6092   17.8202 H         1 UNK         0.0000 
     53 H53         3.6232   50.8485   17.4451 H         1 UNK         0.0000 
     54 H54         3.5930   53.2111   17.6454 H         1 UNK         0.0000 
     55 H55         1.8390   53.1812   17.9414 H         1 UNK         0.0000 
     56 H56         3.1022   53.4001   20.0818 H         1 UNK         0.0000 
     57 H57         4.0481   51.9764   19.7708 H         1 UNK         0.0000 
     58 H58        -3.6098   49.9307   21.8429 H         1 UNK         0.0000 
     59 H59        -1.1120   52.7958   23.8547 H         1 UNK         0.0000 
     60 H60        -4.2668   49.5107   28.0320 H         1 UNK         0.0000 
     61 H61        -3.4352   48.7379   26.6879 H         1 UNK         0.0000 
     62 H62        -2.6846   50.0969   27.5367 H         1 UNK         0.0000 
     63 H63         7.4968   54.5017   26.7251 H         1 UNK         0.0000 
     64 H64         6.8282   55.9481   25.9274 H         1 UNK         0.0000 
     65 H65         7.1514   54.4845   25.0002 H         1 UNK         0.0000 
     66 H66         2.5023   51.4086   16.4345 H         1 UNK         0.0000 
@<TRIPOS>BOND
     1    1    2 1    
     2    1   36 1    
     3    1   37 1    
     4    1   38 1    
     5    2    7 ar   
     6    2    3 ar   
     7    3    4 ar   
     8    3   39 1    
     9    4    5 ar   
    10    4   35 1    
    11    5    6 ar   
    12    5   40 1    
    13    6    7 ar   
    14    6    8 1    
    15    7   41 1    
    16    8    9 1    
    17    8   42 1    
    18    8   43 1    
    19    9   10 am   BACKBONE|DICT|INTERRES
    20    9   44 1    
    21   10   11 2    
    22   10   12 1    
    23   12   13 1    
    24   12   17 1    
    25   12   14 1    
    26   14   15 1    
    27   14   45 1    
    28   14   46 1    
    29   15   16 1    
    30   15   23 am   BACKBONE|DICT|INTERRES
    31   16   17 1    
    32   16   47 1    
    33   16   48 1    
    34   17   22 1    
    35   17   18 1    
    36   18   19 1    
    37   18   49 1    
    38   18   50 1    
    39   19   20 1    
    40   19   51 1    
    41   19   52 1    
    42   20   21 1    
    43   20   53 1    
    44   20   66 1    
    45   21   22 1    
    46   21   54 1    
    47   21   55 1    
    48   22   56 1    
    49   22   57 1    
    50   23   24 2    
    51   23   25 1    
    52   25   30 ar   
    53   25   26 ar   
    54   26   27 ar   
    55   26   58 1    
    56   27   28 ar   
    57   27   34 1    
    58   28   29 ar   
    59   28   32 1    
    60   29   30 ar   
    61   29   31 1    
    62   30   59 1    
    63   32   33 1    
    64   33   60 1    
    65   33   61 1    
    66   33   62 1    
    67   35   63 1    
    68   35   64 1    
    69   35   65 1    
@<TRIPOS>SUBSTRUCTURE
     1 UNK         1 GROUP             0       ****    0 ROOT    
