@<TRIPOS>MOLECULE
ZINC20558540_4229
57   61    1
SMALL
USER_CHARGES


@<TRIPOS>ATOM
      1 C1         -8.3133   52.8747   28.3972 C.3       1 UNK         0.0000 
      2 O2         -7.1037   52.5228   27.7425 O.3       1 UNK         0.0000 
      3 C3         -6.4953   53.3790   26.8838 C.2       1 UNK         0.0000 
      4 O4         -6.9358   54.4983   26.6071 O.2       1 UNK         0.0000 
      5 C5         -5.2470   52.8096   26.2772 C.ar      1 UNK         0.0000 
      6 C6         -4.6554   51.6363   26.7727 C.ar      1 UNK         0.0000 
      7 C7         -3.5008   51.1252   26.1883 C.ar      1 UNK         0.0000 
      8 C8         -2.9174   51.7766   25.0989 C.ar      1 UNK         0.0000 
      9 C9         -3.4912   52.9548   24.6125 C.ar      1 UNK         0.0000 
     10 C10        -4.6441   53.4692   25.1980 C.ar      1 UNK         0.0000 
     11 C11        -1.6694   51.1906   24.4331 C.3       1 UNK         0.0000 
     12 H12        -1.5530   50.1774   24.8245 H         1 UNK         0.0000 
     13 C13        -1.8150   51.0367   22.9056 C.2       1 UNK         0.0000 
     14 C14        -0.9987   51.6967   22.0587 C.2       1 UNK         0.0000 
     15 O15         0.0221   52.4787   22.4889 O.3       1 UNK         0.0000 
     16 C16         0.3976   52.5160   23.8073 C.2       1 UNK         0.0000 
     17 C17        -0.3626   51.9451   24.7622 C.2       1 UNK         0.0000 
     18 S18         0.1256   51.8939   26.4861 S.o2      1 UNK         0.0000 
     19 O19        -0.8097   52.6930   27.2834 O.2       1 UNK         0.0000 
     20 O20         0.3018   50.4948   26.8810 O.2       1 UNK         0.0000 
     21 N21         1.7413   52.6903   26.4650 N.pl3     1 UNK         0.0000 
     22 C22         2.3074   53.2968   25.3049 C.ar      1 UNK         0.0000 
     23 C23         1.6881   53.2016   24.0347 C.ar      1 UNK         0.0000 
     24 C24         2.3395   53.7563   22.9174 C.ar      1 UNK         0.0000 
     25 C25         3.5699   54.3876   23.0330 C.ar      1 UNK         0.0000 
     26 C26         4.1731   54.4954   24.2764 C.ar      1 UNK         0.0000 
     27 C27         3.5465   53.9612   25.3952 C.ar      1 UNK         0.0000 
     28 C28         2.4049   52.6620   27.7774 C.3       1 UNK         0.0000 
     29 C29         1.9185   53.7669   28.7114 C.ar      1 UNK         0.0000 
     30 C30         2.3123   55.0935   28.5079 C.ar      1 UNK         0.0000 
     31 C31         1.9041   56.0967   29.3853 C.ar      1 UNK         0.0000 
     32 C32         1.1044   55.7821   30.4801 C.ar      1 UNK         0.0000 
     33 C33         0.6944   54.4641   30.6846 C.ar      1 UNK         0.0000 
     34 C34         1.1024   53.4585   29.8084 C.ar      1 UNK         0.0000 
     35 F35         0.7229   52.1822   30.0450 F         1 UNK         0.0000 
     36 N36        -1.0024   51.6867   20.6905 N.pl3     1 UNK         0.0000 
     37 C37        -2.8705   50.2234   22.3948 C.1       1 UNK         0.0000 
     38 N38        -3.7220   49.5807   21.9480 N.1       1 UNK         0.0000 
     39 H39        -8.6853   52.0229   28.9663 H         1 UNK         0.0000 
     40 H40        -9.0834   53.1640   27.6804 H         1 UNK         0.0000 
     41 H41        -8.1534   53.6993   29.0912 H         1 UNK         0.0000 
     42 H42        -5.0758   51.1034   27.6139 H         1 UNK         0.0000 
     43 H43        -3.0608   50.2217   26.5902 H         1 UNK         0.0000 
     44 H44        -3.0447   53.4715   23.7757 H         1 UNK         0.0000 
     45 H45        -5.0678   54.3766   24.7909 H         1 UNK         0.0000 
     46 H46         1.9099   53.6974   21.9276 H         1 UNK         0.0000 
     47 H47         4.0496   54.7983   22.1560 H         1 UNK         0.0000 
     48 H48         5.1317   54.9838   24.3731 H         1 UNK         0.0000 
     49 H49         4.0802   54.0581   26.3252 H         1 UNK         0.0000 
     50 H50         2.2106   51.6944   28.2433 H         1 UNK         0.0000 
     51 H51         3.4896   52.6992   27.7018 H         1 UNK         0.0000 
     52 H52         2.9402   55.3553   27.6734 H         1 UNK         0.0000 
     53 H53         2.2156   57.1185   29.2251 H         1 UNK         0.0000 
     54 H54         0.8020   56.5616   31.1637 H         1 UNK         0.0000 
     55 H55         0.0718   54.2129   31.5313 H         1 UNK         0.0000 
     56 H56        -1.6728   51.1167   20.1955 H         1 UNK         0.0000 
     57 H57        -0.1578   51.9264   20.1911 H         1 UNK         0.0000 
@<TRIPOS>BOND
     1    1    2 1    
     2    1   39 1    
     3    1   40 1    
     4    1   41 1    
     5    2    3 1    
     6    3    4 2    
     7    3    5 1    
     8    5   10 ar   
     9    5    6 ar   
    10    6    7 ar   
    11    6   42 1    
    12    7    8 ar   
    13    7   43 1    
    14    8    9 ar   
    15    8   11 1    
    16    9   10 ar   
    17    9   44 1    
    18   10   45 1    
    19   11   12 1    
    20   11   17 1    
    21   11   13 1    
    22   13   14 2    
    23   13   37 1    
    24   14   15 1    
    25   14   36 1    
    26   15   16 1    
    27   16   23 1    
    28   16   17 2    
    29   17   18 1    
    30   18   19 2    
    31   18   20 2    
    32   18   21 1    
    33   21   22 1    
    34   21   28 1    
    35   22   27 ar   
    36   22   23 ar   
    37   23   24 ar   
    38   24   25 ar   
    39   24   46 1    
    40   25   26 ar   
    41   25   47 1    
    42   26   27 ar   
    43   26   48 1    
    44   27   49 1    
    45   28   29 1    
    46   28   50 1    
    47   28   51 1    
    48   29   34 ar   
    49   29   30 ar   
    50   30   31 ar   
    51   30   52 1    
    52   31   32 ar   
    53   31   53 1    
    54   32   33 ar   
    55   32   54 1    
    56   33   34 ar   
    57   33   55 1    
    58   34   35 1    
    59   36   56 1    
    60   36   57 1    
    61   37   38 3    
@<TRIPOS>SUBSTRUCTURE
     1 UNK         1 GROUP             0       ****    0 ROOT    
