@<TRIPOS>MOLECULE
ZINC09159357_2839
53   58    1
SMALL
USER_CHARGES


@<TRIPOS>ATOM
      1 C1         -0.2976   51.8563   17.5581 C.ar      1 UNK         0.0000 
      2 C2         -1.2518   50.8501   17.4291 C.ar      1 UNK         0.0000 
      3 C3         -1.9926   50.4541   18.5403 C.ar      1 UNK         0.0000 
      4 C4         -1.7855   51.0642   19.7845 C.ar      1 UNK         0.0000 
      5 C5         -0.8221   52.0692   19.8965 C.ar      1 UNK         0.0000 
      6 C6         -0.0791   52.4695   18.7883 C.ar      1 UNK         0.0000 
      7 C7         -2.5656   50.6046   20.9770 C.ar      1 UNK         0.0000 
      8 C8         -2.2845   50.4829   22.3491 C.ar      1 UNK         0.0000 
      9 C9         -3.4645   49.9276   22.8779 C.ar      1 UNK         0.0000 
     10 N10        -4.4300   49.7825   22.0097 N.2       1 UNK         0.0000 
     11 N11        -3.8724   50.1874   20.8688 N.pl3     1 UNK         0.0000 
     12 H12        -4.3872   50.1714   20.0005 H         1 UNK         0.0000 
     13 O13        -3.6428   49.5095   24.1731 O.3       1 UNK         0.0000 
     14 C14        -2.5025   49.4153   24.9092 C.2       1 UNK         0.0000 
     15 C15        -1.2838   49.9059   24.5661 C.2       1 UNK         0.0000 
     16 C16        -1.0544   50.7006   23.2565 C.3       1 UNK         0.0000 
     17 C17         0.2342   50.4079   22.5467 C.ar      1 UNK         0.0000 
     18 C18         0.6550   49.2966   21.8163 C.ar      1 UNK         0.0000 
     19 C19         1.9055   49.3134   21.1951 C.ar      1 UNK         0.0000 
     20 C20         2.7286   50.4370   21.3073 C.ar      1 UNK         0.0000 
     21 C21         2.3108   51.5421   22.0491 C.ar      1 UNK         0.0000 
     22 C22         1.0568   51.5135   22.6603 C.ar      1 UNK         0.0000 
     23 N23         0.3862   52.5310   23.3329 N.am      1 UNK         0.0000 
     24 C24        -0.8880   52.1853   23.6517 C.2       1 UNK         0.0000 
     25 O25        -1.7540   52.8958   24.1679 O.2       1 UNK         0.0000 
     26 C26         0.9374   53.8482   23.6653 C.3       1 UNK         0.0000 
     27 C27         2.0806   53.8383   24.6735 C.ar      1 UNK         0.0000 
     28 C28         1.8963   53.2963   25.9484 C.ar      1 UNK         0.0000 
     29 C29         2.9218   53.3631   26.8890 C.ar      1 UNK         0.0000 
     30 C30         4.1330   53.9656   26.5514 C.ar      1 UNK         0.0000 
     31 C31         4.3262   54.4968   25.2781 C.ar      1 UNK         0.0000 
     32 C32         3.2990   54.4345   24.3395 C.ar      1 UNK         0.0000 
     33 Cl33        5.4061   54.0498   27.7152 Cl        1 UNK         0.0000 
     34 C34        -0.1942   49.7616   25.4798 C.1       1 UNK         0.0000 
     35 N35         0.7043   49.6961   26.2028 N.1       1 UNK         0.0000 
     36 N36        -2.8402   48.7927   26.0817 N.pl3     1 UNK         0.0000 
     37 H37         0.2838   52.1595   16.6993 H         1 UNK         0.0000 
     38 H38        -1.4081   50.3733   16.4723 H         1 UNK         0.0000 
     39 H39        -2.7152   49.6588   18.4286 H         1 UNK         0.0000 
     40 H40        -0.6448   52.5473   20.8438 H         1 UNK         0.0000 
     41 H41         0.6685   53.2454   18.8838 H         1 UNK         0.0000 
     42 H42         0.0104   48.4380   21.7068 H         1 UNK         0.0000 
     43 H43         2.2365   48.4640   20.6156 H         1 UNK         0.0000 
     44 H44         3.6859   50.4561   20.8071 H         1 UNK         0.0000 
     45 H45         2.9469   52.4125   22.1085 H         1 UNK         0.0000 
     46 H46         1.2819   54.3107   22.7391 H         1 UNK         0.0000 
     47 H47         0.1595   54.4966   24.0652 H         1 UNK         0.0000 
     48 H48         0.9572   52.8324   26.2153 H         1 UNK         0.0000 
     49 H49         2.7781   52.9433   27.8736 H         1 UNK         0.0000 
     50 H50         5.2669   54.9606   25.0203 H         1 UNK         0.0000 
     51 H51         3.4499   54.8639   23.3593 H         1 UNK         0.0000 
     52 H52        -2.1403   48.5826   26.7951 H         1 UNK         0.0000 
     53 H53        -3.7996   48.7864   26.3908 H         1 UNK         0.0000 
@<TRIPOS>BOND
     1    1    6 ar   
     2    1    2 ar   
     3    1   37 1    
     4    2    3 ar   
     5    2   38 1    
     6    3    4 ar   
     7    3   39 1    
     8    4    5 ar   
     9    4    7 1    
    10    5    6 ar   
    11    5   40 1    
    12    6   41 1    
    13    7   11 ar   
    14    7    8 ar   
    15    8   16 1    
    16    8    9 ar   
    17    9   10 ar   
    18    9   13 1    
    19   10   11 ar   
    20   11   12 1    
    21   13   14 1    
    22   14   15 2    
    23   14   36 1    
    24   15   16 1    
    25   15   34 1    
    26   16   24 1    
    27   16   17 1    
    28   17   22 ar   
    29   17   18 ar   
    30   18   19 ar   
    31   18   42 1    
    32   19   20 ar   
    33   19   43 1    
    34   20   21 ar   
    35   20   44 1    
    36   21   22 ar   
    37   21   45 1    
    38   22   23 1    
    39   23   24 am   BACKBONE|DICT|INTERRES
    40   23   26 1    
    41   24   25 2    
    42   26   27 1    
    43   26   46 1    
    44   26   47 1    
    45   27   32 ar   
    46   27   28 ar   
    47   28   29 ar   
    48   28   48 1    
    49   29   30 ar   
    50   29   49 1    
    51   30   31 ar   
    52   30   33 1    
    53   31   32 ar   
    54   31   50 1    
    55   32   51 1    
    56   34   35 3    
    57   36   52 1    
    58   36   53 1    
@<TRIPOS>SUBSTRUCTURE
     1 UNK         1 GROUP             0       ****    0 ROOT    
