@<TRIPOS>MOLECULE
ZINC18096094_1975
60   64    1
SMALL
USER_CHARGES


@<TRIPOS>ATOM
      1 C1          4.6960   57.0321   16.7643 C.3       1 UNK         0.0000 
      2 C2          5.1291   55.7731   17.4897 C.ar      1 UNK         0.0000 
      3 C3          6.3548   55.1686   17.1958 C.ar      1 UNK         0.0000 
      4 C4          6.7229   54.0266   17.9063 C.ar      1 UNK         0.0000 
      5 N5          5.9495   53.4848   18.8810 N.ar      1 UNK         0.0000 
      6 C6          4.7579   54.0775   19.1676 C.ar      1 UNK         0.0000 
      7 C7          4.3160   55.2164   18.4814 C.ar      1 UNK         0.0000 
      8 N8          3.9041   53.5920   20.1698 N.am      1 UNK         0.0000 
      9 C9          4.0612   52.5365   20.9989 C.2       1 UNK         0.0000 
     10 O10         5.0157   51.7615   21.0146 O.2       1 UNK         0.0000 
     11 C11         2.9370   52.3798   21.8972 C.2       1 UNK         0.0000 
     12 C12         2.6547   53.2890   22.8650 C.2       1 UNK         0.0000 
     13 N13         1.5661   53.2264   23.6760 N.2       1 UNK         0.0000 
     14 C14         0.7493   52.2446   23.6560 C.2       1 UNK         0.0000 
     15 C15        -0.4287   52.2775   24.6392 C.3       1 UNK         0.0000 
     16 C16        -1.5821   51.3293   24.2088 C.3       1 UNK         0.0000 
     17 H17        -2.0215   51.6927   23.2757 H         1 UNK         0.0000 
     18 C18        -1.0256   49.9059   23.9381 C.3       1 UNK         0.0000 
     19 C19         0.0658   50.0405   22.8788 C.2       1 UNK         0.0000 
     20 C20         0.9006   51.1032   22.7509 C.2       1 UNK         0.0000 
     21 C21         2.0099   51.1731   21.6581 C.3       1 UNK         0.0000 
     22 H22         2.6158   50.2707   21.7620 H         1 UNK         0.0000 
     23 C23         1.4242   51.2114   20.2499 C.ar      1 UNK         0.0000 
     24 C24         0.2831   51.8838   19.7807 C.ar      1 UNK         0.0000 
     25 N25         0.0698   51.7381   18.4920 N.2       1 UNK         0.0000 
     26 N26         1.0665   50.9456   18.0844 N.pl3     1 UNK         0.0000 
     27 C27         1.9144   50.6045   19.1022 C.ar      1 UNK         0.0000 
     28 C28         1.1759   50.5913   16.6834 C.3       1 UNK         0.0000 
     29 O29         0.1115   48.9963   22.1265 O.co2     1 UNK         0.0000 
     30 C30        -2.7060   51.3567   25.2501 C.ar      1 UNK         0.0000 
     31 C31        -2.5810   50.6733   26.4651 C.ar      1 UNK         0.0000 
     32 C32        -3.6156   50.7002   27.3960 C.ar      1 UNK         0.0000 
     33 C33        -4.7775   51.4121   27.1125 C.ar      1 UNK         0.0000 
     34 C34        -4.9142   52.1001   25.9104 C.ar      1 UNK         0.0000 
     35 C35        -3.8796   52.0699   24.9794 C.ar      1 UNK         0.0000 
     36 C36         3.5115   54.4943   23.2202 C.3       1 UNK         0.0000 
     37 H37         5.5608   57.6390   16.4920 H         1 UNK         0.0000 
     38 H38         4.0686   57.6555   17.4036 H         1 UNK         0.0000 
     39 H39         4.1415   56.7867   15.8584 H         1 UNK         0.0000 
     40 H40         7.0047   55.5747   16.4338 H         1 UNK         0.0000 
     41 H41         7.6588   53.5281   17.7023 H         1 UNK         0.0000 
     42 H42         3.3662   55.6695   18.7183 H         1 UNK         0.0000 
     43 H43         3.0277   54.0876   20.2568 H         1 UNK         0.0000 
     44 H44        -0.0581   52.0218   25.6330 H         1 UNK         0.0000 
     45 H45        -0.8142   53.2962   24.6978 H         1 UNK         0.0000 
     46 H46        -0.5504   49.5038   24.8359 H         1 UNK         0.0000 
     47 H47        -1.8379   49.2347   23.6501 H         1 UNK         0.0000 
     48 H48        -0.3661   52.4916   20.3909 H         1 UNK         0.0000 
     49 H49         2.7906   49.9956   18.9175 H         1 UNK         0.0000 
     50 H50         1.9038   49.7865   16.5624 H         1 UNK         0.0000 
     51 H51         0.2095   50.2518   16.3106 H         1 UNK         0.0000 
     52 H52         1.5086   51.4642   16.1188 H         1 UNK         0.0000 
     53 H53        -1.6877   50.1141   26.7016 H         1 UNK         0.0000 
     54 H54        -3.5072   50.1626   28.3282 H         1 UNK         0.0000 
     55 H55        -5.5795   51.4263   27.8331 H         1 UNK         0.0000 
     56 H56        -5.8189   52.6497   25.6996 H         1 UNK         0.0000 
     57 H57        -3.9941   52.6036   24.0486 H         1 UNK         0.0000 
     58 H58         3.2362   55.2962   22.5456 H         1 UNK         0.0000 
     59 H59         3.3736   54.8344   24.2491 H         1 UNK         0.0000 
     60 H60         4.5718   54.2883   23.0840 H         1 UNK         0.0000 
@<TRIPOS>BOND
     1    1    2 1    
     2    1   37 1    
     3    1   38 1    
     4    1   39 1    
     5    2    7 ar   
     6    2    3 ar   
     7    3    4 ar   
     8    3   40 1    
     9    4    5 ar   
    10    4   41 1    
    11    5    6 ar   
    12    6    7 ar   
    13    6    8 1    
    14    7   42 1    
    15    8    9 am   BACKBONE|DICT|INTERRES
    16    8   43 1    
    17    9   10 2    
    18    9   11 1    
    19   11   21 1    
    20   11   12 2    
    21   12   13 1    
    22   12   36 1    
    23   13   14 2    
    24   14   20 1    
    25   14   15 1    
    26   15   16 1    
    27   15   44 1    
    28   15   45 1    
    29   16   17 1    
    30   16   18 1    
    31   16   30 1    
    32   18   19 1    
    33   18   46 1    
    34   18   47 1    
    35   19   20 2    
    36   19   29 1    
    37   20   21 1    
    38   21   22 1    
    39   21   23 1    
    40   23   27 ar   
    41   23   24 ar   
    42   24   25 ar   
    43   24   48 1    
    44   25   26 ar   
    45   26   27 ar   
    46   26   28 1    
    47   27   49 1    
    48   28   50 1    
    49   28   51 1    
    50   28   52 1    
    51   30   35 ar   
    52   30   31 ar   
    53   31   32 ar   
    54   31   53 1    
    55   32   33 ar   
    56   32   54 1    
    57   33   34 ar   
    58   33   55 1    
    59   34   35 ar   
    60   34   56 1    
    61   35   57 1    
    62   36   58 1    
    63   36   59 1    
    64   36   60 1    
@<TRIPOS>SUBSTRUCTURE
     1 UNK         1 GROUP             0       ****    0 ROOT    
