@<TRIPOS>MOLECULE
ZINC46816578_747
69   72    1
SMALL
USER_CHARGES


@<TRIPOS>ATOM
      1 C1          3.0173   58.8976   16.3535 C.3       1 UNK         0.0000 
      2 C2          3.6073   57.5155   16.4865 C.2       1 UNK         0.0000 
      3 C3          2.9704   56.2760   16.4235 C.2       1 UNK         0.0000 
      4 C4          3.8352   55.1804   16.5168 C.2       1 UNK         0.0000 
      5 C5          5.1542   55.5677   16.6758 C.2       1 UNK         0.0000 
      6 S6          5.3148   57.2912   16.7499 S.3       1 UNK         0.0000 
      7 S7          6.5774   54.4558   16.7235 S.o2      1 UNK         0.0000 
      8 O8          6.2088   53.2709   15.9418 O.2       1 UNK         0.0000 
      9 O9          7.7572   55.2618   16.3871 O.2       1 UNK         0.0000 
     10 N10         6.6411   54.0317   18.4422 N.pl3     1 UNK         0.0000 
     11 C11         7.2112   55.0050   19.4097 C.3       1 UNK         0.0000 
     12 C12         6.1324   55.6273   20.3225 C.3       1 UNK         0.0000 
     13 C13         5.2451   54.5495   20.9789 C.3       1 UNK         0.0000 
     14 C14         4.6205   53.6527   19.8807 C.3       1 UNK         0.0000 
     15 H15         3.9118   54.2215   19.2756 H         1 UNK         0.0000 
     16 C16         5.7039   53.0083   18.9813 C.3       1 UNK         0.0000 
     17 C17         3.8393   52.5180   20.5715 C.2       1 UNK         0.0000 
     18 O18         4.4229   51.6971   21.2815 O.2       1 UNK         0.0000 
     19 N19         2.5099   52.4958   20.3752 N.am      1 UNK         0.0000 
     20 C20         1.5940   51.5223   20.9711 C.3       1 UNK         0.0000 
     21 C21         1.2700   51.7406   22.4513 C.ar      1 UNK         0.0000 
     22 C22         0.9883   50.6364   23.2607 C.ar      1 UNK         0.0000 
     23 C23         0.7040   50.8101   24.6113 C.ar      1 UNK         0.0000 
     24 C24         0.7202   52.0899   25.1699 C.ar      1 UNK         0.0000 
     25 C25         0.9980   53.1977   24.3637 C.ar      1 UNK         0.0000 
     26 C26         1.2781   53.0210   23.0136 C.ar      1 UNK         0.0000 
     27 C27         0.4147   52.2643   26.6508 C.3       1 UNK         0.0000 
     28 N28         1.6585   52.1584   27.5649 N.4       1 UNK         0.0000 
     29 C29         1.2290   51.9853   29.0409 C.3       1 UNK         0.0000 
     30 C30         2.4928   51.8404   29.9059 C.3       1 UNK         0.0000 
     31 C31         3.4171   53.0558   29.7480 C.3       1 UNK         0.0000 
     32 C32         3.8540   53.2019   28.2796 C.3       1 UNK         0.0000 
     33 H33         4.3614   52.2830   27.9886 H         1 UNK         0.0000 
     34 C34         2.6150   53.3668   27.3663 C.3       1 UNK         0.0000 
     35 C35         4.8522   54.3573   28.1028 C.3       1 UNK         0.0000 
     36 H36         3.1049   59.4677   17.2786 H         1 UNK         0.0000 
     37 H37         1.9599   58.8720   16.0853 H         1 UNK         0.0000 
     38 H38         3.5232   59.4771   15.5810 H         1 UNK         0.0000 
     39 H39         1.9055   56.1725   16.2845 H         1 UNK         0.0000 
     40 H40         3.5156   54.1501   16.4490 H         1 UNK         0.0000 
     41 H41         7.9959   54.5004   19.9760 H         1 UNK         0.0000 
     42 H42         7.7153   55.7982   18.8533 H         1 UNK         0.0000 
     43 H43         6.6066   56.2407   21.0873 H         1 UNK         0.0000 
     44 H44         5.5099   56.3069   19.7348 H         1 UNK         0.0000 
     45 H45         5.9077   53.9801   21.6349 H         1 UNK         0.0000 
     46 H46         4.4793   55.0678   21.5588 H         1 UNK         0.0000 
     47 H47         5.2385   52.5030   18.1317 H         1 UNK         0.0000 
     48 H48         6.3040   52.2658   19.5026 H         1 UNK         0.0000 
     49 H49         2.0901   53.2666   19.8716 H         1 UNK         0.0000 
     50 H50         0.6548   51.5515   20.4200 H         1 UNK         0.0000 
     51 H51         2.0062   50.5200   20.8310 H         1 UNK         0.0000 
     52 H52         0.9892   49.6369   22.8471 H         1 UNK         0.0000 
     53 H53         0.4870   49.9456   25.2240 H         1 UNK         0.0000 
     54 H54         1.0146   54.1946   24.7794 H         1 UNK         0.0000 
     55 H55         1.5030   53.8847   22.4006 H         1 UNK         0.0000 
     56 H56        -0.0367   53.2278   26.8833 H         1 UNK         0.0000 
     57 H57        -0.2705   51.4837   26.9861 H         1 UNK         0.0000 
     58 H58         0.6176   52.8468   29.3178 H         1 UNK         0.0000 
     59 H59         0.6282   51.0729   29.0936 H         1 UNK         0.0000 
     60 H60         2.2130   51.6979   30.9509 H         1 UNK         0.0000 
     61 H61         3.0403   50.9517   29.5954 H         1 UNK         0.0000 
     62 H62         2.9264   53.9703   30.0820 H         1 UNK         0.0000 
     63 H63         4.2959   52.9472   30.3858 H         1 UNK         0.0000 
     64 H64         2.9290   53.3573   26.3198 H         1 UNK         0.0000 
     65 H65         2.0528   54.2806   27.5709 H         1 UNK         0.0000 
     66 H66         4.4081   55.2965   28.4262 H         1 UNK         0.0000 
     67 H67         5.7576   54.1993   28.6936 H         1 UNK         0.0000 
     68 H68         5.1584   54.4681   27.0590 H         1 UNK         0.0000 
     69 H69         2.1665   51.3251   27.2942 H         1 UNK         0.0000 
@<TRIPOS>BOND
     1    1    2 1    
     2    1   36 1    
     3    1   37 1    
     4    1   38 1    
     5    2    6 1    
     6    2    3 2    
     7    3    4 1    
     8    3   39 1    
     9    4    5 2    
    10    4   40 1    
    11    5    6 1    
    12    5    7 1    
    13    7    8 2    
    14    7    9 2    
    15    7   10 1    
    16   10   16 1    
    17   10   11 1    
    18   11   12 1    
    19   11   41 1    
    20   11   42 1    
    21   12   13 1    
    22   12   43 1    
    23   12   44 1    
    24   13   14 1    
    25   13   45 1    
    26   13   46 1    
    27   14   15 1    
    28   14   16 1    
    29   14   17 1    
    30   16   47 1    
    31   16   48 1    
    32   17   18 2    
    33   17   19 am   BACKBONE|DICT|INTERRES
    34   19   20 1    
    35   19   49 1    
    36   20   21 1    
    37   20   50 1    
    38   20   51 1    
    39   21   26 ar   
    40   21   22 ar   
    41   22   23 ar   
    42   22   52 1    
    43   23   24 ar   
    44   23   53 1    
    45   24   25 ar   
    46   24   27 1    
    47   25   26 ar   
    48   25   54 1    
    49   26   55 1    
    50   27   28 1    
    51   27   56 1    
    52   27   57 1    
    53   28   34 1    
    54   28   29 1    
    55   28   69 1    
    56   29   30 1    
    57   29   58 1    
    58   29   59 1    
    59   30   31 1    
    60   30   60 1    
    61   30   61 1    
    62   31   32 1    
    63   31   62 1    
    64   31   63 1    
    65   32   33 1    
    66   32   34 1    
    67   32   35 1    
    68   34   64 1    
    69   34   65 1    
    70   35   66 1    
    71   35   67 1    
    72   35   68 1    
@<TRIPOS>SUBSTRUCTURE
     1 UNK         1 GROUP             0       ****    0 ROOT    
