@<TRIPOS>MOLECULE
ZINC59434842_3191
63   66    1
SMALL
USER_CHARGES


@<TRIPOS>ATOM
      1 C1          4.1270   54.2334   29.6231 C.3       1 UNK         0.0000 
      2 O2          2.8910   53.6970   30.0819 O.3       1 UNK         0.0000 
      3 C3          2.0284   53.1386   29.1601 C.ar      1 UNK         0.0000 
      4 C4          0.8607   52.5677   29.6572 C.ar      1 UNK         0.0000 
      5 C5         -0.0514   51.9581   28.8001 C.ar      1 UNK         0.0000 
      6 C6          0.1826   51.9116   27.4160 C.ar      1 UNK         0.0000 
      7 C7          1.3553   52.4973   26.9211 C.ar      1 UNK         0.0000 
      8 C8          2.2680   53.1026   27.7792 C.ar      1 UNK         0.0000 
      9 C9         -0.8019   51.1943   26.4623 C.3       1 UNK         0.0000 
     10 H10        -0.3569   50.2046   26.3309 H         1 UNK         0.0000 
     11 C11        -0.8947   51.8299   25.0373 C.3       1 UNK         0.0000 
     12 C12        -1.6920   51.0314   23.9989 C.2       1 UNK         0.0000 
     13 O13        -1.8266   49.8111   24.0828 O.2       1 UNK         0.0000 
     14 C14        -2.3490   51.8311   22.8722 C.3       1 UNK         0.0000 
     15 C15        -2.0931   51.2946   21.4591 C.2       1 UNK         0.0000 
     16 O16        -2.7908   50.4153   20.9603 O.2       1 UNK         0.0000 
     17 N17        -1.1099   51.9556   20.7564 N.am      1 UNK         0.0000 
     18 C18         0.0859   51.4995   20.7637 C.2       1 UNK         0.0000 
     19 N19         1.1484   52.0967   20.1189 N.pl3     1 UNK         0.0000 
     20 C20         2.4958   51.7016   20.4892 C.3       1 UNK         0.0000 
     21 H21         3.1351   51.7891   19.6065 H         1 UNK         0.0000 
     22 C22         2.4032   50.2266   20.8660 C.3       1 UNK         0.0000 
     23 S23         0.7503   49.9941   21.5552 S.3       1 UNK         0.0000 
     24 C24         3.1507   52.5542   21.5866 C.ar      1 UNK         0.0000 
     25 C25         4.5340   52.7619   21.5337 C.ar      1 UNK         0.0000 
     26 C26         5.1645   53.5369   22.5052 C.ar      1 UNK         0.0000 
     27 C27         4.4143   54.0969   23.5368 C.ar      1 UNK         0.0000 
     28 C28         3.0384   53.9008   23.5995 C.ar      1 UNK         0.0000 
     29 C29         2.4073   53.1298   22.6269 C.ar      1 UNK         0.0000 
     30 N30        -2.1093   50.8961   27.0783 N.am      1 UNK         0.0000 
     31 C31        -3.2005   51.6851   27.1395 C.2       1 UNK         0.0000 
     32 O32        -3.3274   52.7196   26.4805 O.2       1 UNK         0.0000 
     33 C33        -4.2896   51.2516   28.0942 C.ar      1 UNK         0.0000 
     34 C34        -5.6139   51.6669   27.8773 C.ar      1 UNK         0.0000 
     35 C35        -6.6154   51.3311   28.7844 C.ar      1 UNK         0.0000 
     36 C36        -6.3008   50.5775   29.9152 C.ar      1 UNK         0.0000 
     37 C37        -4.9944   50.1529   30.1414 C.ar      1 UNK         0.0000 
     38 C38        -3.9931   50.4878   29.2343 C.ar      1 UNK         0.0000 
     39 H39         4.7063   54.5593   30.4809 H         1 UNK         0.0000 
     40 H40         4.7236   53.4877   29.0938 H         1 UNK         0.0000 
     41 H41         3.9703   55.1007   28.9800 H         1 UNK         0.0000 
     42 H42         0.6635   52.5848   30.7185 H         1 UNK         0.0000 
     43 H43        -0.9265   51.5001   29.2363 H         1 UNK         0.0000 
     44 H44         1.6011   52.4667   25.8705 H         1 UNK         0.0000 
     45 H45         3.1635   53.5240   27.3486 H         1 UNK         0.0000 
     46 H46        -1.3199   52.8287   25.1125 H         1 UNK         0.0000 
     47 H47         0.0944   51.9539   24.6074 H         1 UNK         0.0000 
     48 H48        -3.4194   51.8060   23.0712 H         1 UNK         0.0000 
     49 H49        -2.0733   52.8831   22.9307 H         1 UNK         0.0000 
     50 H50         1.0966   53.0861   19.8982 H         1 UNK         0.0000 
     51 H51         3.1504   49.9240   21.5966 H         1 UNK         0.0000 
     52 H52         2.5001   49.5792   19.9907 H         1 UNK         0.0000 
     53 H53         5.1206   52.3273   20.7370 H         1 UNK         0.0000 
     54 H54         6.2316   53.6994   22.4684 H         1 UNK         0.0000 
     55 H55         4.9041   54.6927   24.2926 H         1 UNK         0.0000 
     56 H56         2.4610   54.3454   24.3980 H         1 UNK         0.0000 
     57 H57         1.3381   52.9885   22.6935 H         1 UNK         0.0000 
     58 H58        -2.1297   50.0208   27.6012 H         1 UNK         0.0000 
     59 H59        -5.8685   52.2572   27.0082 H         1 UNK         0.0000 
     60 H60        -7.6312   51.6540   28.6118 H         1 UNK         0.0000 
     61 H61        -7.0779   50.3158   30.6173 H         1 UNK         0.0000 
     62 H62        -4.7491   49.5652   31.0162 H         1 UNK         0.0000 
     63 H63        -2.9878   50.1463   29.4418 H         1 UNK         0.0000 
@<TRIPOS>BOND
     1    1    2 1    
     2    1   39 1    
     3    1   40 1    
     4    1   41 1    
     5    2    3 1    
     6    3    8 ar   
     7    3    4 ar   
     8    4    5 ar   
     9    4   42 1    
    10    5    6 ar   
    11    5   43 1    
    12    6    7 ar   
    13    6    9 1    
    14    7    8 ar   
    15    7   44 1    
    16    8   45 1    
    17    9   10 1    
    18    9   11 1    
    19    9   30 1    
    20   11   12 1    
    21   11   46 1    
    22   11   47 1    
    23   12   13 2    
    24   12   14 1    
    25   14   15 1    
    26   14   48 1    
    27   14   49 1    
    28   15   17 am   BACKBONE|DICT|INTERRES
    29   15   16 2    
    30   17   18 2    BACKBONE|DICT|INTERRES
    31   18   19 1    
    32   18   23 1    
    33   19   20 1    
    34   19   50 1    
    35   20   21 1    
    36   20   22 1    
    37   20   24 1    
    38   22   23 1    
    39   22   51 1    
    40   22   52 1    
    41   24   29 ar   
    42   24   25 ar   
    43   25   26 ar   
    44   25   53 1    
    45   26   27 ar   
    46   26   54 1    
    47   27   28 ar   
    48   27   55 1    
    49   28   29 ar   
    50   28   56 1    
    51   29   57 1    
    52   30   31 am   BACKBONE|DICT|INTERRES
    53   30   58 1    
    54   31   32 2    
    55   31   33 1    
    56   33   38 ar   
    57   33   34 ar   
    58   34   35 ar   
    59   34   59 1    
    60   35   36 ar   
    61   35   60 1    
    62   36   37 ar   
    63   36   61 1    
    64   37   38 ar   
    65   37   62 1    
    66   38   63 1    
@<TRIPOS>SUBSTRUCTURE
     1 UNK         1 GROUP             0       ****    0 ROOT    
