@<TRIPOS>MOLECULE
ZINC13566989_4658
60   64    1
SMALL
USER_CHARGES


@<TRIPOS>ATOM
      1 C1          1.3102   49.6927   23.5196 C.3       1 UNK         0.0000 
      2 C2          0.2121   50.7640   23.3474 C.3       1 UNK         0.0000 
      3 H3         -0.7283   50.2130   23.3403 H         1 UNK         0.0000 
      4 C4          0.1017   51.7208   24.5522 C.2       1 UNK         0.0000 
      5 O5          1.1061   52.0968   25.1573 O.2       1 UNK         0.0000 
      6 C6         -1.2699   51.9058   25.0886 C.ar      1 UNK         0.0000 
      7 C7         -1.5568   51.5294   26.4028 C.ar      1 UNK         0.0000 
      8 C8         -2.8425   51.6958   26.9055 C.ar      1 UNK         0.0000 
      9 C9         -3.8396   52.2993   26.1274 C.ar      1 UNK         0.0000 
     10 C10        -3.5335   52.6995   24.8170 C.ar      1 UNK         0.0000 
     11 C11        -2.2587   52.4974   24.2983 C.ar      1 UNK         0.0000 
     12 N12        -5.1383   52.4630   26.6702 N.am      1 UNK         0.0000 
     13 C13        -5.6792   51.5980   27.7284 C.3       1 UNK         0.0000 
     14 C14        -7.1410   51.9649   27.8412 C.3       1 UNK         0.0000 
     15 C15        -7.1874   53.3765   27.3133 C.3       1 UNK         0.0000 
     16 C16        -5.9486   53.5359   26.4355 C.2       1 UNK         0.0000 
     17 O17        -5.7561   54.4959   25.6902 O.2       1 UNK         0.0000 
     18 S18         0.2556   51.7288   21.7918 S.3       1 UNK         0.0000 
     19 C19         1.9979   52.1292   21.6073 C.2       1 UNK         0.0000 
     20 N20         2.5007   53.0119   22.4062 N.2       1 UNK         0.0000 
     21 C21         3.8273   53.3490   22.2444 C.2       1 UNK         0.0000 
     22 C22         4.5198   53.8408   23.3182 C.2       1 UNK         0.0000 
     23 C23         5.9786   53.9993   23.3346 C.2       1 UNK         0.0000 
     24 C24         6.6694   54.4511   24.4026 C.2       1 UNK         0.0000 
     25 C25         6.0392   54.8438   25.6659 C.2       1 UNK         0.0000 
     26 O26         6.6868   55.2965   26.6067 O.2       1 UNK         0.0000 
     27 C27         4.5798   54.6330   25.6778 C.2       1 UNK         0.0000 
     28 C28         3.8904   54.1713   24.6067 C.2       1 UNK         0.0000 
     29 C29         4.4244   53.0450   20.9058 C.2       1 UNK         0.0000 
     30 C30         5.2287   53.8596   20.1623 C.2       1 UNK         0.0000 
     31 C31         5.5890   55.2250   20.5467 C.2       1 UNK         0.0000 
     32 C32         6.4248   56.0086   19.8294 C.2       1 UNK         0.0000 
     33 C33         7.0668   55.5661   18.5810 C.2       1 UNK         0.0000 
     34 O34         7.8788   56.2509   17.9635 O.2       1 UNK         0.0000 
     35 C35         6.6260   54.2293   18.1436 C.2       1 UNK         0.0000 
     36 C36         5.7820   53.4559   18.8651 C.2       1 UNK         0.0000 
     37 N37         3.9254   51.8365   20.4087 N.pl3     1 UNK         0.0000 
     38 N38         2.5544   51.4924   20.6396 N.2       1 UNK         0.0000 
     39 H39         1.1048   49.0573   24.3830 H         1 UNK         0.0000 
     40 H40         1.3627   49.0429   22.6461 H         1 UNK         0.0000 
     41 H41         2.3006   50.1295   23.6601 H         1 UNK         0.0000 
     42 H42        -0.8029   51.0717   27.0297 H         1 UNK         0.0000 
     43 H43        -3.0397   51.3683   27.9158 H         1 UNK         0.0000 
     44 H44        -4.2835   53.1475   24.1822 H         1 UNK         0.0000 
     45 H45        -2.0486   52.8136   23.2865 H         1 UNK         0.0000 
     46 H46        -5.5411   50.5440   27.4808 H         1 UNK         0.0000 
     47 H47        -5.1519   51.7831   28.6653 H         1 UNK         0.0000 
     48 H48        -7.5263   51.8604   28.8564 H         1 UNK         0.0000 
     49 H49        -7.7344   51.3103   27.1993 H         1 UNK         0.0000 
     50 H50        -7.1071   54.0961   28.1277 H         1 UNK         0.0000 
     51 H51        -8.1048   53.5892   26.7637 H         1 UNK         0.0000 
     52 H52         6.5635   53.6956   22.4818 H         1 UNK         0.0000 
     53 H53         7.7419   54.4928   24.3322 H         1 UNK         0.0000 
     54 H54         4.0299   54.8501   26.5812 H         1 UNK         0.0000 
     55 H55         2.8218   54.0500   24.7167 H         1 UNK         0.0000 
     56 H56         5.1330   55.6633   21.4191 H         1 UNK         0.0000 
     57 H57         6.6035   57.0131   20.1773 H         1 UNK         0.0000 
     58 H58         6.9845   53.8455   17.2001 H         1 UNK         0.0000 
     59 H59         5.5152   52.4967   18.4466 H         1 UNK         0.0000 
     60 H60         4.1658   51.4775   19.4899 H         1 UNK         0.0000 
@<TRIPOS>BOND
     1    1    2 1    
     2    1   39 1    
     3    1   40 1    
     4    1   41 1    
     5    2    3 1    
     6    2    4 1    
     7    2   18 1    
     8    4    5 2    
     9    4    6 1    
    10    6   11 ar   
    11    6    7 ar   
    12    7    8 ar   
    13    7   42 1    
    14    8    9 ar   
    15    8   43 1    
    16    9   10 ar   
    17    9   12 1    
    18   10   11 ar   
    19   10   44 1    
    20   11   45 1    
    21   12   16 am   BACKBONE|DICT|INTERRES
    22   12   13 1    
    23   13   14 1    
    24   13   46 1    
    25   13   47 1    
    26   14   15 1    
    27   14   48 1    
    28   14   49 1    
    29   15   16 1    
    30   15   50 1    
    31   15   51 1    
    32   16   17 2    
    33   18   19 1    
    34   19   38 1    
    35   19   20 2    
    36   20   21 1    
    37   21   22 2    
    38   21   29 1    
    39   22   28 1    
    40   22   23 1    
    41   23   24 2    
    42   23   52 1    
    43   24   25 1    
    44   24   53 1    
    45   25   26 2    
    46   25   27 1    
    47   27   28 2    
    48   27   54 1    
    49   28   55 1    
    50   29   30 2    
    51   29   37 1    
    52   30   36 1    
    53   30   31 1    
    54   31   32 2    
    55   31   56 1    
    56   32   33 1    
    57   32   57 1    
    58   33   34 2    
    59   33   35 1    
    60   35   36 2    
    61   35   58 1    
    62   36   59 1    
    63   37   38 1    
    64   37   60 1    
@<TRIPOS>SUBSTRUCTURE
     1 UNK         1 GROUP             0       ****    0 ROOT    
