@<TRIPOS>MOLECULE
ZINC46901025_4347
57   61    1
SMALL
USER_CHARGES


@<TRIPOS>ATOM
      1 C1          6.5855   54.0971   27.7625 C.3       1 UNK         0.0000 
      2 C2          5.2561   53.9977   27.0482 C.ar      1 UNK         0.0000 
      3 C3          4.9473   54.2203   25.6951 C.ar      1 UNK         0.0000 
      4 C4          3.5743   53.9730   25.5762 C.ar      1 UNK         0.0000 
      5 N5          3.1765   53.5650   26.8416 N.pl3     1 UNK         0.0000 
      6 N6          4.1974   53.6069   27.7152 N.2       1 UNK         0.0000 
      7 C7          1.9109   53.0963   27.2979 C.ar      1 UNK         0.0000 
      8 C8          1.4860   53.3609   28.6119 C.ar      1 UNK         0.0000 
      9 C9          0.2863   52.8333   29.0828 C.ar      1 UNK         0.0000 
     10 C10        -0.4953   52.0401   28.2438 C.ar      1 UNK         0.0000 
     11 C11        -0.0927   51.7799   26.9385 C.ar      1 UNK         0.0000 
     12 C12         1.1044   52.3102   26.4641 C.ar      1 UNK         0.0000 
     13 Br13       -2.1280   51.2967   28.8803 Br        1 UNK         0.0000 
     14 C14         2.6374   54.0988   24.3843 C.3       1 UNK         0.0000 
     15 C15         5.8405   54.7339   24.6844 C.2       1 UNK         0.0000 
     16 O16         6.7044   55.5707   24.9654 O.2       1 UNK         0.0000 
     17 N17         5.6792   54.1549   23.4771 N.am      1 UNK         0.0000 
     18 N18         6.3058   54.7328   22.3759 N.am      1 UNK         0.0000 
     19 C19         5.6021   54.7981   21.2181 C.2       1 UNK         0.0000 
     20 O20         4.4052   54.4968   21.1503 O.2       1 UNK         0.0000 
     21 C21         6.3487   55.2392   19.9140 C.3       1 UNK         0.0000 
     22 C22         6.2906   54.0659   18.8815 C.3       1 UNK         0.0000 
     23 C23         7.0284   54.4638   17.5754 C.3       1 UNK         0.0000 
     24 C24         8.5001   54.8428   17.8936 C.3       1 UNK         0.0000 
     25 C25         8.5372   56.0510   18.8644 C.3       1 UNK         0.0000 
     26 C26         7.8341   55.6608   20.1852 C.3       1 UNK         0.0000 
     27 C27         7.7988   57.2582   18.2294 C.3       1 UNK         0.0000 
     28 C28         6.3264   56.8726   17.9386 C.3       1 UNK         0.0000 
     29 C29         6.3061   55.6826   16.9442 C.3       1 UNK         0.0000 
     30 C30         5.6235   56.4547   19.2611 C.3       1 UNK         0.0000 
     31 H31         7.0246   55.0876   27.6459 H         1 UNK         0.0000 
     32 H32         6.5092   53.9131   28.8339 H         1 UNK         0.0000 
     33 H33         7.3016   53.3771   27.3669 H         1 UNK         0.0000 
     34 H34         2.0881   53.9638   29.2763 H         1 UNK         0.0000 
     35 H35        -0.0346   53.0214   30.0971 H         1 UNK         0.0000 
     36 H36        -0.6981   51.1512   26.3029 H         1 UNK         0.0000 
     37 H37         1.4093   52.0607   25.4608 H         1 UNK         0.0000 
     38 H38         2.9813   54.8562   23.6790 H         1 UNK         0.0000 
     39 H39         2.5603   53.1639   23.8291 H         1 UNK         0.0000 
     40 H40         1.6301   54.4002   24.6703 H         1 UNK         0.0000 
     41 H41         4.8507   53.6407   23.2182 H         1 UNK         0.0000 
     42 H42         7.3042   54.5942   22.3772 H         1 UNK         0.0000 
     43 H43         6.7045   53.1452   19.2815 H         1 UNK         0.0000 
     44 H44         5.2550   53.8161   18.6412 H         1 UNK         0.0000 
     45 H45         7.0073   53.6245   16.8778 H         1 UNK         0.0000 
     46 H46         9.0339   55.0831   16.9724 H         1 UNK         0.0000 
     47 H47         9.0238   53.9891   18.3293 H         1 UNK         0.0000 
     48 H48         9.5733   56.3253   19.0688 H         1 UNK         0.0000 
     49 H49         7.8730   56.4962   20.8842 H         1 UNK         0.0000 
     50 H50         8.4020   54.8646   20.6615 H         1 UNK         0.0000 
     51 H51         7.8391   58.1271   18.8862 H         1 UNK         0.0000 
     52 H52         8.2968   57.5594   17.3078 H         1 UNK         0.0000 
     53 H53         5.8038   57.7243   17.5017 H         1 UNK         0.0000 
     54 H54         6.7858   55.9622   16.0045 H         1 UNK         0.0000 
     55 H55         5.2775   55.4224   16.6871 H         1 UNK         0.0000 
     56 H56         4.5865   56.2034   19.0321 H         1 UNK         0.0000 
     57 H57         5.5970   57.2961   19.9502 H         1 UNK         0.0000 
@<TRIPOS>BOND
     1    1    2 1    
     2    1   31 1    
     3    1   32 1    
     4    1   33 1    
     5    2    6 ar   
     6    2    3 ar   
     7    3    4 ar   
     8    3   15 1    
     9    4    5 ar   
    10    4   14 1    
    11    5    6 ar   
    12    5    7 1    
    13    7   12 ar   
    14    7    8 ar   
    15    8    9 ar   
    16    8   34 1    
    17    9   10 ar   
    18    9   35 1    
    19   10   11 ar   
    20   10   13 1    
    21   11   12 ar   
    22   11   36 1    
    23   12   37 1    
    24   14   38 1    
    25   14   39 1    
    26   14   40 1    
    27   15   16 2    
    28   15   17 am   BACKBONE|DICT|INTERRES
    29   17   18 1    
    30   17   41 1    
    31   18   19 am   BACKBONE|DICT|INTERRES
    32   18   42 1    
    33   19   20 2    
    34   19   21 1    
    35   21   26 1    
    36   21   30 1    
    37   21   22 1    
    38   22   23 1    
    39   22   43 1    
    40   22   44 1    
    41   23   29 1    
    42   23   24 1    
    43   23   45 1    
    44   24   25 1    
    45   24   46 1    
    46   24   47 1    
    47   25   26 1    
    48   25   27 1    
    49   25   48 1    
    50   26   49 1    
    51   26   50 1    
    52   27   28 1    
    53   27   51 1    
    54   27   52 1    
    55   28   29 1    
    56   28   30 1    
    57   28   53 1    
    58   29   54 1    
    59   29   55 1    
    60   30   56 1    
    61   30   57 1    
@<TRIPOS>SUBSTRUCTURE
     1 UNK         1 GROUP             0       ****    0 ROOT    
