@<TRIPOS>MOLECULE
ZINC20459042_3970
55   58    1
SMALL
USER_CHARGES


@<TRIPOS>ATOM
      1 C1          4.3025   54.1184   20.4778 C.3       1 UNK         0.0000 
      2 C2          4.5280   52.7417   21.1153 C.3       1 UNK         0.0000 
      3 O3          3.5325   52.4111   22.0816 O.3       1 UNK         0.0000 
      4 C4          2.3035   51.9541   21.7350 C.2       1 UNK         0.0000 
      5 O5          1.9173   51.8803   20.5660 O.2       1 UNK         0.0000 
      6 C6          1.4869   51.4483   22.8754 C.2       1 UNK         0.0000 
      7 C7          1.4622   52.0717   24.0891 C.2       1 UNK         0.0000 
      8 N8          0.6397   51.6981   25.1168 N.am      1 UNK         0.0000 
      9 C9          0.6896   52.3606   26.2977 C.2       1 UNK         0.0000 
     10 O10        -0.0996   52.1501   27.2203 O.2       1 UNK         0.0000 
     11 C11         1.7685   53.3245   26.2926 C.2       1 UNK         0.0000 
     12 C12         2.1919   54.0369   27.3698 C.2       1 UNK         0.0000 
     13 C13         1.7163   54.0308   28.7792 C.ar      1 UNK         0.0000 
     14 C14         1.4047   52.8494   29.4716 C.ar      1 UNK         0.0000 
     15 C15         0.7454   52.8933   30.7007 C.ar      1 UNK         0.0000 
     16 C16         0.4384   54.1193   31.2815 C.ar      1 UNK         0.0000 
     17 C17         0.8540   55.2967   30.6597 C.ar      1 UNK         0.0000 
     18 C18         1.4892   55.2561   29.4211 C.ar      1 UNK         0.0000 
     19 F19         1.8597   56.4233   28.8477 F         1 UNK         0.0000 
     20 S20         2.3736   53.4946   24.6438 S.3       1 UNK         0.0000 
     21 C21        -0.4261   50.6657   24.9255 C.3       1 UNK         0.0000 
     22 H22        -0.4372   50.0593   25.8356 H         1 UNK         0.0000 
     23 C23        -0.0885   49.7743   23.7048 C.2       1 UNK         0.0000 
     24 C24         0.7190   50.1964   22.6860 C.2       1 UNK         0.0000 
     25 N25         0.9614   49.3881   21.5914 N.pl3     1 UNK         0.0000 
     26 C26        -0.8481   48.4978   23.6584 C.2       1 UNK         0.0000 
     27 O27        -1.2947   48.0015   22.6201 O.2       1 UNK         0.0000 
     28 O28        -0.9886   47.9357   24.8806 O.3       1 UNK         0.0000 
     29 C29        -1.7234   46.7374   25.0639 C.3       1 UNK         0.0000 
     30 C30        -1.8534   51.2623   24.8815 C.ar      1 UNK         0.0000 
     31 C31        -2.8856   50.5664   25.5276 C.ar      1 UNK         0.0000 
     32 C32        -4.1871   51.0672   25.5414 C.ar      1 UNK         0.0000 
     33 C33        -4.4741   52.2796   24.9182 C.ar      1 UNK         0.0000 
     34 C34        -3.4549   52.9936   24.2916 C.ar      1 UNK         0.0000 
     35 C35        -2.1531   52.4945   24.2754 C.ar      1 UNK         0.0000 
     36 F36        -1.1923   53.2338   23.6818 F         1 UNK         0.0000 
     37 H37         5.1535   54.4009   19.8587 H         1 UNK         0.0000 
     38 H38         3.4258   54.1016   19.8334 H         1 UNK         0.0000 
     39 H39         4.1617   54.8930   21.2326 H         1 UNK         0.0000 
     40 H40         5.4894   52.7434   21.6291 H         1 UNK         0.0000 
     41 H41         4.5914   51.9690   20.3467 H         1 UNK         0.0000 
     42 H42         2.9996   54.7317   27.1862 H         1 UNK         0.0000 
     43 H43         1.6068   51.8851   29.0283 H         1 UNK         0.0000 
     44 H44         0.4511   51.9806   31.1985 H         1 UNK         0.0000 
     45 H45        -0.0704   54.1499   32.2348 H         1 UNK         0.0000 
     46 H46         0.7035   56.2524   31.1380 H         1 UNK         0.0000 
     47 H47         1.5285   49.7226   20.8234 H         1 UNK         0.0000 
     48 H48         0.3959   48.5638   21.4417 H         1 UNK         0.0000 
     49 H49        -1.7027   46.4534   26.1166 H         1 UNK         0.0000 
     50 H50        -2.7645   46.8719   24.7675 H         1 UNK         0.0000 
     51 H51        -1.2959   45.9230   24.4790 H         1 UNK         0.0000 
     52 H52        -2.6806   49.6328   26.0343 H         1 UNK         0.0000 
     53 H53        -4.9706   50.5163   26.0417 H         1 UNK         0.0000 
     54 H54        -5.4818   52.6689   24.9283 H         1 UNK         0.0000 
     55 H55        -3.6699   53.9415   23.8213 H         1 UNK         0.0000 
@<TRIPOS>BOND
     1    1    2 1    
     2    1   37 1    
     3    1   38 1    
     4    1   39 1    
     5    2    3 1    
     6    2   40 1    
     7    2   41 1    
     8    3    4 1    
     9    4    5 2    
    10    4    6 1    
    11    6   24 1    
    12    6    7 2    
    13    7   20 1    
    14    7    8 am   BACKBONE|DICT|INTERRES
    15    8    9 am   BACKBONE|DICT|INTERRES
    16    8   21 1    
    17    9   10 2    
    18    9   11 1    
    19   11   12 2    
    20   11   20 1    
    21   12   13 1    
    22   12   42 1    
    23   13   18 ar   
    24   13   14 ar   
    25   14   15 ar   
    26   14   43 1    
    27   15   16 ar   
    28   15   44 1    
    29   16   17 ar   
    30   16   45 1    
    31   17   18 ar   
    32   17   46 1    
    33   18   19 1    
    34   21   22 1    
    35   21   23 1    
    36   21   30 1    
    37   23   24 2    
    38   23   26 1    
    39   24   25 1    
    40   25   47 1    
    41   25   48 1    
    42   26   27 2    
    43   26   28 1    
    44   28   29 1    
    45   29   49 1    
    46   29   50 1    
    47   29   51 1    
    48   30   35 ar   
    49   30   31 ar   
    50   31   32 ar   
    51   31   52 1    
    52   32   33 ar   
    53   32   53 1    
    54   33   34 ar   
    55   33   54 1    
    56   34   35 ar   
    57   34   55 1    
    58   35   36 1    
@<TRIPOS>SUBSTRUCTURE
     1 UNK         1 GROUP             0       ****    0 ROOT    
