ZINC25531512_3535
                    3D
 Schrodinger Suite 2024-2.
 57 59  0  0  1  0            999 V2000
    6.7660   55.2488   26.2783 C   0  0  0  0  0  0
    5.3812   54.6490   26.2570 C   0  0  0  0  0  0
    4.6139   54.4719   27.4185 C   0  0  0  0  0  0
    3.3427   53.9589   27.1921 C   0  0  0  0  0  0
    3.0617   53.6965   25.5099 S   0  0  0  0  0  0
    4.6751   54.2419   25.1114 C   0  0  0  0  0  0
    5.1805   54.1526   23.7529 C   0  0  0  0  0  0
    6.3907   54.1752   23.5200 O   0  0  0  0  0  0
    4.2320   54.0375   22.7985 N   0  0  0  0  0  0
    4.4202   53.8781   21.4194 C   0  0  0  0  0  0
    3.5048   53.0707   20.7520 C   0  0  0  0  0  0
    3.6137   52.8811   19.3786 C   0  0  0  0  0  0
    4.6321   53.5074   18.6570 C   0  0  0  0  0  0
    5.5501   54.3172   19.3296 C   0  0  0  0  0  0
    5.4483   54.5088   20.7052 C   0  0  0  0  0  0
    4.8177   53.2987   17.2822 N   0  0  0  0  0  0
    3.5139   53.1751   16.0816 S   0  0  0  0  0  0
    4.1684   52.8300   14.8145 O   0  0  0  0  0  0
    2.4316   52.3413   16.6194 O   0  0  0  0  0  0
    2.8679   54.8345   15.8960 C   0  0  0  0  0  0
    3.3493   55.6623   14.8793 C   0  0  0  0  0  0
    2.8046   56.9306   14.7045 C   0  0  0  0  0  0
    1.7855   57.3663   15.5488 C   0  0  0  0  0  0
    1.3144   56.5490   16.5741 C   0  0  0  0  0  0
    1.8623   55.2823   16.7566 C   0  0  0  0  0  0
    1.2462   58.5914   15.3674 F   0  0  0  0  0  0
    2.3097   53.6380   28.0529 N   0  0  0  0  0  0
    2.3267   53.7132   29.4000 C   0  0  0  0  0  0
    3.2972   54.0978   30.0590 O   0  0  0  0  0  0
    1.0293   53.3076   30.1625 C   0  0  0  0  0  0
    0.4547   54.5673   30.8540 C   0  0  0  0  0  0
    1.3746   52.2267   31.2203 C   0  0  0  0  0  0
   -0.0717   52.7182   29.2332 C   0  0  0  0  0  0
    6.8679   56.0300   25.5269 H   0  0  0  0  0  0
    7.0211   55.6965   27.2411 H   0  0  0  0  0  0
    7.5049   54.4919   26.0282 H   0  0  0  0  0  0
    4.9940   54.7257   28.3973 H   0  0  0  0  0  0
    3.2794   53.9574   23.1165 H   0  0  0  0  0  0
    2.7093   52.5742   21.2884 H   0  0  0  0  0  0
    2.9204   52.2093   18.9001 H   0  0  0  0  0  0
    6.3536   54.7974   18.7884 H   0  0  0  0  0  0
    6.1600   55.1501   21.2034 H   0  0  0  0  0  0
    5.7336   53.4858   16.9080 H   0  0  0  0  0  0
    4.1292   55.3198   14.2130 H   0  0  0  0  0  0
    3.1635   57.5759   13.9175 H   0  0  0  0  0  0
    0.5340   56.9072   17.2304 H   0  0  0  0  0  0
    1.4998   54.6461   17.5534 H   0  0  0  0  0  0
    1.4667   53.2913   27.6253 H   0  0  0  0  0  0
   -0.4954   54.3535   31.3409 H   0  0  0  0  0  0
    0.3023   55.3741   30.1383 H   0  0  0  0  0  0
    1.1044   54.9654   31.6275 H   0  0  0  0  0  0
    1.8196   51.3565   30.7390 H   0  0  0  0  0  0
    2.0910   52.5653   31.9699 H   0  0  0  0  0  0
    0.4852   51.8967   31.7593 H   0  0  0  0  0  0
    0.2763   51.8348   28.6939 H   0  0  0  0  0  0
   -0.9439   52.4032   29.8097 H   0  0  0  0  0  0
   -0.4235   53.4437   28.4969 H   0  0  0  0  0  0
  1  2  1  0  0  0
  1 34  1  0  0  0
  1 35  1  0  0  0
  1 36  1  0  0  0
  2  6  2  0  0  0
  2  3  1  0  0  0
  3  4  2  0  0  0
  3 37  1  0  0  0
  4  5  1  0  0  0
  4 27  1  0  0  0
  5  6  1  0  0  0
  6  7  1  0  0  0
  7  8  2  0  0  0
  7  9  1  0  0  0
  9 10  1  0  0  0
  9 38  1  0  0  0
 10 15  2  0  0  0
 10 11  1  0  0  0
 11 12  2  0  0  0
 11 39  1  0  0  0
 12 13  1  0  0  0
 12 40  1  0  0  0
 13 14  2  0  0  0
 13 16  1  0  0  0
 14 15  1  0  0  0
 14 41  1  0  0  0
 15 42  1  0  0  0
 16 17  1  0  0  0
 16 43  1  0  0  0
 17 18  2  0  0  0
 17 19  2  0  0  0
 17 20  1  0  0  0
 20 25  2  0  0  0
 20 21  1  0  0  0
 21 22  2  0  0  0
 21 44  1  0  0  0
 22 23  1  0  0  0
 22 45  1  0  0  0
 23 24  2  0  0  0
 23 26  1  0  0  0
 24 25  1  0  0  0
 24 46  1  0  0  0
 25 47  1  0  0  0
 27 28  1  0  0  0
 27 48  1  0  0  0
 28 29  2  0  0  0
 28 30  1  0  0  0
 30 31  1  0  0  0
 30 32  1  0  0  0
 30 33  1  0  0  0
 31 49  1  0  0  0
 31 50  1  0  0  0
 31 51  1  0  0  0
 32 52  1  0  0  0
 32 53  1  0  0  0
 32 54  1  0  0  0
 33 55  1  0  0  0
 33 56  1  0  0  0
 33 57  1  0  0  0
M  END
> <i_i_glide_confnum>
253

> <i_i_glide_lignum>
3536

> <i_i_glide_posenum>
384

> <i_i_glide_rotatable_bonds>
9

> <i_m_Source_File_Index>
3567

> <b_m_subgroup_collapsed>
0

> <r_i_docking_score>
-5.0102

> <r_i_glide_ecoul>
-2.32974

> <r_i_glide_eff_state_penalty>
0

> <r_i_glide_einternal>
4.39052

> <r_i_glide_emodel>
-58.4927

> <r_i_glide_energy>
-45.9537

> <r_i_glide_erotb>
0.679019

> <r_i_glide_esite>
-0.172509

> <r_i_glide_evdw>
-43.6239

> <r_i_glide_gscore>
-5.0102

> <r_i_glide_hbond>
-0.32

> <r_i_glide_ligand_efficiency>
-0.151824

> <r_i_glide_ligand_efficiency_ln>
-1.11424

> <r_i_glide_ligand_efficiency_sa>
-0.486982

> <r_i_glide_lipo>
-2.17898

> <r_i_glide_metal>
0

> <r_i_glide_rewards>
-0.487074

> <s_i_glide_gridfile>
wee1_glide-grid

> <s_m_Source_File>
wee1_decoys_glide_SP.sdf

> <s_m_Source_Path>
/Users/zhangxujun/Desktop

> <s_m_entry_id>
3842

> <s_m_entry_name>
wee1_decoys_glide_SP.3567

> <s_m_subgroup_title>
wee1_decoys_glide_SP

> <s_m_subgroupid>
wee1_decoys_glide_SP


$$$$
