@<TRIPOS>MOLECULE
ZINC35897646_2625
62   66    1
SMALL
USER_CHARGES


@<TRIPOS>ATOM
      1 C1         -2.3463   50.3019   24.7169 C.3       1 UNK         0.0000 
      2 C2         -1.1318   49.5380   24.1666 C.3       1 UNK         0.0000 
      3 C3          0.1973   50.2229   24.5368 C.3       1 UNK         0.0000 
      4 C4          0.2428   51.7345   24.1991 C.3       1 UNK         0.0000 
      5 C5         -1.0458   52.4967   24.6050 C.3       1 UNK         0.0000 
      6 C6         -2.3487   51.7620   24.2346 C.3       1 UNK         0.0000 
      7 N7          1.5040   52.3629   24.5938 N.am      1 UNK         0.0000 
      8 C8          1.9797   53.5348   24.1483 C.2       1 UNK         0.0000 
      9 O9          1.3810   54.2598   23.3538 O.2       1 UNK         0.0000 
     10 C10         3.3296   53.8267   24.5775 C.2       1 UNK         0.0000 
     11 C11         4.3229   54.2398   23.6538 C.2       1 UNK         0.0000 
     12 C12         5.5653   54.4473   24.2595 C.2       1 UNK         0.0000 
     13 S13         5.5063   54.2361   25.9693 S.3       1 UNK         0.0000 
     14 C14         3.8258   53.7573   25.8997 C.2       1 UNK         0.0000 
     15 N15         3.1169   53.4128   27.0539 N.am      1 UNK         0.0000 
     16 C16         3.6098   53.0101   28.2516 C.2       1 UNK         0.0000 
     17 O17         4.8061   52.8366   28.4827 O.2       1 UNK         0.0000 
     18 C18         2.6074   52.8099   29.4272 C.3       1 UNK         0.0000 
     19 H19         3.2368   52.5470   30.2815 H         1 UNK         0.0000 
     20 C20         1.5430   51.6969   29.2335 C.3       1 UNK         0.0000 
     21 H21         1.9522   50.6927   29.2819 H         1 UNK         0.0000 
     22 C22         0.6607   51.8356   27.9929 C.3       1 UNK         0.0000 
     23 C23        -0.1041   53.1255   28.2972 C.3       1 UNK         0.0000 
     24 C24         0.2874   53.4740   29.7429 C.3       1 UNK         0.0000 
     25 H25        -0.4519   54.0728   30.2746 H         1 UNK         0.0000 
     26 C26         0.5182   52.0966   30.3142 C.3       1 UNK         0.0000 
     27 C27         1.7195   54.0395   29.8240 C.3       1 UNK         0.0000 
     28 H28         1.8862   54.2000   30.8817 H         1 UNK         0.0000 
     29 C29         2.0301   55.4381   29.2989 C.2       1 UNK         0.0000 
     30 O30         1.1045   56.2081   28.9801 O.co2     1 UNK         0.0000 
     31 O31         3.2436   55.6968   29.2815 O.co2     1 UNK         0.0000 
     32 C32         6.8648   54.7248   23.5293 C.3       1 UNK         0.0000 
     33 C33         6.5893   55.1470   22.0740 C.3       1 UNK         0.0000 
     34 C34         5.5043   54.2809   21.4106 C.3       1 UNK         0.0000 
     35 C35         4.1467   54.3549   22.1339 C.3       1 UNK         0.0000 
     36 H36        -2.3325   50.2734   25.8077 H         1 UNK         0.0000 
     37 H37        -3.2679   49.8050   24.4110 H         1 UNK         0.0000 
     38 H38        -1.1361   48.5154   24.5464 H         1 UNK         0.0000 
     39 H39        -1.2110   49.4607   23.0811 H         1 UNK         0.0000 
     40 H40         0.3355   50.0924   25.6109 H         1 UNK         0.0000 
     41 H41         1.0217   49.7011   24.0485 H         1 UNK         0.0000 
     42 H42         0.2323   51.7593   23.1065 H         1 UNK         0.0000 
     43 H43        -1.0582   53.4889   24.1533 H         1 UNK         0.0000 
     44 H44        -1.0454   52.6370   25.6844 H         1 UNK         0.0000 
     45 H45        -3.2046   52.2923   24.6550 H         1 UNK         0.0000 
     46 H46        -2.4798   51.7840   23.1528 H         1 UNK         0.0000 
     47 H47         2.0437   51.8725   25.2903 H         1 UNK         0.0000 
     48 H48         2.1119   53.4052   26.9688 H         1 UNK         0.0000 
     49 H49         1.2039   51.8327   27.0590 H         1 UNK         0.0000 
     50 H50        -0.0305   50.9918   27.9358 H         1 UNK         0.0000 
     51 H51        -1.1608   52.8967   28.1751 H         1 UNK         0.0000 
     52 H52         0.1647   53.9685   27.6817 H         1 UNK         0.0000 
     53 H53        -0.3873   51.4810   30.3185 H         1 UNK         0.0000 
     54 H54         0.9180   52.0962   31.3317 H         1 UNK         0.0000 
     55 H55         7.4567   55.4911   24.0347 H         1 UNK         0.0000 
     56 H56         7.4728   53.8188   23.5227 H         1 UNK         0.0000 
     57 H57         6.3045   56.1972   22.0386 H         1 UNK         0.0000 
     58 H58         7.5163   55.0832   21.5013 H         1 UNK         0.0000 
     59 H59         5.3788   54.5686   20.3661 H         1 UNK         0.0000 
     60 H60         5.8300   53.2411   21.4004 H         1 UNK         0.0000 
     61 H61         3.4904   53.5777   21.7415 H         1 UNK         0.0000 
     62 H62         3.6473   55.2963   21.9081 H         1 UNK         0.0000 
@<TRIPOS>BOND
     1    1    6 1    
     2    1    2 1    
     3    1   36 1    
     4    1   37 1    
     5    2    3 1    
     6    2   38 1    
     7    2   39 1    
     8    3    4 1    
     9    3   40 1    
    10    3   41 1    
    11    4    5 1    
    12    4    7 1    
    13    4   42 1    
    14    5    6 1    
    15    5   43 1    
    16    5   44 1    
    17    6   45 1    
    18    6   46 1    
    19    7    8 am   BACKBONE|DICT|INTERRES
    20    7   47 1    
    21    8    9 2    
    22    8   10 1    
    23   10   14 2    
    24   10   11 1    
    25   11   35 1    
    26   11   12 2    
    27   12   13 1    
    28   12   32 1    
    29   13   14 1    
    30   14   15 am   BACKBONE|DICT|INTERRES
    31   15   16 am   BACKBONE|DICT|INTERRES
    32   15   48 1    
    33   16   17 2    
    34   16   18 1    
    35   18   19 1    
    36   18   27 1    
    37   18   20 1    
    38   20   21 1    
    39   20   26 1    
    40   20   22 1    
    41   22   23 1    
    42   22   49 1    
    43   22   50 1    
    44   23   24 1    
    45   23   51 1    
    46   23   52 1    
    47   24   25 1    
    48   24   26 1    
    49   24   27 1    
    50   26   53 1    
    51   26   54 1    
    52   27   28 1    
    53   27   29 1    
    54   29   30 2    
    55   29   31 1    
    56   32   33 1    
    57   32   55 1    
    58   32   56 1    
    59   33   34 1    
    60   33   57 1    
    61   33   58 1    
    62   34   35 1    
    63   34   59 1    
    64   34   60 1    
    65   35   61 1    
    66   35   62 1    
@<TRIPOS>SUBSTRUCTURE
     1 UNK         1 GROUP             0       ****    0 ROOT    
