@<TRIPOS>MOLECULE
ZINC29120016_3316
46   49    1
SMALL
USER_CHARGES


@<TRIPOS>ATOM
      1 C1          1.2553   46.1991   17.3828 C.3       1 UNK         0.0000 
      2 S2          0.6932   47.8297   16.6408 S.o2      1 UNK         0.0000 
      3 O3         -0.7567   47.9654   16.8188 O.2       1 UNK         0.0000 
      4 O4          1.2956   47.9536   15.3114 O.2       1 UNK         0.0000 
      5 N5          1.5039   49.0184   17.6811 N.pl3     1 UNK         0.0000 
      6 C6          1.2396   49.2219   19.0487 C.ar      1 UNK         0.0000 
      7 C7          2.1394   50.0024   19.7791 C.ar      1 UNK         0.0000 
      8 C8          1.9208   50.2565   21.1351 C.ar      1 UNK         0.0000 
      9 C9          0.8029   49.7200   21.7840 C.ar      1 UNK         0.0000 
     10 C10        -0.0930   48.9355   21.0492 C.ar      1 UNK         0.0000 
     11 C11         0.1207   48.6895   19.6964 C.ar      1 UNK         0.0000 
     12 C12         0.5346   49.9522   23.2436 C.2       1 UNK         0.0000 
     13 C13        -0.1586   49.0635   24.0739 C.2       1 UNK         0.0000 
     14 S14        -0.2657   49.6923   25.6840 S.3       1 UNK         0.0000 
     15 C15         0.6043   51.0786   25.1362 C.2       1 UNK         0.0000 
     16 N16         0.9503   51.0536   23.8637 N.2       1 UNK         0.0000 
     17 N17         0.9120   52.0279   26.1031 N.am      1 UNK         0.0000 
     18 C18         1.5054   53.2228   25.9097 C.2       1 UNK         0.0000 
     19 O19         1.7579   53.6974   24.8034 O.2       1 UNK         0.0000 
     20 C20         1.8338   54.0463   27.1720 C.3       1 UNK         0.0000 
     21 N21         2.4863   53.2967   28.2563 N.pl3     1 UNK         0.0000 
     22 C22         3.8437   53.1519   28.4859 C.ar      1 UNK         0.0000 
     23 N23         4.0470   52.4568   29.5801 N.2       1 UNK         0.0000 
     24 N24         2.8101   52.1226   30.1072 N.2       1 UNK         0.0000 
     25 C25         1.8966   52.6378   29.3262 C.ar      1 UNK         0.0000 
     26 S26         0.1754   52.4971   29.6705 S.3       1 UNK         0.0000 
     27 C27         4.9546   53.7153   27.7101 C.2       1 UNK         0.0000 
     28 C28         6.2149   53.9959   28.2204 C.2       1 UNK         0.0000 
     29 C29         7.1044   54.4974   27.2816 C.2       1 UNK         0.0000 
     30 C30         6.5566   54.6126   26.0168 C.2       1 UNK         0.0000 
     31 S31         4.9059   54.0966   26.0047 S.3       1 UNK         0.0000 
     32 H32         0.7744   45.3887   16.8379 H         1 UNK         0.0000 
     33 H33         2.3364   46.1333   17.2784 H         1 UNK         0.0000 
     34 H34         0.9738   46.1704   18.4334 H         1 UNK         0.0000 
     35 H35         2.4263   49.2969   17.3485 H         1 UNK         0.0000 
     36 H36         3.0130   50.4180   19.2940 H         1 UNK         0.0000 
     37 H37         2.6291   50.8630   21.6786 H         1 UNK         0.0000 
     38 H38        -0.9698   48.5171   21.5214 H         1 UNK         0.0000 
     39 H39        -0.6041   48.0834   19.1782 H         1 UNK         0.0000 
     40 H40        -0.5838   48.1000   23.8382 H         1 UNK         0.0000 
     41 H41         0.6349   51.8014   27.0509 H         1 UNK         0.0000 
     42 H42         0.9242   54.4857   27.5758 H         1 UNK         0.0000 
     43 H43         2.4652   54.8953   26.9278 H         1 UNK         0.0000 
     44 H44         6.4858   53.8541   29.2545 H         1 UNK         0.0000 
     45 H45         8.1049   54.7684   27.5643 H         1 UNK         0.0000 
     46 H46         7.0238   54.9629   25.1085 H         1 UNK         0.0000 
@<TRIPOS>BOND
     1    1    2 1    
     2    1   32 1    
     3    1   33 1    
     4    1   34 1    
     5    2    3 2    
     6    2    4 2    
     7    2    5 1    
     8    5    6 1    
     9    5   35 1    
    10    6   11 ar   
    11    6    7 ar   
    12    7    8 ar   
    13    7   36 1    
    14    8    9 ar   
    15    8   37 1    
    16    9   10 ar   
    17    9   12 1    
    18   10   11 ar   
    19   10   38 1    
    20   11   39 1    
    21   12   16 1    
    22   12   13 2    
    23   13   14 1    
    24   13   40 1    
    25   14   15 1    
    26   15   16 2    
    27   15   17 am   BACKBONE|DICT|INTERRES
    28   17   18 am   BACKBONE|DICT|INTERRES
    29   17   41 1    
    30   18   19 2    
    31   18   20 1    
    32   20   42 1    
    33   20   43 1    
    34   20   21 1    
    35   21   25 ar   
    36   21   22 ar   
    37   22   27 1    
    38   22   23 ar   
    39   23   24 ar   
    40   24   25 ar   
    41   25   26 1    
    42   27   31 1    
    43   27   28 2    
    44   28   29 1    
    45   28   44 1    
    46   29   30 2    
    47   29   45 1    
    48   30   31 1    
    49   30   46 1    
@<TRIPOS>SUBSTRUCTURE
     1 UNK         1 GROUP             0       ****    0 ROOT    
