@<TRIPOS>MOLECULE
ZINC38847429_1095
68   71    1
SMALL
USER_CHARGES


@<TRIPOS>ATOM
      1 C1          4.7136   54.4933   28.7920 C.3       1 UNK         0.0000 
      2 C2          5.0351   54.4288   27.3102 C.ar      1 UNK         0.0000 
      3 C3          6.3643   54.5382   26.8909 C.ar      1 UNK         0.0000 
      4 C4          6.7045   54.5155   25.5378 C.ar      1 UNK         0.0000 
      5 C5          5.6821   54.3744   24.5966 C.ar      1 UNK         0.0000 
      6 C6          4.3355   54.2608   25.0196 C.ar      1 UNK         0.0000 
      7 C7          3.9987   54.2866   26.3815 C.ar      1 UNK         0.0000 
      8 S8          3.3134   54.0952   23.5989 S.3       1 UNK         0.0000 
      9 C9          4.7560   54.2342   22.5901 C.2       1 UNK         0.0000 
     10 N10         5.8812   54.3408   23.2565 N.2       1 UNK         0.0000 
     11 N11         4.6487   54.2650   21.1824 N.am      1 UNK         0.0000 
     12 C12         3.5920   53.4268   20.5802 C.3       1 UNK         0.0000 
     13 C13         4.1202   52.0418   20.1512 C.3       1 UNK         0.0000 
     14 N14         3.1044   51.2674   19.2815 N.4       1 UNK         0.0000 
     15 C15         1.8848   50.7447   20.0663 C.3       1 UNK         0.0000 
     16 C16         2.7090   51.9784   17.9698 C.3       1 UNK         0.0000 
     17 C17         5.5376   54.9784   20.4045 C.2       1 UNK         0.0000 
     18 O18         6.3790   55.7453   20.8848 O.2       1 UNK         0.0000 
     19 C19         5.5125   54.8831   18.8484 C.3       1 UNK         0.0000 
     20 C20         5.2095   56.2714   18.2300 C.3       1 UNK         0.0000 
     21 C21         5.1766   56.1530   16.6895 C.3       1 UNK         0.0000 
     22 N22         6.3815   55.4700   16.1449 N.pl3     1 UNK         0.0000 
     23 C23         6.8233   54.2158   16.8098 C.3       1 UNK         0.0000 
     24 C24         6.8795   54.3575   18.3429 C.3       1 UNK         0.0000 
     25 S25         7.5349   56.3983   15.1724 S.o2      1 UNK         0.0000 
     26 O26         8.5573   55.4792   14.6561 O.2       1 UNK         0.0000 
     27 O27         6.7686   57.2638   14.2676 O.2       1 UNK         0.0000 
     28 C28         8.3572   57.4777   16.3420 C.ar      1 UNK         0.0000 
     29 C29         7.9431   58.8027   16.4793 C.ar      1 UNK         0.0000 
     30 C30         8.6213   59.6486   17.3511 C.ar      1 UNK         0.0000 
     31 C31         9.6956   59.1790   18.1039 C.ar      1 UNK         0.0000 
     32 C32        10.0857   57.8326   17.9856 C.ar      1 UNK         0.0000 
     33 C33         9.4194   56.9867   17.1017 C.ar      1 UNK         0.0000 
     34 O34        10.3038   60.0969   18.9381 O.3       1 UNK         0.0000 
     35 C35        11.4035   59.6778   19.7378 C.3       1 UNK         0.0000 
     36 H36         3.7466   54.9706   28.9613 H         1 UNK         0.0000 
     37 H37         4.6918   53.4899   29.2237 H         1 UNK         0.0000 
     38 H38         5.4539   55.0908   29.3287 H         1 UNK         0.0000 
     39 H39         7.1442   54.6461   27.6327 H         1 UNK         0.0000 
     40 H40         7.7258   54.5969   25.2044 H         1 UNK         0.0000 
     41 H41         2.9700   54.1982   26.7013 H         1 UNK         0.0000 
     42 H42         2.7568   53.2733   21.2620 H         1 UNK         0.0000 
     43 H43         3.1283   53.9632   19.7533 H         1 UNK         0.0000 
     44 H44         5.0197   52.0983   19.5363 H         1 UNK         0.0000 
     45 H45         4.3483   51.3979   21.0033 H         1 UNK         0.0000 
     46 H46         1.3070   51.6078   20.4048 H         1 UNK         0.0000 
     47 H47         1.3049   50.1197   19.3838 H         1 UNK         0.0000 
     48 H48         2.2585   50.1569   20.9068 H         1 UNK         0.0000 
     49 H49         2.0834   52.8423   18.2042 H         1 UNK         0.0000 
     50 H50         3.6356   52.2630   17.4675 H         1 UNK         0.0000 
     51 H51         2.1699   51.2464   17.3644 H         1 UNK         0.0000 
     52 H52         4.7443   54.1861   18.5370 H         1 UNK         0.0000 
     53 H53         4.2215   56.6345   18.5158 H         1 UNK         0.0000 
     54 H54         5.9785   57.0071   18.4742 H         1 UNK         0.0000 
     55 H55         4.2950   55.6211   16.3302 H         1 UNK         0.0000 
     56 H56         5.1144   57.1510   16.2516 H         1 UNK         0.0000 
     57 H57         6.1572   53.4110   16.4957 H         1 UNK         0.0000 
     58 H58         7.8099   53.9428   16.4342 H         1 UNK         0.0000 
     59 H59         7.6952   55.0463   18.5722 H         1 UNK         0.0000 
     60 H60         7.0960   53.3592   18.7237 H         1 UNK         0.0000 
     61 H61         7.1106   59.1920   15.9095 H         1 UNK         0.0000 
     62 H62         8.3035   60.6757   17.4397 H         1 UNK         0.0000 
     63 H63        10.9027   57.4262   18.5622 H         1 UNK         0.0000 
     64 H64         9.7343   55.9562   17.0079 H         1 UNK         0.0000 
     65 H65        11.7705   60.5189   20.3237 H         1 UNK         0.0000 
     66 H66        11.1040   58.8962   20.4355 H         1 UNK         0.0000 
     67 H67        12.2312   59.3139   19.1257 H         1 UNK         0.0000 
     68 H68         3.6498   50.4728   18.9464 H         1 UNK         0.0000 
@<TRIPOS>BOND
     1    1    2 1    
     2    1   36 1    
     3    1   37 1    
     4    1   38 1    
     5    2    7 ar   
     6    2    3 ar   
     7    3    4 ar   
     8    3   39 1    
     9    4    5 ar   
    10    4   40 1    
    11    5   10 1    
    12    5    6 ar   
    13    6    7 ar   
    14    6    8 1    
    15    7   41 1    
    16    8    9 1    
    17    9   10 2    
    18    9   11 am   BACKBONE|DICT|INTERRES
    19   11   12 1    
    20   11   17 am   BACKBONE|DICT|INTERRES
    21   12   13 1    
    22   12   42 1    
    23   12   43 1    
    24   13   14 1    
    25   13   44 1    
    26   13   45 1    
    27   14   15 1    
    28   14   16 1    
    29   14   68 1    
    30   15   46 1    
    31   15   47 1    
    32   15   48 1    
    33   16   49 1    
    34   16   50 1    
    35   16   51 1    
    36   17   18 2    
    37   17   19 1    
    38   19   24 1    
    39   19   20 1    
    40   19   52 1    
    41   20   21 1    
    42   20   53 1    
    43   20   54 1    
    44   21   22 1    
    45   21   55 1    
    46   21   56 1    
    47   22   23 1    
    48   22   25 1    
    49   23   24 1    
    50   23   57 1    
    51   23   58 1    
    52   24   59 1    
    53   24   60 1    
    54   25   26 2    
    55   25   27 2    
    56   25   28 1    
    57   28   33 ar   
    58   28   29 ar   
    59   29   30 ar   
    60   29   61 1    
    61   30   31 ar   
    62   30   62 1    
    63   31   32 ar   
    64   31   34 1    
    65   32   33 ar   
    66   32   63 1    
    67   33   64 1    
    68   34   35 1    
    69   35   65 1    
    70   35   66 1    
    71   35   67 1    
@<TRIPOS>SUBSTRUCTURE
     1 UNK         1 GROUP             0       ****    0 ROOT    
