ZINC20464134_5433
                    3D
 Schrodinger Suite 2024-2.
 52 55  0  0  1  0            999 V2000
    7.0707   53.0235   17.6228 C   0  0  0  0  0  0
    5.6506   53.3318   18.1429 N   0  3  2  0  0  0
    4.5449   53.1403   17.0786 C   0  0  0  0  0  0
    3.4629   54.1778   17.4104 C   0  0  2  0  0  0
    3.2884   54.8160   16.5449 H   0  0  0  0  0  0
    3.9796   55.0242   18.5682 C   0  0  0  0  0  0
    5.4851   54.7641   18.6956 C   0  0  1  0  0  0
    6.0509   55.4174   18.0256 H   0  0  0  0  0  0
    6.0054   54.8966   20.1196 C   0  0  0  0  0  0
    5.4160   54.4979   21.2139 N   0  0  0  0  0  0
    6.2446   54.8965   22.1601 C   0  0  0  0  0  0
    7.3484   55.4767   21.7241 N   0  0  0  0  0  0
    7.2050   55.4827   20.3355 O   0  0  0  0  0  0
    5.8943   54.7518   23.6239 C   0  0  0  0  0  0
    4.6943   54.1357   24.0122 C   0  0  0  0  0  0
    4.3174   54.0868   25.3538 C   0  0  0  0  0  0
    5.1602   54.6002   26.3456 C   0  0  0  0  0  0
    6.3525   55.2043   25.9660 C   0  0  0  0  0  0
    6.7063   55.2972   24.6223 C   0  0  0  0  0  0
    4.9058   54.5657   27.7034 O   0  0  0  0  0  0
    3.6329   54.1573   28.1946 C   0  0  0  0  0  0
    2.6477   54.8974   27.6858 F   0  0  0  0  0  0
    3.6389   54.3449   29.5143 F   0  0  0  0  0  0
    3.4101   52.8647   27.9692 F   0  0  0  0  0  0
    2.1335   53.5940   17.6820 N   0  0  0  0  0  0
    0.8940   53.5818   16.4382 S   0  0  0  0  0  0
    1.5448   53.2727   15.1595 O   0  0  0  0  0  0
   -0.2170   52.7675   16.9437 O   0  0  0  0  0  0
    0.3031   55.2716   16.3563 C   0  0  0  0  0  0
   -0.7645   55.6642   17.1660 C   0  0  0  0  0  0
   -1.2526   56.9647   17.0832 C   0  0  0  0  0  0
   -0.6725   57.8640   16.1919 C   0  0  0  0  0  0
    0.4058   57.4810   15.3961 C   0  0  0  0  0  0
    0.8962   56.1801   15.4766 C   0  0  0  0  0  0
   -1.2932   59.4669   16.0808 Cl  0  0  0  0  0  0
    7.2459   53.6201   16.7273 H   0  0  0  0  0  0
    7.7733   53.2970   18.4078 H   0  0  0  0  0  0
    7.1108   51.9543   17.4029 H   0  0  0  0  0  0
    4.9798   53.3406   16.0987 H   0  0  0  0  0  0
    4.2241   52.0992   17.1368 H   0  0  0  0  0  0
    3.5044   54.6729   19.4824 H   0  0  0  0  0  0
    3.7451   56.0853   18.4820 H   0  0  0  0  0  0
    4.0256   53.7176   23.2751 H   0  0  0  0  0  0
    3.3815   53.6120   25.6057 H   0  0  0  0  0  0
    6.9896   55.6216   26.7322 H   0  0  0  0  0  0
    7.6152   55.8160   24.3613 H   0  0  0  0  0  0
    1.7803   53.7683   18.6293 H   0  0  0  0  0  0
   -1.2177   54.9660   17.8542 H   0  0  0  0  0  0
   -2.0804   57.2766   17.7004 H   0  0  0  0  0  0
    0.8530   58.1895   14.7143 H   0  0  0  0  0  0
    1.7252   55.8800   14.8489 H   0  0  0  0  0  0
    5.4206   52.6789   18.8845 H   0  0  0  0  0  0
  1  2  1  0  0  0
  1 36  1  0  0  0
  1 37  1  0  0  0
  1 38  1  0  0  0
  2  7  1  0  0  0
  2  3  1  0  0  0
  2 52  1  0  0  0
  3  4  1  0  0  0
  3 39  1  0  0  0
  3 40  1  0  0  0
  4  5  1  0  0  0
  4  6  1  0  0  0
  4 25  1  0  0  0
  6  7  1  0  0  0
  6 41  1  0  0  0
  6 42  1  0  0  0
  7  8  1  0  0  0
  7  9  1  0  0  0
  9 13  1  0  0  0
  9 10  2  0  0  0
 10 11  1  0  0  0
 11 12  2  0  0  0
 11 14  1  0  0  0
 12 13  1  0  0  0
 14 19  2  0  0  0
 14 15  1  0  0  0
 15 16  2  0  0  0
 15 43  1  0  0  0
 16 17  1  0  0  0
 16 44  1  0  0  0
 17 18  2  0  0  0
 17 20  1  0  0  0
 18 19  1  0  0  0
 18 45  1  0  0  0
 19 46  1  0  0  0
 20 21  1  0  0  0
 21 22  1  0  0  0
 21 23  1  0  0  0
 21 24  1  0  0  0
 25 26  1  0  0  0
 25 47  1  0  0  0
 26 27  2  0  0  0
 26 28  2  0  0  0
 26 29  1  0  0  0
 29 34  2  0  0  0
 29 30  1  0  0  0
 30 31  2  0  0  0
 30 48  1  0  0  0
 31 32  1  0  0  0
 31 49  1  0  0  0
 32 33  2  0  0  0
 32 35  1  0  0  0
 33 34  1  0  0  0
 33 50  1  0  0  0
 34 51  1  0  0  0
M  CHG  1   2   1
M  END
> <i_i_glide_confnum>
64

> <i_i_glide_lignum>
5434

> <i_i_glide_posenum>
246

> <i_i_glide_rotatable_bonds>
7

> <i_m_Source_File_Index>
4020

> <b_m_subgroup_collapsed>
0

> <r_i_docking_score>
-5.14181

> <r_i_glide_ecoul>
-2.62011

> <r_i_glide_eff_state_penalty>
0

> <r_i_glide_einternal>
2.20909

> <r_i_glide_emodel>
-54.4344

> <r_i_glide_energy>
-39.4463

> <r_i_glide_erotb>
0.483062

> <r_i_glide_esite>
-0.109182

> <r_i_glide_evdw>
-36.8262

> <r_i_glide_gscore>
-5.14181

> <r_i_glide_hbond>
-0.244363

> <r_i_glide_ligand_efficiency>
-0.155812

> <r_i_glide_ligand_efficiency_ln>
-1.14351

> <r_i_glide_ligand_efficiency_sa>
-0.499774

> <r_i_glide_lipo>
-2.07903

> <r_i_glide_metal>
0

> <r_i_glide_rewards>
-0.957972

> <s_i_glide_gridfile>
wee1_glide-grid

> <s_m_Source_File>
wee1_decoys_glide_SP.sdf

> <s_m_Source_Path>
/Users/zhangxujun/Desktop

> <s_m_entry_id>
4295

> <s_m_entry_name>
wee1_decoys_glide_SP.4020

> <s_m_subgroup_title>
wee1_decoys_glide_SP

> <s_m_subgroupid>
wee1_decoys_glide_SP


$$$$
