@<TRIPOS>MOLECULE
ZINC09236942_4117
49   53    1
SMALL
USER_CHARGES


@<TRIPOS>ATOM
      1 C1         -6.0546   49.6050   30.1065 C.ar      1 UNK         0.0000 
      2 C2         -6.8448   50.3813   29.2663 C.ar      1 UNK         0.0000 
      3 C3         -6.2580   51.0564   28.2005 C.ar      1 UNK         0.0000 
      4 C4         -4.8778   50.9669   27.9598 C.ar      1 UNK         0.0000 
      5 C5         -4.0987   50.1826   28.8192 C.ar      1 UNK         0.0000 
      6 C6         -4.6849   49.5042   29.8859 C.ar      1 UNK         0.0000 
      7 C7         -4.2994   51.7537   26.8118 C.ar      1 UNK         0.0000 
      8 N8         -4.8760   52.8526   26.3757 N.2       1 UNK         0.0000 
      9 N9         -4.0905   53.3929   25.3728 N.2       1 UNK         0.0000 
     10 C10        -3.0462   52.6193   25.2408 C.ar      1 UNK         0.0000 
     11 N11        -3.1016   51.5619   26.1337 N.pl3     1 UNK         0.0000 
     12 N12        -2.1791   50.5023   26.2414 N.3       1 UNK         0.0000 
     13 C13        -0.7912   50.9286   26.0084 C.3       1 UNK         0.0000 
     14 H14        -0.1979   50.0119   26.0489 H         1 UNK         0.0000 
     15 C15        -0.7087   51.4254   24.5130 C.3       1 UNK         0.0000 
     16 H16        -1.0820   50.6298   23.8662 H         1 UNK         0.0000 
     17 S17        -1.7369   52.8962   24.0904 S.3       1 UNK         0.0000 
     18 C18         0.7453   51.5797   23.9918 C.2       1 UNK         0.0000 
     19 O19         1.5042   50.6160   24.0816 O.2       1 UNK         0.0000 
     20 N20         1.1340   52.7720   23.4898 N.am      1 UNK         0.0000 
     21 C21         2.4534   53.1507   23.2447 C.ar      1 UNK         0.0000 
     22 C22         2.9849   53.0617   21.9572 C.ar      1 UNK         0.0000 
     23 C23         4.2712   53.5418   21.7126 C.ar      1 UNK         0.0000 
     24 C24         5.0057   54.1107   22.7531 C.ar      1 UNK         0.0000 
     25 C25         4.4823   54.1780   24.0414 C.ar      1 UNK         0.0000 
     26 C26         3.2023   53.6983   24.2890 C.ar      1 UNK         0.0000 
     27 Br27        6.7045   54.8969   22.4160 Br        1 UNK         0.0000 
     28 C28        -0.1803   51.7758   27.1636 C.ar      1 UNK         0.0000 
     29 C29        -0.4283   51.3837   28.4853 C.ar      1 UNK         0.0000 
     30 C30         0.0675   52.1051   29.5678 C.ar      1 UNK         0.0000 
     31 C31         0.8556   53.2262   29.3385 C.ar      1 UNK         0.0000 
     32 C32         1.1477   53.6216   28.0374 C.ar      1 UNK         0.0000 
     33 C33         0.6367   52.8967   26.9613 C.ar      1 UNK         0.0000 
     34 H34        -6.5035   49.0802   30.9368 H         1 UNK         0.0000 
     35 H35        -7.9078   50.4590   29.4396 H         1 UNK         0.0000 
     36 H36        -6.8890   51.6532   27.5575 H         1 UNK         0.0000 
     37 H37        -3.0370   50.0946   28.6943 H         1 UNK         0.0000 
     38 H38        -4.0767   48.9011   30.5426 H         1 UNK         0.0000 
     39 H39        -2.2583   50.0608   27.1505 H         1 UNK         0.0000 
     40 H40         0.4360   53.4989   23.4276 H         1 UNK         0.0000 
     41 H41         2.4003   52.6529   21.1447 H         1 UNK         0.0000 
     42 H42         4.6811   53.5030   20.7134 H         1 UNK         0.0000 
     43 H43         5.0578   54.6230   24.8398 H         1 UNK         0.0000 
     44 H44         2.8031   53.7764   25.2875 H         1 UNK         0.0000 
     45 H45        -1.0023   50.4969   28.6840 H         1 UNK         0.0000 
     46 H46        -0.1570   51.7892   30.5771 H         1 UNK         0.0000 
     47 H47         1.2406   53.7904   30.1750 H         1 UNK         0.0000 
     48 H48         1.7561   54.4966   27.8591 H         1 UNK         0.0000 
     49 H49         0.8390   53.2672   25.9771 H         1 UNK         0.0000 
@<TRIPOS>BOND
     1    1    6 ar   
     2    1    2 ar   
     3    1   34 1    
     4    2    3 ar   
     5    2   35 1    
     6    3    4 ar   
     7    3   36 1    
     8    4    5 ar   
     9    4    7 1    
    10    5    6 ar   
    11    5   37 1    
    12    6   38 1    
    13    7   11 ar   
    14    7    8 ar   
    15    8    9 ar   
    16    9   10 ar   
    17   10   17 1    
    18   10   11 ar   
    19   11   12 1    
    20   12   13 1    
    21   12   39 1    
    22   13   14 1    
    23   13   15 1    
    24   13   28 1    
    25   15   16 1    
    26   15   17 1    
    27   15   18 1    
    28   18   19 2    
    29   18   20 am   BACKBONE|DICT|INTERRES
    30   20   21 1    
    31   20   40 1    
    32   21   26 ar   
    33   21   22 ar   
    34   22   23 ar   
    35   22   41 1    
    36   23   24 ar   
    37   23   42 1    
    38   24   25 ar   
    39   24   27 1    
    40   25   26 ar   
    41   25   43 1    
    42   26   44 1    
    43   28   33 ar   
    44   28   29 ar   
    45   29   30 ar   
    46   29   45 1    
    47   30   31 ar   
    48   30   46 1    
    49   31   32 ar   
    50   31   47 1    
    51   32   33 ar   
    52   32   48 1    
    53   33   49 1    
@<TRIPOS>SUBSTRUCTURE
     1 UNK         1 GROUP             0       ****    0 ROOT    
