@<TRIPOS>MOLECULE
ZINC39683639_3692
64   66    1
SMALL
USER_CHARGES


@<TRIPOS>ATOM
      1 C1          7.3820   53.5720   24.0099 C.3       1 UNK         0.0000 
      2 C2          6.6000   54.3946   22.9785 C.3       1 UNK         0.0000 
      3 C3          5.4526   53.5696   22.3480 C.3       1 UNK         0.0000 
      4 C4          4.5824   54.2788   21.2676 C.3       1 UNK         0.0000 
      5 H5          3.8233   54.8766   21.7735 H         1 UNK         0.0000 
      6 C6          5.3990   55.2789   20.4113 C.3       1 UNK         0.0000 
      7 C7          3.8041   53.2595   20.3821 C.2       1 UNK         0.0000 
      8 O8          4.0779   53.1349   19.1892 O.2       1 UNK         0.0000 
      9 N9          2.8192   52.5178   20.9309 N.am      1 UNK         0.0000 
     10 C10         1.5519   53.0962   21.3522 C.3       1 UNK         0.0000 
     11 C11         0.9722   52.0943   22.3698 C.3       1 UNK         0.0000 
     12 H12         1.1607   52.4924   23.3678 H         1 UNK         0.0000 
     13 C13         1.7574   50.7588   22.1780 C.3       1 UNK         0.0000 
     14 C14         3.0757   51.2168   21.5115 C.3       1 UNK         0.0000 
     15 C15         1.1031   49.6497   21.2928 C.3       1 UNK         0.0000 
     16 C16        -0.1015   48.9108   21.9561 C.3       1 UNK         0.0000 
     17 N17         0.2163   48.4969   23.4171 N.4       1 UNK         0.0000 
     18 C18         0.9482   49.5351   24.2848 C.3       1 UNK         0.0000 
     19 C19         2.1471   50.0657   23.4860 C.3       1 UNK         0.0000 
     20 C20        -0.5658   52.0275   22.1752 C.2       1 UNK         0.0000 
     21 O21        -1.0929   52.0970   21.0642 O.2       1 UNK         0.0000 
     22 N22        -1.2855   51.9432   23.3022 N.am      1 UNK         0.0000 
     23 C23        -2.7380   51.9044   23.4105 C.3       1 UNK         0.0000 
     24 C24        -3.2310   52.8554   24.5103 C.3       1 UNK         0.0000 
     25 C25        -3.3486   52.2397   25.9036 C.ar      1 UNK         0.0000 
     26 C26        -4.6355   51.9588   26.3824 C.ar      1 UNK         0.0000 
     27 C27        -4.8210   51.4331   27.6587 C.ar      1 UNK         0.0000 
     28 C28        -3.7156   51.1397   28.4532 C.ar      1 UNK         0.0000 
     29 C29        -2.4264   51.3567   27.9699 C.ar      1 UNK         0.0000 
     30 C30        -2.2352   51.9655   26.7255 C.ar      1 UNK         0.0000 
     31 Br31       -0.4540   52.4886   26.2688 Br        1 UNK         0.0000 
     32 H32         8.1908   54.0966   24.4816 H         1 UNK         0.0000 
     33 H33         7.8905   52.7191   23.5562 H         1 UNK         0.0000 
     34 H34         6.7236   53.2953   24.8301 H         1 UNK         0.0000 
     35 H35         6.1942   55.2881   23.4533 H         1 UNK         0.0000 
     36 H36         7.3022   54.7352   22.2175 H         1 UNK         0.0000 
     37 H37         5.8958   52.6593   21.9397 H         1 UNK         0.0000 
     38 H38         4.7916   53.2531   23.1565 H         1 UNK         0.0000 
     39 H39         4.8301   55.6716   19.5670 H         1 UNK         0.0000 
     40 H40         5.7186   56.1423   20.9958 H         1 UNK         0.0000 
     41 H41         6.2937   54.8065   20.0146 H         1 UNK         0.0000 
     42 H42         1.6891   54.0514   21.8674 H         1 UNK         0.0000 
     43 H43         0.9460   53.1495   20.4468 H         1 UNK         0.0000 
     44 H44         3.5940   50.4856   20.8874 H         1 UNK         0.0000 
     45 H45         3.7736   51.4464   22.3144 H         1 UNK         0.0000 
     46 H46         0.8065   50.0665   20.3282 H         1 UNK         0.0000 
     47 H47         1.8524   48.8963   21.0427 H         1 UNK         0.0000 
     48 H48        -1.0179   49.4933   22.0080 H         1 UNK         0.0000 
     49 H49        -0.3536   47.9926   21.4254 H         1 UNK         0.0000 
     50 H50        -0.6272   48.2017   23.8902 H         1 UNK         0.0000 
     51 H51         0.2236   50.2931   24.5630 H         1 UNK         0.0000 
     52 H52         1.2539   49.0009   25.1870 H         1 UNK         0.0000 
     53 H53         2.8839   49.2949   23.2877 H         1 UNK         0.0000 
     54 H54         2.6837   50.7932   24.0821 H         1 UNK         0.0000 
     55 H55        -0.7919   51.9286   24.1842 H         1 UNK         0.0000 
     56 H56        -3.2201   52.1922   22.4786 H         1 UNK         0.0000 
     57 H57        -3.0989   50.8886   23.5777 H         1 UNK         0.0000 
     58 H58        -2.5768   53.7126   24.5303 H         1 UNK         0.0000 
     59 H59        -4.2007   53.2678   24.2198 H         1 UNK         0.0000 
     60 H60        -5.5067   52.1598   25.7745 H         1 UNK         0.0000 
     61 H61        -5.8183   51.2298   28.0239 H         1 UNK         0.0000 
     62 H62        -3.8511   50.7029   29.4327 H         1 UNK         0.0000 
     63 H63        -1.5791   51.1121   28.5964 H         1 UNK         0.0000 
     64 H64         0.8183   47.6859   23.3914 H         1 UNK         0.0000 
@<TRIPOS>BOND
     1    1    2 1    
     2    1   32 1    
     3    1   33 1    
     4    1   34 1    
     5    2    3 1    
     6    2   35 1    
     7    2   36 1    
     8    3    4 1    
     9    3   37 1    
    10    3   38 1    
    11    4    5 1    
    12    4    6 1    
    13    4    7 1    
    14    6   39 1    
    15    6   40 1    
    16    6   41 1    
    17    7    8 2    
    18    7    9 am   BACKBONE|DICT|INTERRES
    19    9   14 1    
    20    9   10 1    
    21   10   11 1    
    22   10   42 1    
    23   10   43 1    
    24   11   12 1    
    25   11   13 1    
    26   11   20 1    
    27   13   19 1    
    28   13   14 1    
    29   13   15 1    
    30   14   44 1    
    31   14   45 1    
    32   15   16 1    
    33   15   46 1    
    34   15   47 1    
    35   16   17 1    
    36   16   48 1    
    37   16   49 1    
    38   17   18 1    
    39   17   50 1    
    40   17   64 1    
    41   18   19 1    
    42   18   51 1    
    43   18   52 1    
    44   19   53 1    
    45   19   54 1    
    46   20   21 2    
    47   20   22 am   BACKBONE|DICT|INTERRES
    48   22   23 1    
    49   22   55 1    
    50   23   24 1    
    51   23   56 1    
    52   23   57 1    
    53   24   25 1    
    54   24   58 1    
    55   24   59 1    
    56   25   30 ar   
    57   25   26 ar   
    58   26   27 ar   
    59   26   60 1    
    60   27   28 ar   
    61   27   61 1    
    62   28   29 ar   
    63   28   62 1    
    64   29   30 ar   
    65   29   63 1    
    66   30   31 1    
@<TRIPOS>SUBSTRUCTURE
     1 UNK         1 GROUP             0       ****    0 ROOT    
