@<TRIPOS>MOLECULE
ZINC63280093_2220
59   62    1
SMALL
USER_CHARGES


@<TRIPOS>ATOM
      1 C1          0.3051   48.5857   24.6152 C.3       1 UNK         0.0000 
      2 C2         -0.8542   49.5654   24.4291 C.3       1 UNK         0.0000 
      3 H3         -1.7785   48.9872   24.4975 H         1 UNK         0.0000 
      4 C4         -0.8167   50.2154   23.0105 C.3       1 UNK         0.0000 
      5 C5          0.3145   51.1961   22.7048 C.2       1 UNK         0.0000 
      6 C6          1.3105   51.1470   21.7993 C.2       1 UNK         0.0000 
      7 C7          1.6673   50.1151   20.8131 C.2       1 UNK         0.0000 
      8 C8          2.7042   50.2978   19.9713 C.2       1 UNK         0.0000 
      9 C9          3.4659   51.5364   20.0817 C.2       1 UNK         0.0000 
     10 C10         3.1500   52.5012   20.9802 C.2       1 UNK         0.0000 
     11 C11         2.0629   52.3277   21.8434 C.2       1 UNK         0.0000 
     12 N12         1.5849   53.1477   22.7401 N.pl3     1 UNK         0.0000 
     13 C13         0.4357   52.5293   23.4090 C.3       1 UNK         0.0000 
     14 N14        -0.8523   50.4657   25.5830 N.am      1 UNK         0.0000 
     15 C15        -1.5536   51.5945   25.7562 C.2       1 UNK         0.0000 
     16 O16        -2.3224   52.0501   24.9111 O.2       1 UNK         0.0000 
     17 C17        -1.3043   52.3127   26.9779 C.2       1 UNK         0.0000 
     18 C18        -0.1793   52.3671   27.7321 C.2       1 UNK         0.0000 
     19 C19        -0.0190   53.2214   28.9793 C.3       1 UNK         0.0000 
     20 S20         1.6082   52.9080   29.6793 S.3       1 UNK         0.0000 
     21 C21         2.2172   52.1619   28.1686 C.3       1 UNK         0.0000 
     22 H22         2.8309   51.3104   28.4591 H         1 UNK         0.0000 
     23 N23         1.0028   51.6815   27.5188 N.pl3     1 UNK         0.0000 
     24 C24         3.0672   53.1220   27.3275 C.ar      1 UNK         0.0000 
     25 C25         2.6005   53.7570   26.1732 C.ar      1 UNK         0.0000 
     26 C26         3.4712   54.4966   25.3710 C.ar      1 UNK         0.0000 
     27 C27         4.8118   54.6381   25.7205 C.ar      1 UNK         0.0000 
     28 C28         5.2851   54.0687   26.9088 C.ar      1 UNK         0.0000 
     29 C29         4.4039   53.2971   27.6911 C.ar      1 UNK         0.0000 
     30 O30         6.6047   54.3054   27.2430 O.3       1 UNK         0.0000 
     31 C31         7.1052   53.7022   28.4223 C.3       1 UNK         0.0000 
     32 O32         5.6370   55.3665   24.8983 O.3       1 UNK         0.0000 
     33 C33         6.5351   54.5870   24.1186 C.3       1 UNK         0.0000 
     34 H34         0.3040   47.8155   23.8457 H         1 UNK         0.0000 
     35 H35         1.2635   49.0972   24.5467 H         1 UNK         0.0000 
     36 H36         0.2504   48.0965   25.5878 H         1 UNK         0.0000 
     37 H37        -0.7935   49.4221   22.2633 H         1 UNK         0.0000 
     38 H38        -1.7550   50.7388   22.8277 H         1 UNK         0.0000 
     39 H39         1.1072   49.1952   20.7267 H         1 UNK         0.0000 
     40 H40         2.9790   49.5548   19.2323 H         1 UNK         0.0000 
     41 H41         4.3030   51.6967   19.4119 H         1 UNK         0.0000 
     42 H42         3.7410   53.4061   21.0006 H         1 UNK         0.0000 
     43 H43        -0.4331   53.1778   23.2910 H         1 UNK         0.0000 
     44 H44         0.6874   52.4196   24.4606 H         1 UNK         0.0000 
     45 H45        -0.4638   50.0616   26.4243 H         1 UNK         0.0000 
     46 H46        -0.7798   52.9937   29.7282 H         1 UNK         0.0000 
     47 H47        -2.1571   52.8967   27.2688 H         1 UNK         0.0000 
     48 H48        -0.0760   54.2761   28.7124 H         1 UNK         0.0000 
     49 H49         1.1319   51.0030   26.7821 H         1 UNK         0.0000 
     50 H50         1.5633   53.6829   25.8935 H         1 UNK         0.0000 
     51 H51         3.1034   54.9750   24.4759 H         1 UNK         0.0000 
     52 H52         4.7488   52.7978   28.5828 H         1 UNK         0.0000 
     53 H53         8.0832   54.0966   28.6709 H         1 UNK         0.0000 
     54 H54         6.4740   53.9203   29.2815 H         1 UNK         0.0000 
     55 H55         7.2050   52.6291   28.2663 H         1 UNK         0.0000 
     56 H56         7.1029   55.2428   23.4597 H         1 UNK         0.0000 
     57 H57         6.0048   53.8669   23.4946 H         1 UNK         0.0000 
     58 H58         7.2508   54.0448   24.7362 H         1 UNK         0.0000 
     59 H59         1.9490   54.0749   22.9472 H         1 UNK         0.0000 
@<TRIPOS>BOND
     1    1    2 1    
     2    1   34 1    
     3    1   35 1    
     4    1   36 1    
     5    2    3 1    
     6    2    4 1    
     7    2   14 1    
     8    4    5 1    
     9    4   37 1    
    10    4   38 1    
    11    5   13 1    
    12    5    6 2    
    13    6   11 1    
    14    6    7 1    
    15    7    8 2    
    16    7   39 1    
    17    8    9 1    
    18    8   40 1    
    19    9   10 2    
    20    9   41 1    
    21   10   11 1    
    22   10   42 1    
    23   11   12 2    
    24   12   13 1    
    25   12   59 1    
    26   13   43 1    
    27   13   44 1    
    28   14   45 1    
    29   14   15 am   BACKBONE|DICT|INTERRES
    30   15   16 2    
    31   15   17 1    
    32   17   47 1    
    33   17   18 2    
    34   18   19 1    
    35   18   23 1    
    36   19   20 1    
    37   19   48 1    
    38   19   46 1    
    39   20   21 1    
    40   21   22 1    
    41   21   24 1    
    42   21   23 1    
    43   23   49 1    
    44   24   29 ar   
    45   24   25 ar   
    46   25   26 ar   
    47   25   50 1    
    48   26   27 ar   
    49   26   51 1    
    50   27   28 ar   
    51   27   32 1    
    52   28   29 ar   
    53   28   30 1    
    54   29   52 1    
    55   30   31 1    
    56   31   53 1    
    57   31   54 1    
    58   31   55 1    
    59   32   33 1    
    60   33   56 1    
    61   33   57 1    
    62   33   58 1    
@<TRIPOS>SUBSTRUCTURE
     1 UNK         1 GROUP             0       ****    0 ROOT    
