@<TRIPOS>MOLECULE
ZINC63478579_807
60   65    1
SMALL
USER_CHARGES


@<TRIPOS>ATOM
      1 C1          2.2640   52.1583   20.3476 C.3       1 UNK         0.0000 
      2 C2          1.4116   50.9779   20.8764 C.3       1 UNK         0.0000 
      3 C3          0.7849   50.2856   19.6278 C.3       1 UNK         0.0000 
      4 C4          2.3708   49.8973   21.4720 C.3       1 UNK         0.0000 
      5 N5          0.4049   51.4853   21.8902 N.am      1 UNK         0.0000 
      6 C6          0.7714   51.8946   23.1403 C.2       1 UNK         0.0000 
      7 O7          1.9048   51.9532   23.6110 O.2       1 UNK         0.0000 
      8 C8         -0.4586   52.3766   23.9043 C.3       1 UNK         0.0000 
      9 H9         -0.3105   53.4373   24.1109 H         1 UNK         0.0000 
     10 C10        -0.7999   51.5829   25.1897 C.3       1 UNK         0.0000 
     11 H11        -1.4417   52.2233   25.7948 H         1 UNK         0.0000 
     12 N12        -1.6381   50.4926   24.7343 N.3       1 UNK         0.0000 
     13 C13        -2.5216   51.0617   23.7167 C.3       1 UNK         0.0000 
     14 C14        -1.6044   52.1141   22.9723 C.3       1 UNK         0.0000 
     15 H15        -2.1372   53.0479   22.7876 H         1 UNK         0.0000 
     16 C16        -0.9270   51.6962   21.6631 C.2       1 UNK         0.0000 
     17 O17        -1.5528   51.6076   20.6060 O.2       1 UNK         0.0000 
     18 C18        -3.8058   51.6525   24.2434 C.ar      1 UNK         0.0000 
     19 C19        -4.0542   52.7682   25.0508 C.ar      1 UNK         0.0000 
     20 C20        -5.3675   53.1151   25.3735 C.ar      1 UNK         0.0000 
     21 C21        -6.4329   52.3487   24.8898 C.ar      1 UNK         0.0000 
     22 C22        -6.1872   51.2355   24.0816 C.ar      1 UNK         0.0000 
     23 C23        -4.8688   50.9069   23.7645 C.ar      1 UNK         0.0000 
     24 N24        -4.3928   49.8791   22.9721 N.am      1 UNK         0.0000 
     25 C25        -3.0521   49.8576   22.8761 C.2       1 UNK         0.0000 
     26 O26        -2.3832   49.0293   22.2570 O.2       1 UNK         0.0000 
     27 Cl27       -5.6722   54.4958   26.3641 Cl        1 UNK         0.0000 
     28 C28         0.3234   51.1329   26.1484 C.3       1 UNK         0.0000 
     29 C29         0.9583   52.2713   26.9277 C.2       1 UNK         0.0000 
     30 C30         0.7871   52.6503   28.2054 C.2       1 UNK         0.0000 
     31 C31        -0.0640   52.0900   29.2634 C.2       1 UNK         0.0000 
     32 C32        -0.0954   52.6514   30.4862 C.2       1 UNK         0.0000 
     33 C33         0.7052   53.8420   30.7187 C.2       1 UNK         0.0000 
     34 C34         1.5106   54.3646   29.7569 C.2       1 UNK         0.0000 
     35 C35         1.5769   53.7683   28.4914 C.2       1 UNK         0.0000 
     36 N36         2.2970   54.0973   27.4476 N.pl3     1 UNK         0.0000 
     37 C37         1.9948   53.1989   26.3251 C.3       1 UNK         0.0000 
     38 H38         2.8002   52.6739   21.1469 H         1 UNK         0.0000 
     39 H39         3.0106   51.8261   19.6227 H         1 UNK         0.0000 
     40 H40         1.6370   52.8965   19.8451 H         1 UNK         0.0000 
     41 H41         0.1010   49.4826   19.9115 H         1 UNK         0.0000 
     42 H42         0.2351   50.9867   18.9972 H         1 UNK         0.0000 
     43 H43         1.5456   49.8427   18.9818 H         1 UNK         0.0000 
     44 H44         1.8174   49.0407   21.8648 H         1 UNK         0.0000 
     45 H45         3.0768   49.5211   20.7263 H         1 UNK         0.0000 
     46 H46         2.9993   50.2725   22.2807 H         1 UNK         0.0000 
     47 H47        -2.1614   50.0888   25.5016 H         1 UNK         0.0000 
     48 H48        -3.2475   53.3814   25.4246 H         1 UNK         0.0000 
     49 H49        -7.4491   52.6215   25.1324 H         1 UNK         0.0000 
     50 H50        -7.0151   50.6557   23.7029 H         1 UNK         0.0000 
     51 H51        -4.9754   49.1927   22.5189 H         1 UNK         0.0000 
     52 H52        -0.0970   50.4353   26.8750 H         1 UNK         0.0000 
     53 H53         1.0868   50.5614   25.6232 H         1 UNK         0.0000 
     54 H54        -0.6636   51.2037   29.1029 H         1 UNK         0.0000 
     55 H55        -0.7008   52.2283   31.2768 H         1 UNK         0.0000 
     56 H56         0.6487   54.3229   31.6857 H         1 UNK         0.0000 
     57 H57         2.0796   55.2563   29.9820 H         1 UNK         0.0000 
     58 H58         2.9160   52.6975   26.0251 H         1 UNK         0.0000 
     59 H59         1.6210   53.8049   25.4984 H         1 UNK         0.0000 
     60 H60         2.9563   54.8703   27.4017 H         1 UNK         0.0000 
@<TRIPOS>BOND
     1    1    2 1    
     2    1   38 1    
     3    1   39 1    
     4    1   40 1    
     5    2    3 1    
     6    2    4 1    
     7    2    5 1    
     8    3   41 1    
     9    3   42 1    
    10    3   43 1    
    11    4   44 1    
    12    4   45 1    
    13    4   46 1    
    14    5   16 am   BACKBONE|DICT|INTERRES
    15    5    6 am   BACKBONE|DICT|INTERRES
    16    6    7 2    
    17    6    8 1    
    18    8    9 1    
    19    8   14 1    
    20    8   10 1    
    21   10   11 1    
    22   10   12 1    
    23   10   28 1    
    24   12   13 1    
    25   12   47 1    
    26   13   25 1    
    27   13   14 1    
    28   13   18 1    
    29   14   15 1    
    30   14   16 1    
    31   16   17 2    
    32   18   23 ar   
    33   18   19 ar   
    34   19   20 ar   
    35   19   48 1    
    36   20   21 ar   
    37   20   27 1    
    38   21   22 ar   
    39   21   49 1    
    40   22   23 ar   
    41   22   50 1    
    42   23   24 1    
    43   24   25 am   BACKBONE|DICT|INTERRES
    44   24   51 1    
    45   25   26 2    
    46   28   29 1    
    47   28   52 1    
    48   28   53 1    
    49   29   37 1    
    50   29   30 2    
    51   30   35 1    
    52   30   31 1    
    53   31   32 2    
    54   31   54 1    
    55   32   33 1    
    56   32   55 1    
    57   33   34 2    
    58   33   56 1    
    59   34   35 1    
    60   34   57 1    
    61   35   36 2    
    62   36   37 1    
    63   36   60 1    
    64   37   58 1    
    65   37   59 1    
@<TRIPOS>SUBSTRUCTURE
     1 UNK         1 GROUP             0       ****    0 ROOT    
