@<TRIPOS>MOLECULE
ZINC39636127_176
75   78    1
SMALL
USER_CHARGES


@<TRIPOS>ATOM
      1 C1          2.0079   48.9583   20.6449 C.3       1 UNK         0.0000 
      2 C2          1.8396   50.0414   19.5565 C.3       1 UNK         0.0000 
      3 H3          2.7925   50.5580   19.4178 H         1 UNK         0.0000 
      4 C4          1.5019   49.4081   18.1898 C.3       1 UNK         0.0000 
      5 C5          1.5044   50.4806   17.0823 C.3       1 UNK         0.0000 
      6 C6          0.5128   51.6178   17.4002 C.3       1 UNK         0.0000 
      7 C7          0.7020   52.2007   18.8198 C.3       1 UNK         0.0000 
      8 C8          0.7582   51.1032   19.9108 C.3       1 UNK         0.0000 
      9 H9         -0.1965   50.5691   19.8940 H         1 UNK         0.0000 
     10 N10         0.9027   51.6425   21.2624 N.am      1 UNK         0.0000 
     11 C11        -0.0772   52.0967   22.0647 C.2       1 UNK         0.0000 
     12 O12        -1.2607   52.0966   21.7262 O.2       1 UNK         0.0000 
     13 C13         0.2919   52.6583   23.4662 C.3       1 UNK         0.0000 
     14 H14        -0.2984   53.5650   23.6106 H         1 UNK         0.0000 
     15 C15         1.7581   53.1288   23.4955 C.3       1 UNK         0.0000 
     16 N16         2.1017   53.0771   24.9147 N.am      1 UNK         0.0000 
     17 C17         1.1043   52.3401   25.7034 C.3       1 UNK         0.0000 
     18 C18         0.1514   51.6826   24.6657 C.3       1 UNK         0.0000 
     19 C19         0.6046   50.2188   24.3412 C.3       1 UNK         0.0000 
     20 C20         0.4899   49.2653   25.5567 C.3       1 UNK         0.0000 
     21 N21        -0.9612   49.2976   26.0817 N.4       1 UNK         0.0000 
     22 C22        -1.4771   50.7186   26.3902 C.3       1 UNK         0.0000 
     23 C23        -1.3256   51.5701   25.1191 C.3       1 UNK         0.0000 
     24 C24         3.1783   53.7579   25.3884 C.2       1 UNK         0.0000 
     25 O25         3.8665   54.4440   24.6301 O.2       1 UNK         0.0000 
     26 C26         3.5814   53.6469   26.8845 C.3       1 UNK         0.0000 
     27 H27         3.2081   52.6914   27.2326 H         1 UNK         0.0000 
     28 C28         5.1200   53.5743   27.1758 C.3       1 UNK         0.0000 
     29 C29         5.9739   54.7818   26.7301 C.3       1 UNK         0.0000 
     30 C30         5.3837   53.3121   28.6703 C.3       1 UNK         0.0000 
     31 O31         3.0347   54.7853   27.5633 O.3       1 UNK         0.0000 
     32 C32         2.1771   54.6633   28.6414 C.ar      1 UNK         0.0000 
     33 C33         1.5796   53.4695   29.0837 C.ar      1 UNK         0.0000 
     34 C34         0.7476   53.4727   30.1996 C.ar      1 UNK         0.0000 
     35 C35         0.5180   54.6619   30.8817 C.ar      1 UNK         0.0000 
     36 C36         1.1044   55.8518   30.4580 C.ar      1 UNK         0.0000 
     37 C37         1.9161   55.8490   29.3296 C.ar      1 UNK         0.0000 
     38 H38         1.0568   48.4769   20.8731 H         1 UNK         0.0000 
     39 H39         2.7044   48.1817   20.3273 H         1 UNK         0.0000 
     40 H40         2.3989   49.3777   21.5723 H         1 UNK         0.0000 
     41 H41         2.2464   48.6469   17.9481 H         1 UNK         0.0000 
     42 H42         0.5542   48.8693   18.2312 H         1 UNK         0.0000 
     43 H43         1.2658   50.0270   16.1195 H         1 UNK         0.0000 
     44 H44         2.5093   50.8967   16.9777 H         1 UNK         0.0000 
     45 H45        -0.5052   51.2375   17.3034 H         1 UNK         0.0000 
     46 H46         0.6093   52.4107   16.6571 H         1 UNK         0.0000 
     47 H47        -0.1094   52.8966   19.0324 H         1 UNK         0.0000 
     48 H48         1.6232   52.7859   18.8451 H         1 UNK         0.0000 
     49 H49         1.8439   51.6282   21.6221 H         1 UNK         0.0000 
     50 H50         1.8576   54.1217   23.0503 H         1 UNK         0.0000 
     51 H51         2.4250   52.4072   23.0234 H         1 UNK         0.0000 
     52 H52         1.4837   51.6504   26.4530 H         1 UNK         0.0000 
     53 H53         0.5366   53.0974   26.2452 H         1 UNK         0.0000 
     54 H54         0.0357   49.7995   23.5096 H         1 UNK         0.0000 
     55 H55         1.6411   50.2186   23.9998 H         1 UNK         0.0000 
     56 H56         0.7044   48.2264   25.2967 H         1 UNK         0.0000 
     57 H57         1.1044   49.5405   26.4112 H         1 UNK         0.0000 
     58 H58        -1.5806   48.8458   25.4249 H         1 UNK         0.0000 
     59 H59        -2.5165   50.5985   26.7008 H         1 UNK         0.0000 
     60 H60        -0.8977   51.0848   27.2393 H         1 UNK         0.0000 
     61 H61        -1.7124   52.5663   25.3405 H         1 UNK         0.0000 
     62 H62        -1.9582   51.1921   24.3134 H         1 UNK         0.0000 
     63 H63         5.5056   52.7094   26.6398 H         1 UNK         0.0000 
     64 H64         5.5930   55.6966   27.1712 H         1 UNK         0.0000 
     65 H65         7.0105   54.6749   27.0532 H         1 UNK         0.0000 
     66 H66         6.0087   54.9104   25.6500 H         1 UNK         0.0000 
     67 H67         4.9538   54.0996   29.2896 H         1 UNK         0.0000 
     68 H68         4.9616   52.3603   28.9941 H         1 UNK         0.0000 
     69 H69         6.4535   53.2959   28.8817 H         1 UNK         0.0000 
     70 H70         1.7293   52.5234   28.5952 H         1 UNK         0.0000 
     71 H71         0.2883   52.5564   30.5450 H         1 UNK         0.0000 
     72 H72        -0.1095   54.6555   31.7604 H         1 UNK         0.0000 
     73 H73         0.9300   56.7725   30.9966 H         1 UNK         0.0000 
     74 H74         2.3663   56.7731   28.9980 H         1 UNK         0.0000 
     75 H75        -1.0433   48.7688   26.9671 H         1 UNK         0.0000 
@<TRIPOS>BOND
     1    1    2 1    
     2    1   38 1    
     3    1   39 1    
     4    1   40 1    
     5    2    3 1    
     6    2    8 1    
     7    2    4 1    
     8    4    5 1    
     9    4   41 1    
    10    4   42 1    
    11    5    6 1    
    12    5   43 1    
    13    5   44 1    
    14    6    7 1    
    15    6   45 1    
    16    6   46 1    
    17    7    8 1    
    18    7   47 1    
    19    7   48 1    
    20    8    9 1    
    21    8   10 1    
    22   10   11 am   BACKBONE|DICT|INTERRES
    23   10   49 1    
    24   11   12 2    
    25   11   13 1    
    26   13   14 1    
    27   13   18 1    
    28   13   15 1    
    29   15   16 1    
    30   15   50 1    
    31   15   51 1    
    32   16   17 1    
    33   16   24 am   BACKBONE|DICT|INTERRES
    34   17   18 1    
    35   17   52 1    
    36   17   53 1    
    37   18   23 1    
    38   18   19 1    
    39   19   20 1    
    40   19   54 1    
    41   19   55 1    
    42   20   21 1    
    43   20   56 1    
    44   20   57 1    
    45   21   22 1    
    46   21   58 1    
    47   21   75 1    
    48   22   23 1    
    49   22   59 1    
    50   22   60 1    
    51   23   61 1    
    52   23   62 1    
    53   24   25 2    
    54   24   26 1    
    55   26   27 1    
    56   26   28 1    
    57   26   31 1    
    58   28   29 1    
    59   28   30 1    
    60   28   63 1    
    61   29   64 1    
    62   29   65 1    
    63   29   66 1    
    64   30   67 1    
    65   30   68 1    
    66   30   69 1    
    67   31   32 1    
    68   32   37 ar   
    69   32   33 ar   
    70   33   34 ar   
    71   33   70 1    
    72   34   35 ar   
    73   34   71 1    
    74   35   36 ar   
    75   35   72 1    
    76   36   37 ar   
    77   36   73 1    
    78   37   74 1    
@<TRIPOS>SUBSTRUCTURE
     1 UNK         1 GROUP             0       ****    0 ROOT    
