ZINC62039579_4560
                    3D
 Schrodinger Suite 2024-2.
 62 66  0  0  1  0            999 V2000
    3.3813   54.5026   29.4786 C   0  0  0  0  0  0
    4.2277   54.4464   28.2212 C   0  0  0  0  0  0
    5.6169   54.3741   28.3086 C   0  0  0  0  0  0
    6.4117   54.3106   27.1645 C   0  0  0  0  0  0
    5.7905   54.3193   25.9039 C   0  0  0  0  0  0
    6.3423   54.3127   24.6718 N   0  0  0  0  0  0
    5.3272   54.3466   23.8278 C   0  0  0  0  0  0
    4.0754   54.3408   24.4817 C   0  0  0  0  0  0
    4.3870   54.3666   25.8317 N   0  0  0  0  0  0
    3.6171   54.4438   26.9685 C   0  0  0  0  0  0
    2.6350   54.4018   23.9471 C   0  0  0  0  0  0
    1.6830   53.2419   24.3173 C   0  0  0  0  0  0
    1.8204   52.6338   25.3790 O   0  0  0  0  0  0
    0.6705   53.0079   23.4558 N   0  0  0  0  0  0
   -0.3977   52.1588   23.7318 C   0  0  0  0  0  0
   -0.4503   50.7909   24.0826 C   0  0  0  0  0  0
   -1.7929   50.3808   24.3478 C   0  0  0  0  0  0
   -2.7146   51.4290   24.1718 C   0  0  0  0  0  0
   -1.9580   52.8967   23.6815 S   0  0  0  0  0  0
   -4.2313   51.3145   24.2938 C   0  0  0  0  0  0
   -4.5768   50.0086   25.0474 C   0  0  2  0  0  0
   -4.3124   50.1286   26.1015 H   0  0  0  0  0  0
   -3.7947   48.8341   24.4283 C   0  0  0  0  0  0
   -2.2802   48.9629   24.6954 C   0  0  0  0  0  0
   -6.0951   49.7573   25.0013 C   0  0  0  0  0  0
    0.7041   49.9135   24.0494 C   0  0  0  0  0  0
    1.6470   50.0988   23.2823 O   0  0  0  0  0  0
    0.7044   48.8968   24.9098 N   0  0  0  0  0  0
    5.6023   54.4477   22.3581 C   0  0  0  0  0  0
    4.7787   53.8145   21.4188 C   0  0  0  0  0  0
    5.0305   53.9424   20.0532 C   0  0  0  0  0  0
    6.1242   54.6822   19.6084 C   0  0  0  0  0  0
    6.9771   55.2968   20.5317 C   0  0  0  0  0  0
    6.7043   55.1871   21.8990 C   0  0  0  0  0  0
    8.2315   56.0106   20.0582 C   0  0  0  0  0  0
    6.3687   54.7791   18.2811 F   0  0  0  0  0  0
    3.9290   54.1157   30.3378 H   0  0  0  0  0  0
    3.0639   55.5250   29.6805 H   0  0  0  0  0  0
    2.4912   53.8839   29.3623 H   0  0  0  0  0  0
    6.0989   54.3831   29.2751 H   0  0  0  0  0  0
    7.4862   54.2640   27.2509 H   0  0  0  0  0  0
    2.5473   54.4959   26.8409 H   0  0  0  0  0  0
    2.6209   54.5532   22.8695 H   0  0  0  0  0  0
    2.1624   55.2968   24.3378 H   0  0  0  0  0  0
    0.5767   53.6274   22.6662 H   0  0  0  0  0  0
   -4.6733   51.2981   23.2957 H   0  0  0  0  0  0
   -4.6493   52.1765   24.8174 H   0  0  0  0  0  0
   -4.0213   48.7378   23.3647 H   0  0  0  0  0  0
   -4.1420   47.8953   24.8647 H   0  0  0  0  0  0
   -2.0736   48.7486   25.7463 H   0  0  0  0  0  0
   -1.7533   48.2039   24.1161 H   0  0  0  0  0  0
   -6.4510   49.6226   23.9800 H   0  0  0  0  0  0
   -6.3638   48.8622   25.5645 H   0  0  0  0  0  0
   -6.6473   50.5905   25.4376 H   0  0  0  0  0  0
   -0.0168   48.7823   25.6081 H   0  0  0  0  0  0
    1.5232   48.2917   24.9105 H   0  0  0  0  0  0
    3.9469   53.2049   21.7386 H   0  0  0  0  0  0
    4.3894   53.4506   19.3354 H   0  0  0  0  0  0
    7.3678   55.6593   22.6115 H   0  0  0  0  0  0
    8.7571   55.3951   19.3249 H   0  0  0  0  0  0
    7.9833   56.9534   19.5710 H   0  0  0  0  0  0
    8.9349   56.1856   20.8744 H   0  0  0  0  0  0
  1  2  1  0  0  0
  1 37  1  0  0  0
  1 38  1  0  0  0
  1 39  1  0  0  0
  2 10  2  0  0  0
  2  3  1  0  0  0
  3  4  2  0  0  0
  3 40  1  0  0  0
  4  5  1  0  0  0
  4 41  1  0  0  0
  5  9  1  0  0  0
  5  6  2  0  0  0
  6  7  1  0  0  0
  7  8  2  0  0  0
  7 29  1  0  0  0
  8  9  1  0  0  0
  8 11  1  0  0  0
  9 10  1  0  0  0
 10 42  1  0  0  0
 11 12  1  0  0  0
 11 43  1  0  0  0
 11 44  1  0  0  0
 12 13  2  0  0  0
 12 14  1  0  0  0
 14 15  1  0  0  0
 14 45  1  0  0  0
 15 19  1  0  0  0
 15 16  2  0  0  0
 16 17  1  0  0  0
 16 26  1  0  0  0
 17 24  1  0  0  0
 17 18  2  0  0  0
 18 19  1  0  0  0
 18 20  1  0  0  0
 20 21  1  0  0  0
 20 46  1  0  0  0
 20 47  1  0  0  0
 21 22  1  0  0  0
 21 23  1  0  0  0
 21 25  1  0  0  0
 23 24  1  0  0  0
 23 48  1  0  0  0
 23 49  1  0  0  0
 24 50  1  0  0  0
 24 51  1  0  0  0
 25 52  1  0  0  0
 25 53  1  0  0  0
 25 54  1  0  0  0
 26 27  2  0  0  0
 26 28  1  0  0  0
 28 55  1  0  0  0
 28 56  1  0  0  0
 29 34  2  0  0  0
 29 30  1  0  0  0
 30 31  2  0  0  0
 30 57  1  0  0  0
 31 32  1  0  0  0
 31 58  1  0  0  0
 32 33  2  0  0  0
 32 36  1  0  0  0
 33 34  1  0  0  0
 33 35  1  0  0  0
 34 59  1  0  0  0
 35 60  1  0  0  0
 35 61  1  0  0  0
 35 62  1  0  0  0
M  END
> <i_i_glide_confnum>
39

> <i_i_glide_lignum>
4561

> <i_i_glide_posenum>
191

> <i_i_glide_rotatable_bonds>
6

> <i_m_Source_File_Index>
4441

> <b_m_subgroup_collapsed>
0

> <r_i_docking_score>
-6.89972

> <r_i_glide_ecoul>
-3.50936

> <r_i_glide_eff_state_penalty>
0

> <r_i_glide_einternal>
8.6993

> <r_i_glide_emodel>
-67.8758

> <r_i_glide_energy>
-51.5516

> <r_i_glide_erotb>
0.422791

> <r_i_glide_esite>
-0.0442167

> <r_i_glide_evdw>
-48.0422

> <r_i_glide_gscore>
-6.89972

> <r_i_glide_hbond>
-0.32

> <r_i_glide_ligand_efficiency>
-0.197135

> <r_i_glide_ligand_efficiency_ln>
-1.51464

> <r_i_glide_ligand_efficiency_sa>
-0.644841

> <r_i_glide_lipo>
-2.87344

> <r_i_glide_metal>
0

> <r_i_glide_rewards>
-1.15634

> <s_i_glide_gridfile>
wee1_glide-grid

> <s_m_Source_File>
wee1_decoys_glide_SP.sdf

> <s_m_Source_Path>
/Users/zhangxujun/Desktop

> <s_m_entry_id>
4716

> <s_m_entry_name>
wee1_decoys_glide_SP.4441

> <s_m_subgroup_title>
wee1_decoys_glide_SP

> <s_m_subgroupid>
wee1_decoys_glide_SP


$$$$
