@<TRIPOS>MOLECULE
ZINC51125003_1862
31   32    1
SMALL
USER_CHARGES


@<TRIPOS>ATOM
      1 C1          6.7044   54.7435   23.4258 C.3       1 UNK         0.0000 
      2 C2          5.2473   54.3491   23.4152 C.2       1 UNK         0.0000 
      3 C3          4.4272   54.0899   22.3062 C.2       1 UNK         0.0000 
      4 S4          2.8400   53.6967   22.9128 S.3       1 UNK         0.0000 
      5 C5          3.4324   53.8819   24.5222 C.2       1 UNK         0.0000 
      6 N6          4.6893   54.2362   24.6064 N.2       1 UNK         0.0000 
      7 N7          2.5785   53.5389   25.5551 N.am      1 UNK         0.0000 
      8 C8          2.7901   53.6967   26.8819 C.2       1 UNK         0.0000 
      9 O9          3.7762   54.2591   27.3649 O.2       1 UNK         0.0000 
     10 C10         1.7106   53.1294   27.7833 C.ar      1 UNK         0.0000 
     11 C11         0.4869   52.6605   27.2738 C.ar      1 UNK         0.0000 
     12 C12        -0.4684   52.1300   28.1370 C.ar      1 UNK         0.0000 
     13 N13        -0.2608   52.0417   29.4774 N.ar      1 UNK         0.0000 
     14 C14         0.9146   52.4967   29.9796 C.ar      1 UNK         0.0000 
     15 C15         1.9142   53.0408   29.1693 C.ar      1 UNK         0.0000 
     16 Cl16        1.1792   52.3941   31.6816 Cl        1 UNK         0.0000 
     17 N17        -1.6881   51.6967   27.6032 N.pl3     1 UNK         0.0000 
     18 N18        -2.6537   50.8967   28.3207 N.3       1 UNK         0.0000 
     19 C19         4.7215   54.0967   20.8239 C.3       1 UNK         0.0000 
     20 H20         7.3204   54.0027   23.9375 H         1 UNK         0.0000 
     21 H21         7.1181   54.8502   22.4236 H         1 UNK         0.0000 
     22 H22         6.8663   55.6967   23.9304 H         1 UNK         0.0000 
     23 H23         0.2561   52.7013   26.2201 H         1 UNK         0.0000 
     24 H24         2.8379   53.3821   29.6146 H         1 UNK         0.0000 
     25 H25        -1.9577   51.8604   26.6427 H         1 UNK         0.0000 
     26 H26        -2.2530   49.9638   28.4818 H         1 UNK         0.0000 
     27 H27        -2.8938   51.3525   29.1894 H         1 UNK         0.0000 
     28 H28         5.7226   54.4608   20.5957 H         1 UNK         0.0000 
     29 H29         4.6415   53.0963   20.3974 H         1 UNK         0.0000 
     30 H30         4.0211   54.7303   20.2793 H         1 UNK         0.0000 
     31 H31         1.6890   53.1595   25.2739 H         1 UNK         0.0000 
@<TRIPOS>BOND
     1    1    2 1    
     2    1   20 1    
     3    1   21 1    
     4    1   22 1    
     5    2    6 1    
     6    2    3 2    
     7    3    4 1    
     8    3   19 1    
     9    4    5 1    
    10    5    6 2    
    11    5    7 am   BACKBONE|DICT|INTERRES
    12    7    8 am   BACKBONE|DICT|INTERRES
    13    7   31 1    
    14    8    9 2    
    15    8   10 1    
    16   10   15 ar   
    17   10   11 ar   
    18   11   12 ar   
    19   11   23 1    
    20   12   13 ar   
    21   12   17 1    
    22   13   14 ar   
    23   14   15 ar   
    24   14   16 1    
    25   15   24 1    
    26   17   18 1    
    27   17   25 1    
    28   18   26 1    
    29   18   27 1    
    30   19   28 1    
    31   19   29 1    
    32   19   30 1    
@<TRIPOS>SUBSTRUCTURE
     1 UNK         1 GROUP             0       ****    0 ROOT    
