@<TRIPOS>MOLECULE
ZINC39836545_5313
62   65    1
SMALL
USER_CHARGES


@<TRIPOS>ATOM
      1 C1          1.4658   55.3261   30.2243 C.3       1 UNK         0.0000 
      2 C2          1.2967   53.8709   29.7159 C.3       1 UNK         0.0000 
      3 C3          2.2840   52.9412   30.4689 C.3       1 UNK         0.0000 
      4 C4         -0.1303   53.4261   30.1169 C.3       1 UNK         0.0000 
      5 C5          1.5002   53.8344   28.1505 C.3       1 UNK         0.0000 
      6 H6          0.9368   54.6853   27.7619 H         1 UNK         0.0000 
      7 C7          1.0346   52.5269   27.4565 C.3       1 UNK         0.0000 
      8 C8          0.9478   52.6797   25.9236 C.3       1 UNK         0.0000 
      9 C9          2.2201   53.3260   25.3800 C.2       1 UNK         0.0000 
     10 C10         3.1360   53.9589   26.2330 C.2       1 UNK         0.0000 
     11 S11         4.5443   54.4969   25.3916 S.3       1 UNK         0.0000 
     12 C12         3.8974   53.9392   23.8683 C.2       1 UNK         0.0000 
     13 C13         2.6527   53.2977   24.0325 C.2       1 UNK         0.0000 
     14 C14         1.8391   52.7644   22.9563 C.2       1 UNK         0.0000 
     15 O15         0.6155   52.8918   22.9440 O.2       1 UNK         0.0000 
     16 N16         2.5294   52.1152   22.0040 N.am      1 UNK         0.0000 
     17 C17         1.9667   51.5081   20.8016 C.3       1 UNK         0.0000 
     18 H18         1.5465   52.2670   20.1355 H         1 UNK         0.0000 
     19 C19         3.1005   50.7809   20.0458 C.3       1 UNK         0.0000 
     20 C20         2.4933   49.9554   18.9062 C.3       1 UNK         0.0000 
     21 S21         0.9043   49.2807   19.6207 S.o2      1 UNK         0.0000 
     22 O22        -0.2078   49.6294   18.7323 O.2       1 UNK         0.0000 
     23 O23         1.0880   47.9035   20.0784 O.2       1 UNK         0.0000 
     24 C24         0.9083   50.4253   21.1032 C.3       1 UNK         0.0000 
     25 N25         4.5253   54.2036   22.6555 N.am      1 UNK         0.0000 
     26 C26         5.8224   54.4968   22.4278 C.2       1 UNK         0.0000 
     27 O27         6.7044   54.4669   23.2875 O.2       1 UNK         0.0000 
     28 C28         6.1556   54.8968   21.0051 C.ar      1 UNK         0.0000 
     29 C29         5.3311   54.5336   19.9224 C.ar      1 UNK         0.0000 
     30 C30         5.6635   54.9025   18.6210 C.ar      1 UNK         0.0000 
     31 C31         6.8193   55.6355   18.3744 C.ar      1 UNK         0.0000 
     32 C32         7.6491   55.9987   19.4317 C.ar      1 UNK         0.0000 
     33 C33         7.3208   55.6351   20.7391 C.ar      1 UNK         0.0000 
     34 Cl34        9.0899   56.8951   19.1153 Cl        1 UNK         0.0000 
     35 C35         2.9826   54.1064   27.7412 C.3       1 UNK         0.0000 
     36 H36         0.8086   56.0178   29.6919 H         1 UNK         0.0000 
     37 H37         1.2099   55.4216   31.2799 H         1 UNK         0.0000 
     38 H38         2.4855   55.6925   30.0987 H         1 UNK         0.0000 
     39 H39         2.2887   51.9378   30.0433 H         1 UNK         0.0000 
     40 H40         3.3086   53.3131   30.4446 H         1 UNK         0.0000 
     41 H41         2.0135   52.8336   31.5201 H         1 UNK         0.0000 
     42 H42        -0.3144   52.3689   29.9229 H         1 UNK         0.0000 
     43 H43        -0.3123   53.5595   31.1859 H         1 UNK         0.0000 
     44 H44        -0.8893   54.0058   29.5900 H         1 UNK         0.0000 
     45 H45         1.6516   51.6786   27.7591 H         1 UNK         0.0000 
     46 H46         0.0304   52.2552   27.7778 H         1 UNK         0.0000 
     47 H47         0.0937   53.2934   25.6381 H         1 UNK         0.0000 
     48 H48         0.7723   51.7011   25.4751 H         1 UNK         0.0000 
     49 H49         3.5226   52.0073   22.1266 H         1 UNK         0.0000 
     50 H50         3.8480   51.4824   19.6701 H         1 UNK         0.0000 
     51 H51         3.6404   50.1189   20.7241 H         1 UNK         0.0000 
     52 H52         2.2285   50.6290   18.0893 H         1 UNK         0.0000 
     53 H53         3.1043   49.1589   18.4818 H         1 UNK         0.0000 
     54 H54         1.3294   49.8000   21.8919 H         1 UNK         0.0000 
     55 H55        -0.0843   50.7182   21.4401 H         1 UNK         0.0000 
     56 H56         3.9528   54.0626   21.8365 H         1 UNK         0.0000 
     57 H57         4.4299   53.9542   20.0643 H         1 UNK         0.0000 
     58 H58         5.0230   54.6079   17.7998 H         1 UNK         0.0000 
     59 H59         7.0744   55.9149   17.3643 H         1 UNK         0.0000 
     60 H60         7.9907   55.9142   21.5435 H         1 UNK         0.0000 
     61 H61         3.6513   53.3844   28.2090 H         1 UNK         0.0000 
     62 H62         3.3007   55.1004   28.0561 H         1 UNK         0.0000 
@<TRIPOS>BOND
     1    1    2 1    
     2    1   36 1    
     3    1   37 1    
     4    1   38 1    
     5    2    3 1    
     6    2    4 1    
     7    2    5 1    
     8    3   39 1    
     9    3   40 1    
    10    3   41 1    
    11    4   42 1    
    12    4   43 1    
    13    4   44 1    
    14    5    6 1    
    15    5   35 1    
    16    5    7 1    
    17    7    8 1    
    18    7   45 1    
    19    7   46 1    
    20    8    9 1    
    21    8   47 1    
    22    8   48 1    
    23    9   13 1    
    24    9   10 2    
    25   10   11 1    
    26   10   35 1    
    27   11   12 1    
    28   12   13 2    
    29   12   25 am   BACKBONE|DICT|INTERRES
    30   13   14 1    
    31   14   15 2    
    32   14   16 am   BACKBONE|DICT|INTERRES
    33   16   17 1    
    34   16   49 1    
    35   17   18 1    
    36   17   24 1    
    37   17   19 1    
    38   19   20 1    
    39   19   50 1    
    40   19   51 1    
    41   20   21 1    
    42   20   52 1    
    43   20   53 1    
    44   21   22 2    
    45   21   23 2    
    46   21   24 1    
    47   24   54 1    
    48   24   55 1    
    49   25   26 am   BACKBONE|DICT|INTERRES
    50   25   56 1    
    51   26   27 2    
    52   26   28 1    
    53   28   33 ar   
    54   28   29 ar   
    55   29   30 ar   
    56   29   57 1    
    57   30   31 ar   
    58   30   58 1    
    59   31   32 ar   
    60   31   59 1    
    61   32   33 ar   
    62   32   34 1    
    63   33   60 1    
    64   35   61 1    
    65   35   62 1    
@<TRIPOS>SUBSTRUCTURE
     1 UNK         1 GROUP             0       ****    0 ROOT    
