@<TRIPOS>MOLECULE
ZINC08754498_918
61   63    1
SMALL
USER_CHARGES


@<TRIPOS>ATOM
      1 C1          6.3484   55.0608   23.2926 C.3       1 UNK         0.0000 
      2 C2          5.6967   54.7743   24.6335 C.ar      1 UNK         0.0000 
      3 C3          4.5090   54.0468   24.7038 C.ar      1 UNK         0.0000 
      4 C4          3.9734   53.6992   25.9440 C.ar      1 UNK         0.0000 
      5 C5          4.5918   54.1328   27.1168 C.ar      1 UNK         0.0000 
      6 C6          5.7621   54.8966   27.0406 C.ar      1 UNK         0.0000 
      7 C7          6.3038   55.2245   25.8017 C.ar      1 UNK         0.0000 
      8 S8          3.9403   53.6925   28.7371 S.o2      1 UNK         0.0000 
      9 O9          4.6727   54.5342   29.6827 O.2       1 UNK         0.0000 
     10 O10         3.9599   52.2342   28.8820 O.2       1 UNK         0.0000 
     11 N11         2.2399   54.2140   28.8423 N.pl3     1 UNK         0.0000 
     12 C12         1.9447   55.6337   28.7222 C.3       1 UNK         0.0000 
     13 C13         1.1574   53.3183   28.7663 C.ar      1 UNK         0.0000 
     14 C14         0.6880   52.8956   27.5210 C.ar      1 UNK         0.0000 
     15 C15        -0.4372   52.0726   27.4058 C.ar      1 UNK         0.0000 
     16 C16        -1.1381   51.6967   28.5630 C.ar      1 UNK         0.0000 
     17 C17        -0.6267   52.0592   29.8111 C.ar      1 UNK         0.0000 
     18 C18         0.5077   52.8632   29.9252 C.ar      1 UNK         0.0000 
     19 C19         0.9872   53.2486   31.3135 C.3       1 UNK         0.0000 
     20 C20        -2.4700   50.9545   28.5163 C.3       1 UNK         0.0000 
     21 S21        -0.9283   51.5237   25.7673 S.o2      1 UNK         0.0000 
     22 O22         0.0189   52.0934   24.8011 O.2       1 UNK         0.0000 
     23 O23        -2.3680   51.7628   25.6205 O.2       1 UNK         0.0000 
     24 N24        -0.6789   49.7639   25.7801 N.pl3     1 UNK         0.0000 
     25 C25        -1.0032   48.9777   24.6678 C.ar      1 UNK         0.0000 
     26 C26        -0.6313   49.3534   23.3753 C.ar      1 UNK         0.0000 
     27 C27        -0.9831   48.5601   22.2878 C.ar      1 UNK         0.0000 
     28 C28        -1.6960   47.3755   22.4804 C.ar      1 UNK         0.0000 
     29 C29        -2.0621   46.9920   23.7805 C.ar      1 UNK         0.0000 
     30 C30        -1.7054   47.7884   24.8691 C.ar      1 UNK         0.0000 
     31 N31        -2.0200   46.6582   21.3137 N.am      1 UNK         0.0000 
     32 C32        -2.3997   45.3720   21.1732 C.2       1 UNK         0.0000 
     33 O33        -2.4951   44.5475   22.0815 O.2       1 UNK         0.0000 
     34 C34        -2.7052   44.9299   19.7469 C.3       1 UNK         0.0000 
     35 H35         5.6574   54.9053   22.4635 H         1 UNK         0.0000 
     36 H36         6.7031   56.0910   23.2448 H         1 UNK         0.0000 
     37 H37         7.2145   54.4139   23.1535 H         1 UNK         0.0000 
     38 H38         4.0325   53.6919   23.8014 H         1 UNK         0.0000 
     39 H39         3.1072   53.0619   25.9796 H         1 UNK         0.0000 
     40 H40         6.2596   55.2401   27.9373 H         1 UNK         0.0000 
     41 H41         7.1949   55.8241   25.7443 H         1 UNK         0.0000 
     42 H42         1.0677   55.9069   29.3089 H         1 UNK         0.0000 
     43 H43         2.7789   56.2414   29.0730 H         1 UNK         0.0000 
     44 H44         1.7590   55.8798   27.6819 H         1 UNK         0.0000 
     45 H45         1.1714   53.2501   26.6275 H         1 UNK         0.0000 
     46 H46        -1.1389   51.7330   30.7076 H         1 UNK         0.0000 
     47 H47         1.9755   52.8260   31.4960 H         1 UNK         0.0000 
     48 H48         1.0599   54.3333   31.3861 H         1 UNK         0.0000 
     49 H49         0.3103   52.9075   32.0997 H         1 UNK         0.0000 
     50 H50        -2.7036   50.4964   29.4777 H         1 UNK         0.0000 
     51 H51        -3.2711   51.6491   28.2648 H         1 UNK         0.0000 
     52 H52        -2.4932   50.1582   27.7739 H         1 UNK         0.0000 
     53 H53        -0.8931   49.3310   26.6737 H         1 UNK         0.0000 
     54 H54        -0.0680   50.2562   23.1996 H         1 UNK         0.0000 
     55 H55        -0.6900   48.8754   21.2969 H         1 UNK         0.0000 
     56 H56        -2.6327   46.0972   23.9641 H         1 UNK         0.0000 
     57 H57        -1.9840   47.4896   25.8709 H         1 UNK         0.0000 
     58 H58        -1.9045   47.1803   20.4588 H         1 UNK         0.0000 
     59 H59        -3.7844   44.8745   19.5983 H         1 UNK         0.0000 
     60 H60        -2.2829   43.9423   19.5597 H         1 UNK         0.0000 
     61 H61        -2.2923   45.6207   19.0103 H         1 UNK         0.0000 
@<TRIPOS>BOND
     1    1    2 1    
     2    1   35 1    
     3    1   36 1    
     4    1   37 1    
     5    2    7 ar   
     6    2    3 ar   
     7    3    4 ar   
     8    3   38 1    
     9    4    5 ar   
    10    4   39 1    
    11    5    6 ar   
    12    5    8 1    
    13    6    7 ar   
    14    6   40 1    
    15    7   41 1    
    16    8    9 2    
    17    8   10 2    
    18    8   11 1    
    19   11   12 1    
    20   11   13 1    
    21   12   42 1    
    22   12   43 1    
    23   12   44 1    
    24   13   18 ar   
    25   13   14 ar   
    26   14   15 ar   
    27   14   45 1    
    28   15   16 ar   
    29   15   21 1    
    30   16   17 ar   
    31   16   20 1    
    32   17   18 ar   
    33   17   46 1    
    34   18   19 1    
    35   19   47 1    
    36   19   48 1    
    37   19   49 1    
    38   20   50 1    
    39   20   51 1    
    40   20   52 1    
    41   21   22 2    
    42   21   23 2    
    43   21   24 1    
    44   24   25 1    
    45   24   53 1    
    46   25   30 ar   
    47   25   26 ar   
    48   26   27 ar   
    49   26   54 1    
    50   27   28 ar   
    51   27   55 1    
    52   28   29 ar   
    53   28   31 1    
    54   29   30 ar   
    55   29   56 1    
    56   30   57 1    
    57   31   32 am   BACKBONE|DICT|INTERRES
    58   31   58 1    
    59   32   33 2    
    60   32   34 1    
    61   34   59 1    
    62   34   60 1    
    63   34   61 1    
@<TRIPOS>SUBSTRUCTURE
     1 UNK         1 GROUP             0       ****    0 ROOT    
