ZINC59310292_4510
                    3D
 Schrodinger Suite 2024-2.
 61 66  0  0  1  0            999 V2000
    0.5706   49.5727   24.5803 C   0  0  0  0  0  0
   -0.9133   49.4709   24.1985 C   0  0  1  0  0  0
   -1.3134   48.5983   24.7232 H   0  0  0  0  0  0
   -1.6852   50.7041   24.6929 C   0  0  0  0  0  0
   -1.9147   51.8059   23.8572 C   0  0  0  0  0  0
   -2.6549   52.8912   24.3186 C   0  0  0  0  0  0
   -3.1627   52.8804   25.6165 C   0  0  0  0  0  0
   -2.9350   51.7926   26.4561 C   0  0  0  0  0  0
   -2.1997   50.7047   25.9935 C   0  0  0  0  0  0
   -1.0359   49.1819   22.7635 N   0  0  0  0  0  0
   -2.1728   48.8520   22.1192 C   0  0  0  0  0  0
   -3.2625   48.7570   22.6834 O   0  0  0  0  0  0
   -2.0859   48.6100   20.6084 C   0  0  0  0  0  0
   -0.7404   47.4872   20.0817 S   0  0  0  0  0  0
    0.5509   48.6263   19.6803 C   0  0  0  0  0  0
    0.5692   49.8899   20.0960 N   0  0  0  0  0  0
    1.6804   50.3474   19.5835 C   0  0  0  0  0  0
    2.3046   49.3620   18.8817 N   0  0  0  0  0  0
    1.5813   48.2444   18.9491 N   0  0  0  0  0  0
    2.2069   51.6062   19.7385 N   0  0  0  0  0  0
    2.8276   52.0165   20.9192 N   0  0  0  0  0  0
    3.4420   53.1260   20.8936 C   0  0  0  0  0  0
    4.1556   53.6649   22.0594 C   0  0  0  0  0  0
    5.4572   54.1067   21.8258 C   0  0  0  0  0  0
    6.2956   54.5157   22.8492 C   0  0  0  0  0  0
    5.8617   54.5135   24.1869 C   0  0  0  0  0  0
    6.7043   54.8955   25.2440 C   0  0  0  0  0  0
    6.2681   54.8810   26.5578 C   0  0  0  0  0  0
    4.9551   54.4879   26.8788 C   0  0  0  0  0  0
    4.4732   54.4555   28.2085 C   0  0  0  0  0  0
    3.1692   54.0669   28.4878 C   0  0  0  0  0  0
    2.3012   53.6927   27.4706 C   0  0  0  0  0  0
    2.7150   53.6947   26.1183 C   0  0  0  0  0  0
    4.0607   54.1007   25.8169 C   0  0  0  0  0  0
    4.5123   54.1089   24.4688 C   0  0  0  0  0  0
    3.6311   53.6966   23.3989 C   0  0  0  0  0  0
    2.3044   53.3277   23.7490 C   0  0  0  0  0  0
    1.8652   53.3199   25.0623 C   0  0  0  0  0  0
    0.6980   49.6696   25.6601 H   0  0  0  0  0  0
    1.1044   48.6736   24.2739 H   0  0  0  0  0  0
    1.0568   50.4251   24.1044 H   0  0  0  0  0  0
   -1.5249   51.8201   22.8505 H   0  0  0  0  0  0
   -2.8319   53.7402   23.6754 H   0  0  0  0  0  0
   -3.7329   53.7250   25.9772 H   0  0  0  0  0  0
   -3.3290   51.7855   27.4613 H   0  0  0  0  0  0
   -2.0338   49.8610   26.6503 H   0  0  0  0  0  0
   -0.1720   49.1587   22.2404 H   0  0  0  0  0  0
   -3.0198   48.1425   20.2972 H   0  0  0  0  0  0
   -2.0432   49.5607   20.0797 H   0  0  0  0  0  0
    2.3073   52.2507   18.9670 H   0  0  0  0  0  0
    3.5047   53.7366   19.9954 H   0  0  0  0  0  0
    5.8599   54.0998   20.8218 H   0  0  0  0  0  0
    7.3075   54.8240   22.6244 H   0  0  0  0  0  0
    7.7128   55.1932   25.0027 H   0  0  0  0  0  0
    6.9380   55.1714   27.3556 H   0  0  0  0  0  0
    5.1348   54.7443   29.0133 H   0  0  0  0  0  0
    2.8247   54.0539   29.5103 H   0  0  0  0  0  0
    1.2911   53.3908   27.7076 H   0  0  0  0  0  0
    1.6094   53.0309   22.9786 H   0  0  0  0  0  0
    0.8519   53.0163   25.2852 H   0  0  0  0  0  0
    3.1704   49.4435   18.3509 H   0  0  0  0  0  0
  1  2  1  0  0  0
  1 39  1  0  0  0
  1 40  1  0  0  0
  1 41  1  0  0  0
  2  3  1  0  0  0
  2  4  1  0  0  0
  2 10  1  0  0  0
  4  9  2  0  0  0
  4  5  1  0  0  0
  5  6  2  0  0  0
  5 42  1  0  0  0
  6  7  1  0  0  0
  6 43  1  0  0  0
  7  8  2  0  0  0
  7 44  1  0  0  0
  8  9  1  0  0  0
  8 45  1  0  0  0
  9 46  1  0  0  0
 10 11  1  0  0  0
 10 47  1  0  0  0
 11 12  2  0  0  0
 11 13  1  0  0  0
 13 14  1  0  0  0
 13 48  1  0  0  0
 13 49  1  0  0  0
 14 15  1  0  0  0
 15 19  2  0  0  0
 15 16  1  0  0  0
 16 17  2  0  0  0
 17 18  1  0  0  0
 17 20  1  0  0  0
 18 19  1  0  0  0
 18 61  1  0  0  0
 20 21  1  0  0  0
 20 50  1  0  0  0
 21 22  2  0  0  0
 22 23  1  0  0  0
 22 51  1  0  0  0
 23 36  2  0  0  0
 23 24  1  0  0  0
 24 25  2  0  0  0
 24 52  1  0  0  0
 25 26  1  0  0  0
 25 53  1  0  0  0
 26 35  2  0  0  0
 26 27  1  0  0  0
 27 28  2  0  0  0
 27 54  1  0  0  0
 28 29  1  0  0  0
 28 55  1  0  0  0
 29 34  2  0  0  0
 29 30  1  0  0  0
 30 31  2  0  0  0
 30 56  1  0  0  0
 31 32  1  0  0  0
 31 57  1  0  0  0
 32 33  2  0  0  0
 32 58  1  0  0  0
 33 38  1  0  0  0
 33 34  1  0  0  0
 34 35  1  0  0  0
 35 36  1  0  0  0
 36 37  1  0  0  0
 37 38  2  0  0  0
 37 59  1  0  0  0
 38 60  1  0  0  0
M  END
> <i_i_glide_confnum>
15

> <i_i_glide_lignum>
4511

> <i_i_glide_posenum>
34

> <i_i_glide_rotatable_bonds>
9

> <i_m_Source_File_Index>
3690

> <b_m_subgroup_collapsed>
0

> <r_i_docking_score>
-6.86507

> <r_i_glide_ecoul>
-3.49782

> <r_i_glide_eff_state_penalty>
0

> <r_i_glide_einternal>
5.28589

> <r_i_glide_emodel>
-71.2071

> <r_i_glide_energy>
-51.1703

> <r_i_glide_erotb>
0.562132

> <r_i_glide_esite>
-0.16951

> <r_i_glide_evdw>
-47.6725

> <r_i_glide_gscore>
-6.86507

> <r_i_glide_hbond>
-0.188826

> <r_i_glide_ligand_efficiency>
-0.185543

> <r_i_glide_ligand_efficiency_ln>
-1.48887

> <r_i_glide_ligand_efficiency_sa>
-0.618269

> <r_i_glide_lipo>
-4.01641

> <r_i_glide_metal>
0

> <r_i_glide_rewards>
-0.144167

> <s_i_glide_gridfile>
wee1_glide-grid

> <s_m_Source_File>
wee1_decoys_glide_SP.sdf

> <s_m_Source_Path>
/Users/zhangxujun/Desktop

> <s_m_entry_id>
3965

> <s_m_entry_name>
wee1_decoys_glide_SP.3690

> <s_m_subgroup_title>
wee1_decoys_glide_SP

> <s_m_subgroupid>
wee1_decoys_glide_SP


$$$$
