@<TRIPOS>MOLECULE
ZINC39624103_2152
59   61    1
SMALL
USER_CHARGES


@<TRIPOS>ATOM
      1 C1          2.7043   53.4716   29.4897 C.3       1 UNK         0.0000 
      2 C2          3.4385   53.8237   28.1891 C.3       1 UNK         0.0000 
      3 C3          2.6323   53.4629   26.9281 C.3       1 UNK         0.0000 
      4 C4          3.3953   53.7682   25.6290 C.3       1 UNK         0.0000 
      5 N5          2.6828   53.2967   24.4452 N.am      1 UNK         0.0000 
      6 C6          3.1044   53.4732   23.1800 C.2       1 UNK         0.0000 
      7 O7          4.1335   54.0967   22.9270 O.2       1 UNK         0.0000 
      8 C8          2.2465   52.9047   22.0086 C.3       1 UNK         0.0000 
      9 H9          2.1886   53.6967   21.2817 H         1 UNK         0.0000 
     10 C10         0.8215   52.5238   22.4346 C.3       1 UNK         0.0000 
     11 N11         0.9466   51.1114   22.8239 N.am      1 UNK         0.0000 
     12 C12         2.1772   50.5133   22.2687 C.3       1 UNK         0.0000 
     13 C13         2.7933   51.6014   21.3561 C.3       1 UNK         0.0000 
     14 C14         2.2191   51.3333   19.9248 C.3       1 UNK         0.0000 
     15 C15         2.6296   52.4028   18.8890 C.3       1 UNK         0.0000 
     16 N16         4.1693   52.4967   18.8516 N.4       1 UNK         0.0000 
     17 C17         4.8405   52.6280   20.2290 C.3       1 UNK         0.0000 
     18 C18         4.3254   51.4852   21.1368 C.3       1 UNK         0.0000 
     19 C19         0.2472   50.4852   23.8120 C.2       1 UNK         0.0000 
     20 O20         0.5628   49.3603   24.2031 O.2       1 UNK         0.0000 
     21 C21        -0.9107   51.1913   24.4998 C.ar      1 UNK         0.0000 
     22 C22        -1.7604   52.0847   23.8255 C.ar      1 UNK         0.0000 
     23 C23        -2.7726   52.7606   24.5022 C.ar      1 UNK         0.0000 
     24 C24        -3.0161   52.4967   25.8490 C.ar      1 UNK         0.0000 
     25 C25        -2.1973   51.5919   26.5336 C.ar      1 UNK         0.0000 
     26 C26        -1.1627   50.9395   25.8593 C.ar      1 UNK         0.0000 
     27 Cl27       -2.4314   51.2967   28.2206 Cl        1 UNK         0.0000 
     28 O28        -4.0448   53.1484   26.4817 O.3       1 UNK         0.0000 
     29 C29        -5.2707   52.4276   26.4882 C.3       1 UNK         0.0000 
     30 Cl30       -3.6956   53.9644   23.6817 Cl        1 UNK         0.0000 
     31 H31         3.3259   53.6967   30.3560 H         1 UNK         0.0000 
     32 H32         2.4569   52.4100   29.5301 H         1 UNK         0.0000 
     33 H33         1.7754   54.0350   29.5871 H         1 UNK         0.0000 
     34 H34         3.6751   54.8891   28.1854 H         1 UNK         0.0000 
     35 H35         4.3957   53.2993   28.1724 H         1 UNK         0.0000 
     36 H36         2.3749   52.4030   26.9592 H         1 UNK         0.0000 
     37 H37         1.6867   54.0078   26.9313 H         1 UNK         0.0000 
     38 H38         3.5970   54.8397   25.5619 H         1 UNK         0.0000 
     39 H39         4.3799   53.2967   25.6696 H         1 UNK         0.0000 
     40 H40         1.8547   52.7437   24.6059 H         1 UNK         0.0000 
     41 H41         0.4642   53.2117   23.2028 H         1 UNK         0.0000 
     42 H42         0.2097   52.6164   21.5366 H         1 UNK         0.0000 
     43 H43         2.0675   49.5370   21.7934 H         1 UNK         0.0000 
     44 H44         2.8595   50.3548   23.1021 H         1 UNK         0.0000 
     45 H45         2.5015   50.3401   19.5663 H         1 UNK         0.0000 
     46 H46         1.1292   51.3081   19.9498 H         1 UNK         0.0000 
     47 H47         2.3229   52.1353   17.8763 H         1 UNK         0.0000 
     48 H48         2.2682   53.4025   19.1090 H         1 UNK         0.0000 
     49 H49         4.5399   51.6103   18.4713 H         1 UNK         0.0000 
     50 H50         5.9044   52.5485   20.0258 H         1 UNK         0.0000 
     51 H51         4.6165   53.6353   20.5766 H         1 UNK         0.0000 
     52 H52         4.8608   51.5443   22.0817 H         1 UNK         0.0000 
     53 H53         4.5875   50.5117   20.7231 H         1 UNK         0.0000 
     54 H54        -1.6505   52.2767   22.7700 H         1 UNK         0.0000 
     55 H55        -0.5463   50.2420   26.4135 H         1 UNK         0.0000 
     56 H56        -6.0308   53.0116   27.0069 H         1 UNK         0.0000 
     57 H57        -5.6310   52.2394   25.4752 H         1 UNK         0.0000 
     58 H58        -5.1759   51.4720   27.0068 H         1 UNK         0.0000 
     59 H59         4.4764   53.2244   18.2217 H         1 UNK         0.0000 
@<TRIPOS>BOND
     1    1    2 1    
     2    1   31 1    
     3    1   32 1    
     4    1   33 1    
     5    2    3 1    
     6    2   34 1    
     7    2   35 1    
     8    3    4 1    
     9    3   36 1    
    10    3   37 1    
    11    4    5 1    
    12    4   38 1    
    13    4   39 1    
    14    5    6 am   BACKBONE|DICT|INTERRES
    15    5   40 1    
    16    6    7 2    
    17    6    8 1    
    18    8    9 1    
    19    8   13 1    
    20    8   10 1    
    21   10   11 1    
    22   10   41 1    
    23   10   42 1    
    24   11   12 1    
    25   11   19 am   BACKBONE|DICT|INTERRES
    26   12   13 1    
    27   12   43 1    
    28   12   44 1    
    29   13   18 1    
    30   13   14 1    
    31   14   15 1    
    32   14   45 1    
    33   14   46 1    
    34   15   16 1    
    35   15   47 1    
    36   15   48 1    
    37   16   17 1    
    38   16   49 1    
    39   16   59 1    
    40   17   18 1    
    41   17   50 1    
    42   17   51 1    
    43   18   52 1    
    44   18   53 1    
    45   19   20 2    
    46   19   21 1    
    47   21   26 ar   
    48   21   22 ar   
    49   22   23 ar   
    50   22   54 1    
    51   23   24 ar   
    52   23   30 1    
    53   24   25 ar   
    54   24   28 1    
    55   25   26 ar   
    56   25   27 1    
    57   26   55 1    
    58   28   29 1    
    59   29   56 1    
    60   29   57 1    
    61   29   58 1    
@<TRIPOS>SUBSTRUCTURE
     1 UNK         1 GROUP             0       ****    0 ROOT    
