@<TRIPOS>MOLECULE
ZINC40172995_3027
63   66    1
SMALL
USER_CHARGES


@<TRIPOS>ATOM
      1 C1         -0.6376   51.6984   29.0633 C.3       1 UNK         0.0000 
      2 C2         -0.8712   51.0375   27.6869 C.3       1 UNK         0.0000 
      3 C3         -0.4918   51.8811   26.4320 C.3       1 UNK         0.0000 
      4 H4         -1.0966   52.7833   26.4645 H         1 UNK         0.0000 
      5 C5          0.9630   52.4023   26.3869 C.2       1 UNK         0.0000 
      6 O6          1.7515   52.0958   27.2811 O.2       1 UNK         0.0000 
      7 N7          1.2858   53.1531   25.3095 N.am      1 UNK         0.0000 
      8 C8          2.5445   53.6593   25.0223 C.2       1 UNK         0.0000 
      9 C9          3.5783   54.1803   25.8347 C.2       1 UNK         0.0000 
     10 C10         4.7441   54.3792   25.0425 C.2       1 UNK         0.0000 
     11 C11         4.5420   54.1045   23.6766 C.2       1 UNK         0.0000 
     12 S12         2.9229   53.6276   23.3397 S.3       1 UNK         0.0000 
     13 C13         5.5598   54.3175   22.5609 C.3       1 UNK         0.0000 
     14 C14         6.9437   54.6417   23.1684 C.3       1 UNK         0.0000 
     15 C15         6.8384   55.5912   24.3703 C.3       1 UNK         0.0000 
     16 C16         6.0782   54.9489   25.5369 C.3       1 UNK         0.0000 
     17 C17         3.4545   54.4962   27.2669 C.2       1 UNK         0.0000 
     18 O18         2.4099   54.8966   27.7887 O.2       1 UNK         0.0000 
     19 O19         4.6014   54.2567   27.9430 O.3       1 UNK         0.0000 
     20 C20         4.6460   54.3721   29.3591 C.3       1 UNK         0.0000 
     21 C21         4.0410   53.1202   30.0232 C.3       1 UNK         0.0000 
     22 N22        -0.8598   51.1509   25.2004 N.pl3     1 UNK         0.0000 
     23 C23        -0.3042   49.9938   24.6812 C.ar      1 UNK         0.0000 
     24 N24        -0.8376   49.6753   23.5334 N.2       1 UNK         0.0000 
     25 N25        -1.8015   50.6363   23.2578 N.2       1 UNK         0.0000 
     26 C26        -1.8190   51.4860   24.2544 C.ar      1 UNK         0.0000 
     27 S27        -2.8715   52.8963   24.2837 S.3       1 UNK         0.0000 
     28 C28        -3.7877   52.4982   25.8043 C.3       1 UNK         0.0000 
     29 C29        -5.2751   52.7218   25.6193 C.ar      1 UNK         0.0000 
     30 C30        -6.0568   51.7240   25.0280 C.ar      1 UNK         0.0000 
     31 C31        -7.4265   51.9174   24.8714 C.ar      1 UNK         0.0000 
     32 C32        -8.0106   53.1055   25.3080 C.ar      1 UNK         0.0000 
     33 C33        -7.2349   54.1002   25.9018 C.ar      1 UNK         0.0000 
     34 C34        -5.8664   53.9092   26.0585 C.ar      1 UNK         0.0000 
     35 N35         0.7044   49.2965   25.2804 N.pl3     1 UNK         0.0000 
     36 H36        -1.2183   51.1925   29.8380 H         1 UNK         0.0000 
     37 H37         0.4107   51.6298   29.3618 H         1 UNK         0.0000 
     38 H38        -0.9004   52.7525   29.0717 H         1 UNK         0.0000 
     39 H39        -1.9195   50.7506   27.6221 H         1 UNK         0.0000 
     40 H40        -0.3215   50.0988   27.6796 H         1 UNK         0.0000 
     41 H41         0.6495   53.0879   24.5285 H         1 UNK         0.0000 
     42 H42         5.2521   55.1532   21.9282 H         1 UNK         0.0000 
     43 H43         5.6298   53.4412   21.9168 H         1 UNK         0.0000 
     44 H44         7.5817   55.0771   22.3978 H         1 UNK         0.0000 
     45 H45         7.4406   53.7192   23.4793 H         1 UNK         0.0000 
     46 H46         6.3083   56.4950   24.0790 H         1 UNK         0.0000 
     47 H47         7.8239   55.9152   24.7005 H         1 UNK         0.0000 
     48 H48         6.6683   54.1487   25.9842 H         1 UNK         0.0000 
     49 H49         5.9356   55.6960   26.3167 H         1 UNK         0.0000 
     50 H50         5.6861   54.4999   29.6550 H         1 UNK         0.0000 
     51 H51         4.1265   55.2749   29.6817 H         1 UNK         0.0000 
     52 H52         4.1264   53.1665   31.1073 H         1 UNK         0.0000 
     53 H53         2.9832   53.0077   29.7818 H         1 UNK         0.0000 
     54 H54         4.5515   52.2173   29.6848 H         1 UNK         0.0000 
     55 H55        -3.6229   51.4627   26.1059 H         1 UNK         0.0000 
     56 H56        -3.4217   53.1210   26.6196 H         1 UNK         0.0000 
     57 H57        -5.6035   50.8029   24.6887 H         1 UNK         0.0000 
     58 H58        -8.0343   51.1510   24.4110 H         1 UNK         0.0000 
     59 H59        -9.0720   53.2544   25.1820 H         1 UNK         0.0000 
     60 H60        -7.6999   55.0161   26.2350 H         1 UNK         0.0000 
     61 H61        -5.2668   54.6798   26.5197 H         1 UNK         0.0000 
     62 H62         1.1643   48.5164   24.8252 H         1 UNK         0.0000 
     63 H63         0.9080   49.4108   26.2623 H         1 UNK         0.0000 
@<TRIPOS>BOND
     1    1    2 1    
     2    1   36 1    
     3    1   37 1    
     4    1   38 1    
     5    2    3 1    
     6    2   39 1    
     7    2   40 1    
     8    3    4 1    
     9    3    5 1    
    10    3   22 1    
    11    5    6 2    
    12    5    7 am   BACKBONE|DICT|INTERRES
    13    7    8 am   BACKBONE|DICT|INTERRES
    14    7   41 1    
    15    8   12 1    
    16    8    9 2    
    17    9   10 1    
    18    9   17 1    
    19   10   16 1    
    20   10   11 2    
    21   11   12 1    
    22   11   13 1    
    23   13   14 1    
    24   13   42 1    
    25   13   43 1    
    26   14   15 1    
    27   14   44 1    
    28   14   45 1    
    29   15   16 1    
    30   15   46 1    
    31   15   47 1    
    32   16   48 1    
    33   16   49 1    
    34   17   18 2    
    35   17   19 1    
    36   19   20 1    
    37   20   21 1    
    38   20   50 1    
    39   20   51 1    
    40   21   52 1    
    41   21   53 1    
    42   21   54 1    
    43   22   26 ar   
    44   22   23 ar   
    45   23   24 ar   
    46   23   35 1    
    47   24   25 ar   
    48   25   26 ar   
    49   26   27 1    
    50   27   28 1    
    51   28   29 1    
    52   28   55 1    
    53   28   56 1    
    54   29   34 ar   
    55   29   30 ar   
    56   30   31 ar   
    57   30   57 1    
    58   31   32 ar   
    59   31   58 1    
    60   32   33 ar   
    61   32   59 1    
    62   33   34 ar   
    63   33   60 1    
    64   34   61 1    
    65   35   62 1    
    66   35   63 1    
@<TRIPOS>SUBSTRUCTURE
     1 UNK         1 GROUP             0       ****    0 ROOT    
