@<TRIPOS>MOLECULE
ZINC67067101_1509
49   52    1
SMALL
USER_CHARGES


@<TRIPOS>ATOM
      1 C1          4.0902   53.9246   27.1343 C.ar      1 UNK         0.0000 
      2 C2          3.2402   53.6967   26.0489 C.ar      1 UNK         0.0000 
      3 C3          1.9502   53.1725   26.2343 C.ar      1 UNK         0.0000 
      4 C4          1.5193   52.9295   27.5512 C.ar      1 UNK         0.0000 
      5 C5          2.3776   53.1604   28.6414 C.ar      1 UNK         0.0000 
      6 C6          3.6658   53.6451   28.4323 C.ar      1 UNK         0.0000 
      7 O7          2.0219   52.8526   29.9404 O.3       1 UNK         0.0000 
      8 C8          0.6117   52.7172   30.1477 C.3       1 UNK         0.0000 
      9 C9         -0.0364   51.9001   29.0044 C.3       1 UNK         0.0000 
     10 O10         0.2087   52.5365   27.7483 O.3       1 UNK         0.0000 
     11 C11         0.9919   52.9355   25.0457 C.3       1 UNK         0.0000 
     12 H12         0.0356   53.2965   25.4241 H         1 UNK         0.0000 
     13 C13         1.2741   53.6816   23.7411 C.3       1 UNK         0.0000 
     14 C14         2.1149   52.7254   22.9077 C.3       1 UNK         0.0000 
     15 C15         1.7235   51.3093   23.3621 C.3       1 UNK         0.0000 
     16 N16         0.9099   51.5413   24.5743 N.am      1 UNK         0.0000 
     17 C17        -0.1312   50.7315   24.9064 C.2       1 UNK         0.0000 
     18 O18        -1.1169   51.1480   25.5278 O.2       1 UNK         0.0000 
     19 N19         0.0252   49.4307   24.5597 N.am      1 UNK         0.0000 
     20 N20        -0.8506   48.5013   25.1206 N.am      1 UNK         0.0000 
     21 C21        -1.6537   47.7975   24.2882 C.2       1 UNK         0.0000 
     22 O22        -1.6216   47.8869   23.0552 O.2       1 UNK         0.0000 
     23 C23        -2.6660   46.8935   24.9557 C.ar      1 UNK         0.0000 
     24 C24        -3.8118   46.4877   24.2528 C.ar      1 UNK         0.0000 
     25 C25        -4.7814   45.6976   24.8728 C.ar      1 UNK         0.0000 
     26 C26        -4.6071   45.3009   26.2016 C.ar      1 UNK         0.0000 
     27 C27        -3.4709   45.6966   26.9015 C.ar      1 UNK         0.0000 
     28 C28        -2.5065   46.4795   26.2844 C.ar      1 UNK         0.0000 
     29 C29        -5.6095   44.4884   26.8758 C.1       1 UNK         0.0000 
     30 N30        -6.4050   43.8432   27.4174 N.1       1 UNK         0.0000 
     31 H31         5.0867   54.3071   26.9666 H         1 UNK         0.0000 
     32 H32         3.6153   53.9157   25.0610 H         1 UNK         0.0000 
     33 H33         4.3330   53.8016   29.2654 H         1 UNK         0.0000 
     34 H34         0.4285   52.2392   31.1098 H         1 UNK         0.0000 
     35 H35         0.1557   53.7084   30.1781 H         1 UNK         0.0000 
     36 H36         0.3921   50.8979   28.9825 H         1 UNK         0.0000 
     37 H37        -1.1091   51.7969   29.1597 H         1 UNK         0.0000 
     38 H38         1.7732   54.6385   23.8986 H         1 UNK         0.0000 
     39 H39         0.3223   53.9391   23.2814 H         1 UNK         0.0000 
     40 H40         3.1748   52.8956   23.0944 H         1 UNK         0.0000 
     41 H41         1.9554   52.8735   21.8386 H         1 UNK         0.0000 
     42 H42         2.6537   50.7764   23.5677 H         1 UNK         0.0000 
     43 H43         1.1561   50.8667   22.5404 H         1 UNK         0.0000 
     44 H44         0.9144   49.0332   24.2868 H         1 UNK         0.0000 
     45 H45        -0.5372   48.1473   26.0160 H         1 UNK         0.0000 
     46 H46        -3.9726   46.8027   23.2311 H         1 UNK         0.0000 
     47 H47        -5.6673   45.4112   24.3209 H         1 UNK         0.0000 
     48 H48        -3.3229   45.4097   27.9354 H         1 UNK         0.0000 
     49 H49        -1.6507   46.7714   26.8780 H         1 UNK         0.0000 
@<TRIPOS>BOND
     1    1    6 ar   
     2    1    2 ar   
     3    1   31 1    
     4    2    3 ar   
     5    2   32 1    
     6    3    4 ar   
     7    3   11 1    
     8    4   10 1    
     9    4    5 ar   
    10    5    6 ar   
    11    5    7 1    
    12    6   33 1    
    13    7    8 1    
    14    8    9 1    
    15    8   34 1    
    16    8   35 1    
    17    9   10 1    
    18    9   36 1    
    19    9   37 1    
    20   11   12 1    
    21   11   16 1    
    22   11   13 1    
    23   13   14 1    
    24   13   38 1    
    25   13   39 1    
    26   14   15 1    
    27   14   40 1    
    28   14   41 1    
    29   15   16 1    
    30   15   42 1    
    31   15   43 1    
    32   16   17 am   BACKBONE|DICT|INTERRES
    33   17   18 2    
    34   17   19 am   BACKBONE|DICT|INTERRES
    35   19   20 1    
    36   19   44 1    
    37   20   21 am   BACKBONE|DICT|INTERRES
    38   20   45 1    
    39   21   22 2    
    40   21   23 1    
    41   23   28 ar   
    42   23   24 ar   
    43   24   25 ar   
    44   24   46 1    
    45   25   26 ar   
    46   25   47 1    
    47   26   27 ar   
    48   26   29 1    
    49   27   28 ar   
    50   27   48 1    
    51   28   49 1    
    52   29   30 3    
@<TRIPOS>SUBSTRUCTURE
     1 UNK         1 GROUP             0       ****    0 ROOT    
