@<TRIPOS>MOLECULE
ZINC36637599_5700
73   76    1
SMALL
USER_CHARGES


@<TRIPOS>ATOM
      1 C1          4.8344   54.6782   28.0245 C.3       1 UNK         0.0000 
      2 C2          5.1091   54.6641   26.5259 C.ar      1 UNK         0.0000 
      3 C3          6.3010   55.2424   26.0793 C.ar      1 UNK         0.0000 
      4 C4          6.6512   55.2704   24.7317 C.ar      1 UNK         0.0000 
      5 C5          5.7753   54.6694   23.8248 C.ar      1 UNK         0.0000 
      6 C6          4.5544   54.0971   24.2531 C.ar      1 UNK         0.0000 
      7 C7          4.1915   54.0986   25.6178 C.ar      1 UNK         0.0000 
      8 C8          2.8806   53.4703   26.0981 C.3       1 UNK         0.0000 
      9 N9          3.8186   53.5406   23.2544 N.2       1 UNK         0.0000 
     10 C10         4.3989   53.5706   22.0821 C.2       1 UNK         0.0000 
     11 S11         5.9034   54.4967   22.0802 S.3       1 UNK         0.0000 
     12 N12         3.9306   52.9287   20.8979 N.am      1 UNK         0.0000 
     13 C13         4.6917   53.1450   19.6465 C.3       1 UNK         0.0000 
     14 C14         4.2004   54.3693   18.8539 C.3       1 UNK         0.0000 
     15 N15         4.6455   54.2766   17.3747 N.4       1 UNK         0.0000 
     16 C16         3.9893   55.3914   16.5307 C.3       1 UNK         0.0000 
     17 C17         6.1821   54.2780   17.2007 C.3       1 UNK         0.0000 
     18 C18         2.7877   52.1613   20.7779 C.2       1 UNK         0.0000 
     19 O19         2.3953   51.7086   19.6992 O.2       1 UNK         0.0000 
     20 C20         1.9637   51.7860   21.9776 C.ar      1 UNK         0.0000 
     21 C21         2.0683   50.4990   22.5126 C.ar      1 UNK         0.0000 
     22 C22         1.3838   50.1826   23.6802 C.ar      1 UNK         0.0000 
     23 C23         0.5956   51.1477   24.3093 C.ar      1 UNK         0.0000 
     24 C24         0.4168   52.4031   23.7278 C.ar      1 UNK         0.0000 
     25 C25         1.0934   52.7151   22.5529 C.ar      1 UNK         0.0000 
     26 S26        -0.1070   50.8043   25.9196 S.o2      1 UNK         0.0000 
     27 O27         0.6727   49.6967   26.4817 O.2       1 UNK         0.0000 
     28 O28        -0.1774   52.0917   26.6225 O.2       1 UNK         0.0000 
     29 N29        -1.7672   50.2471   25.6266 N.pl3     1 UNK         0.0000 
     30 C30        -2.7451   51.2733   25.1779 C.3       1 UNK         0.0000 
     31 C31        -1.9524   48.8279   25.1926 C.3       1 UNK         0.0000 
     32 C32        -3.2710   48.2724   25.7759 C.3       1 UNK         0.0000 
     33 C33        -3.3928   46.7773   25.4176 C.3       1 UNK         0.0000 
     34 C34        -3.3180   46.5619   23.8854 C.3       1 UNK         0.0000 
     35 C35        -2.0814   47.2361   23.2445 C.3       1 UNK         0.0000 
     36 C36        -1.9774   48.7216   23.6499 C.3       1 UNK         0.0000 
     37 H37         5.5739   55.2550   28.5824 H         1 UNK         0.0000 
     38 H38         3.8587   55.1201   28.2272 H         1 UNK         0.0000 
     39 H39         4.8279   53.6597   28.4155 H         1 UNK         0.0000 
     40 H40         6.9677   55.6865   26.8039 H         1 UNK         0.0000 
     41 H41         7.5675   55.7324   24.3953 H         1 UNK         0.0000 
     42 H42         2.7242   52.5149   25.5992 H         1 UNK         0.0000 
     43 H43         2.0306   54.0976   25.8348 H         1 UNK         0.0000 
     44 H44         2.8462   53.2615   27.1659 H         1 UNK         0.0000 
     45 H45         5.7588   53.2256   19.8432 H         1 UNK         0.0000 
     46 H46         4.6214   52.2559   19.0164 H         1 UNK         0.0000 
     47 H47         3.1090   54.4131   18.8349 H         1 UNK         0.0000 
     48 H48         4.5880   55.3097   19.2482 H         1 UNK         0.0000 
     49 H49         4.3084   56.3577   16.9303 H         1 UNK         0.0000 
     50 H50         4.3146   55.2634   15.4950 H         1 UNK         0.0000 
     51 H51         2.9048   55.2711   16.6105 H         1 UNK         0.0000 
     52 H52         6.5731   55.1930   17.6517 H         1 UNK         0.0000 
     53 H53         6.5785   53.3874   17.6906 H         1 UNK         0.0000 
     54 H54         6.4006   54.2417   16.1328 H         1 UNK         0.0000 
     55 H55         2.7105   49.7570   22.0587 H         1 UNK         0.0000 
     56 H56         1.5042   49.2046   24.1225 H         1 UNK         0.0000 
     57 H57        -0.1971   53.1504   24.2099 H         1 UNK         0.0000 
     58 H58         1.0084   53.7012   22.1267 H         1 UNK         0.0000 
     59 H59        -3.7607   50.9827   25.4420 H         1 UNK         0.0000 
     60 H60        -2.5305   52.2246   25.6652 H         1 UNK         0.0000 
     61 H61        -2.6602   51.4287   24.1030 H         1 UNK         0.0000 
     62 H62        -1.1418   48.2079   25.5837 H         1 UNK         0.0000 
     63 H63        -3.2963   48.4031   26.8597 H         1 UNK         0.0000 
     64 H64        -4.1365   48.8054   25.3800 H         1 UNK         0.0000 
     65 H65        -2.5933   46.2240   25.9138 H         1 UNK         0.0000 
     66 H66        -4.3307   46.3795   25.8072 H         1 UNK         0.0000 
     67 H67        -3.3304   45.4995   23.6487 H         1 UNK         0.0000 
     68 H68        -4.2197   46.9749   23.4291 H         1 UNK         0.0000 
     69 H69        -1.1779   46.7125   23.5575 H         1 UNK         0.0000 
     70 H70        -2.1263   47.1444   22.1582 H         1 UNK         0.0000 
     71 H71        -2.8292   49.2649   23.2380 H         1 UNK         0.0000 
     72 H72        -1.0891   49.1683   23.2075 H         1 UNK         0.0000 
     73 H73         4.3057   53.3874   17.0212 H         1 UNK         0.0000 
@<TRIPOS>BOND
     1    1    2 1    
     2    1   37 1    
     3    1   38 1    
     4    1   39 1    
     5    2    7 ar   
     6    2    3 ar   
     7    3    4 ar   
     8    3   40 1    
     9    4    5 ar   
    10    4   41 1    
    11    5   11 1    
    12    5    6 ar   
    13    6    7 ar   
    14    6    9 1    
    15    7    8 1    
    16    8   42 1    
    17    8   43 1    
    18    8   44 1    
    19    9   10 2    
    20   10   11 1    
    21   10   12 am   BACKBONE|DICT|INTERRES
    22   12   13 1    
    23   12   18 am   BACKBONE|DICT|INTERRES
    24   13   14 1    
    25   13   45 1    
    26   13   46 1    
    27   14   15 1    
    28   14   47 1    
    29   14   48 1    
    30   15   16 1    
    31   15   17 1    
    32   15   73 1    
    33   16   49 1    
    34   16   50 1    
    35   16   51 1    
    36   17   52 1    
    37   17   53 1    
    38   17   54 1    
    39   18   19 2    
    40   18   20 1    
    41   20   25 ar   
    42   20   21 ar   
    43   21   22 ar   
    44   21   55 1    
    45   22   23 ar   
    46   22   56 1    
    47   23   24 ar   
    48   23   26 1    
    49   24   25 ar   
    50   24   57 1    
    51   25   58 1    
    52   26   27 2    
    53   26   28 2    
    54   26   29 1    
    55   29   30 1    
    56   29   31 1    
    57   30   59 1    
    58   30   60 1    
    59   30   61 1    
    60   31   36 1    
    61   31   32 1    
    62   31   62 1    
    63   32   33 1    
    64   32   63 1    
    65   32   64 1    
    66   33   34 1    
    67   33   65 1    
    68   33   66 1    
    69   34   35 1    
    70   34   67 1    
    71   34   68 1    
    72   35   36 1    
    73   35   69 1    
    74   35   70 1    
    75   36   71 1    
    76   36   72 1    
@<TRIPOS>SUBSTRUCTURE
     1 UNK         1 GROUP             0       ****    0 ROOT    
