@<TRIPOS>MOLECULE
ZINC12951079_5737
64   68    1
SMALL
USER_CHARGES


@<TRIPOS>ATOM
      1 C1          4.0903   56.9810   15.9547 C.3       1 UNK         0.0000 
      2 O2          4.2523   56.0868   17.0467 O.3       1 UNK         0.0000 
      3 C3          5.1924   56.3185   17.9958 C.2       1 UNK         0.0000 
      4 O4          5.9468   57.2961   17.9846 O.2       1 UNK         0.0000 
      5 C5          5.1782   55.3085   19.1037 C.ar      1 UNK         0.0000 
      6 C6          4.4405   54.1164   19.0290 C.ar      1 UNK         0.0000 
      7 C7          4.4037   53.2159   20.0917 C.ar      1 UNK         0.0000 
      8 C8          5.1325   53.5137   21.2511 C.ar      1 UNK         0.0000 
      9 C9          5.8911   54.6922   21.3542 C.ar      1 UNK         0.0000 
     10 C10         5.9078   55.5677   20.2716 C.ar      1 UNK         0.0000 
     11 O11         6.6268   55.0782   22.4665 O.3       1 UNK         0.0000 
     12 C12         6.6858   54.2650   23.6457 C.3       1 UNK         0.0000 
     13 C13         5.3988   54.2975   24.4669 C.ar      1 UNK         0.0000 
     14 C14         5.1933   54.0966   25.8288 C.ar      1 UNK         0.0000 
     15 N15         3.8272   54.0983   25.9954 N.pl3     1 UNK         0.0000 
     16 N16         3.2300   54.3834   24.8405 N.2       1 UNK         0.0000 
     17 N17         4.2240   54.4967   23.9018 N.2       1 UNK         0.0000 
     18 C18         3.0532   53.8405   27.1408 C.ar      1 UNK         0.0000 
     19 C19         3.4613   54.3324   28.3785 C.ar      1 UNK         0.0000 
     20 C20         2.6607   54.1178   29.4924 C.ar      1 UNK         0.0000 
     21 C21         1.4735   53.3862   29.3949 C.ar      1 UNK         0.0000 
     22 C22         1.0778   52.8777   28.1535 C.ar      1 UNK         0.0000 
     23 C23         1.8628   53.1095   27.0293 C.ar      1 UNK         0.0000 
     24 C24         0.6295   53.1549   30.6465 C.3       1 UNK         0.0000 
     25 F25        -0.4920   52.4847   30.3803 F         1 UNK         0.0000 
     26 F26         0.3023   54.3287   31.1863 F         1 UNK         0.0000 
     27 F27         1.3413   52.4545   31.5284 F         1 UNK         0.0000 
     28 O28         3.6261   52.0846   19.9222 O.3       1 UNK         0.0000 
     29 C29         3.3835   51.1839   21.0087 C.3       1 UNK         0.0000 
     30 C30         2.3032   51.7025   21.9484 C.ar      1 UNK         0.0000 
     31 C31         1.4053   51.0058   22.7518 C.ar      1 UNK         0.0000 
     32 N32         0.5992   51.9650   23.3184 N.pl3     1 UNK         0.0000 
     33 N33         1.0102   53.1788   22.9450 N.2       1 UNK         0.0000 
     34 N34         2.0665   52.9948   22.0820 N.2       1 UNK         0.0000 
     35 C35        -0.5160   51.8167   24.1649 C.ar      1 UNK         0.0000 
     36 C36        -0.4778   50.8992   25.2149 C.ar      1 UNK         0.0000 
     37 C37        -1.5716   50.7910   26.0668 C.ar      1 UNK         0.0000 
     38 C38        -2.7151   51.5706   25.8739 C.ar      1 UNK         0.0000 
     39 C39        -2.7551   52.4762   24.8095 C.ar      1 UNK         0.0000 
     40 C40        -1.6599   52.5971   23.9601 C.ar      1 UNK         0.0000 
     41 C41        -3.9056   51.4236   26.8228 C.3       1 UNK         0.0000 
     42 F42        -4.7228   52.4774   26.7589 F         1 UNK         0.0000 
     43 F43        -4.5999   50.3371   26.4849 F         1 UNK         0.0000 
     44 F44        -3.4954   51.2956   28.0857 F         1 UNK         0.0000 
     45 H45         3.2973   56.6250   15.2975 H         1 UNK         0.0000 
     46 H46         3.8193   57.9793   16.3045 H         1 UNK         0.0000 
     47 H47         5.0081   57.0572   15.3708 H         1 UNK         0.0000 
     48 H48         3.8661   53.8744   18.1458 H         1 UNK         0.0000 
     49 H49         5.1120   52.8308   22.0817 H         1 UNK         0.0000 
     50 H50         6.4867   56.4759   20.3640 H         1 UNK         0.0000 
     51 H51         7.5027   54.6679   24.2465 H         1 UNK         0.0000 
     52 H52         7.0020   53.2561   23.3849 H         1 UNK         0.0000 
     53 H53         5.8612   53.8713   26.6471 H         1 UNK         0.0000 
     54 H54         4.3764   54.8966   28.4791 H         1 UNK         0.0000 
     55 H55         2.9716   54.5333   30.4311 H         1 UNK         0.0000 
     56 H56         0.1633   52.3092   28.0493 H         1 UNK         0.0000 
     57 H57         1.5418   52.7258   26.0727 H         1 UNK         0.0000 
     58 H58         3.0231   50.2657   20.5436 H         1 UNK         0.0000 
     59 H59         4.3060   50.9040   21.5139 H         1 UNK         0.0000 
     60 H60         1.2439   49.9520   22.9282 H         1 UNK         0.0000 
     61 H61         0.3943   50.2842   25.3914 H         1 UNK         0.0000 
     62 H62        -1.5267   50.0960   26.8816 H         1 UNK         0.0000 
     63 H63        -3.6329   53.0841   24.6340 H         1 UNK         0.0000 
     64 H64        -1.7105   53.2969   23.1435 H         1 UNK         0.0000 
@<TRIPOS>BOND
     1    1    2 1    
     2    1   45 1    
     3    1   46 1    
     4    1   47 1    
     5    2    3 1    
     6    3    4 2    
     7    3    5 1    
     8    5   10 ar   
     9    5    6 ar   
    10    6    7 ar   
    11    6   48 1    
    12    7    8 ar   
    13    7   28 1    
    14    8    9 ar   
    15    8   49 1    
    16    9   10 ar   
    17    9   11 1    
    18   10   50 1    
    19   11   12 1    
    20   12   13 1    
    21   12   51 1    
    22   12   52 1    
    23   13   17 ar   
    24   13   14 ar   
    25   14   15 ar   
    26   14   53 1    
    27   15   16 ar   
    28   15   18 1    
    29   16   17 ar   
    30   18   23 ar   
    31   18   19 ar   
    32   19   20 ar   
    33   19   54 1    
    34   20   21 ar   
    35   20   55 1    
    36   21   22 ar   
    37   21   24 1    
    38   22   23 ar   
    39   22   56 1    
    40   23   57 1    
    41   24   25 1    
    42   24   26 1    
    43   24   27 1    
    44   28   29 1    
    45   29   30 1    
    46   29   58 1    
    47   29   59 1    
    48   30   34 ar   
    49   30   31 ar   
    50   31   32 ar   
    51   31   60 1    
    52   32   33 ar   
    53   32   35 1    
    54   33   34 ar   
    55   35   40 ar   
    56   35   36 ar   
    57   36   37 ar   
    58   36   61 1    
    59   37   38 ar   
    60   37   62 1    
    61   38   39 ar   
    62   38   41 1    
    63   39   40 ar   
    64   39   63 1    
    65   40   64 1    
    66   41   42 1    
    67   41   43 1    
    68   41   44 1    
@<TRIPOS>SUBSTRUCTURE
     1 UNK         1 GROUP             0       ****    0 ROOT    
