@<TRIPOS>MOLECULE
ZINC09159357_2840
53   58    1
SMALL
USER_CHARGES


@<TRIPOS>ATOM
      1 C1         -0.7160   53.2585   17.5375 C.ar      1 UNK         0.0000 
      2 C2          0.1000   52.4940   18.3632 C.ar      1 UNK         0.0000 
      3 C3         -0.4671   51.7254   19.3742 C.ar      1 UNK         0.0000 
      4 C4         -1.8457   51.7235   19.6024 C.ar      1 UNK         0.0000 
      5 C5         -2.6524   52.4819   18.7334 C.ar      1 UNK         0.0000 
      6 C6         -2.0962   53.2492   17.7114 C.ar      1 UNK         0.0000 
      7 C7         -2.4949   50.9032   20.6962 C.ar      1 UNK         0.0000 
      8 C8         -2.0616   50.5265   22.0177 C.ar      1 UNK         0.0000 
      9 C9         -3.1486   49.8089   22.4948 C.ar      1 UNK         0.0000 
     10 N10        -4.1131   49.7998   21.5467 N.pl3     1 UNK         0.0000 
     11 H11        -5.0164   49.3589   21.6346 H         1 UNK         0.0000 
     12 N12        -3.7276   50.4693   20.4641 N.2       1 UNK         0.0000 
     13 O13        -3.3267   49.1961   23.7084 O.3       1 UNK         0.0000 
     14 C14        -2.2425   49.2679   24.5243 C.2       1 UNK         0.0000 
     15 C15        -1.0778   49.9130   24.2595 C.2       1 UNK         0.0000 
     16 C16        -0.8326   50.7167   22.9488 C.3       1 UNK         0.0000 
     17 C17         0.4775   50.4216   22.2821 C.ar      1 UNK         0.0000 
     18 C18         0.9378   49.2932   21.6067 C.ar      1 UNK         0.0000 
     19 C19         2.1859   49.3258   20.9805 C.ar      1 UNK         0.0000 
     20 C20         2.9696   50.4828   21.0302 C.ar      1 UNK         0.0000 
     21 C21         2.5195   51.6020   21.7262 C.ar      1 UNK         0.0000 
     22 C22         1.2713   51.5524   22.3496 C.ar      1 UNK         0.0000 
     23 N23         0.5818   52.5662   22.9981 N.am      1 UNK         0.0000 
     24 C24        -0.6793   52.2001   23.3421 C.2       1 UNK         0.0000 
     25 O25        -1.5478   52.8962   23.8753 O.2       1 UNK         0.0000 
     26 C26         1.1038   53.8993   23.2989 C.3       1 UNK         0.0000 
     27 C27         2.2599   53.9376   24.2907 C.ar      1 UNK         0.0000 
     28 C28         2.0588   53.5716   25.6248 C.ar      1 UNK         0.0000 
     29 C29         3.1048   53.6799   26.5382 C.ar      1 UNK         0.0000 
     30 C30         4.3564   54.1204   26.1115 C.ar      1 UNK         0.0000 
     31 C31         4.5613   54.4826   24.7800 C.ar      1 UNK         0.0000 
     32 C32         3.5102   54.3973   23.8711 C.ar      1 UNK         0.0000 
     33 Cl33        5.6661   54.2218   27.2350 Cl        1 UNK         0.0000 
     34 C34        -0.0675   49.8711   25.2641 C.1       1 UNK         0.0000 
     35 N35         0.7038   49.8260   26.1215 N.1       1 UNK         0.0000 
     36 N36        -2.5572   48.6009   25.6810 N.pl3     1 UNK         0.0000 
     37 H37        -0.2752   53.8496   16.7478 H         1 UNK         0.0000 
     38 H38         1.1720   52.4809   18.2132 H         1 UNK         0.0000 
     39 H39         0.1930   51.1137   19.9465 H         1 UNK         0.0000 
     40 H40        -3.7252   52.4875   18.8509 H         1 UNK         0.0000 
     41 H41        -2.7282   53.8284   17.0549 H         1 UNK         0.0000 
     42 H42         0.3125   48.4179   21.5226 H         1 UNK         0.0000 
     43 H43         2.5385   48.4672   20.4293 H         1 UNK         0.0000 
     44 H44         3.9150   50.5126   20.5148 H         1 UNK         0.0000 
     45 H45         3.1227   52.4966   21.7397 H         1 UNK         0.0000 
     46 H46         1.4158   54.3721   22.3677 H         1 UNK         0.0000 
     47 H47         0.3039   54.5091   23.7084 H         1 UNK         0.0000 
     48 H48         1.0941   53.2142   25.9539 H         1 UNK         0.0000 
     49 H49         2.9511   53.3940   27.5685 H         1 UNK         0.0000 
     50 H50         5.5319   54.8306   24.4549 H         1 UNK         0.0000 
     51 H51         3.6699   54.6934   22.8437 H         1 UNK         0.0000 
     52 H52        -1.8802   48.4975   26.4307 H         1 UNK         0.0000 
     53 H53        -3.5222   48.4813   25.9449 H         1 UNK         0.0000 
@<TRIPOS>BOND
     1    1    6 ar   
     2    1    2 ar   
     3    1   37 1    
     4    2    3 ar   
     5    2   38 1    
     6    3    4 ar   
     7    3   39 1    
     8    4    5 ar   
     9    4    7 1    
    10    5    6 ar   
    11    5   40 1    
    12    6   41 1    
    13    7   12 ar   
    14    7    8 ar   
    15    8   16 1    
    16    8    9 ar   
    17    9   10 ar   
    18    9   13 1    
    19   10   11 1    
    20   10   12 ar   
    21   13   14 1    
    22   14   15 2    
    23   14   36 1    
    24   15   16 1    
    25   15   34 1    
    26   16   24 1    
    27   16   17 1    
    28   17   22 ar   
    29   17   18 ar   
    30   18   19 ar   
    31   18   42 1    
    32   19   20 ar   
    33   19   43 1    
    34   20   21 ar   
    35   20   44 1    
    36   21   22 ar   
    37   21   45 1    
    38   22   23 1    
    39   23   24 am   BACKBONE|DICT|INTERRES
    40   23   26 1    
    41   24   25 2    
    42   26   27 1    
    43   26   46 1    
    44   26   47 1    
    45   27   32 ar   
    46   27   28 ar   
    47   28   29 ar   
    48   28   48 1    
    49   29   30 ar   
    50   29   49 1    
    51   30   31 ar   
    52   30   33 1    
    53   31   32 ar   
    54   31   50 1    
    55   32   51 1    
    56   34   35 3    
    57   36   52 1    
    58   36   53 1    
@<TRIPOS>SUBSTRUCTURE
     1 UNK         1 GROUP             0       ****    0 ROOT    
