ZINC19336442_1730
                    3D
 Schrodinger Suite 2024-2.
 27 29  0  0  1  0            999 V2000
    3.2500   54.4960   26.6527 C   0  0  0  0  0  0
    2.5225   54.3749   27.8293 C   0  0  0  0  0  0
    3.1906   54.3439   29.0444 C   0  0  0  0  0  0
    4.5774   54.4379   29.0952 C   0  0  0  0  0  0
    5.3017   54.5001   27.9060 C   0  0  0  0  0  0
    4.6443   54.5329   26.6609 C   0  0  0  0  0  0
    5.4264   54.7113   25.3797 C   0  0  0  0  0  0
    5.1604   54.3662   24.0067 C   0  0  0  0  0  0
    6.2975   54.7931   23.3353 C   0  0  0  0  0  0
    7.1044   55.3500   24.2674 N   0  0  0  0  0  0
    8.0436   55.6916   24.0787 H   0  0  0  0  0  0
    6.6037   55.3004   25.4896 N   0  0  0  0  0  0
    4.0636   53.6982   23.2579 C   0  0  0  0  0  0
    4.1283   53.3631   21.8967 C   0  0  0  0  0  0
    2.7033   52.4983   21.4049 S   0  0  0  0  0  0
    2.1262   52.6817   23.0209 C   0  0  0  0  0  0
    2.9430   53.3008   23.8328 N   0  0  0  0  0  0
    0.9115   52.1752   23.3810 N   0  0  0  0  0  0
    2.4761   54.2414   30.1822 F   0  0  0  0  0  0
    2.7043   54.6173   25.7408 H   0  0  0  0  0  0
    1.4436   54.3369   27.8027 H   0  0  0  0  0  0
    5.0841   54.4827   30.0520 H   0  0  0  0  0  0
    6.3790   54.5651   27.9656 H   0  0  0  0  0  0
    6.6024   54.7464   22.3006 H   0  0  0  0  0  0
    4.9180   53.5496   21.1862 H   0  0  0  0  0  0
    0.5719   52.2550   24.3280 H   0  0  0  0  0  0
    0.3801   51.5883   22.7551 H   0  0  0  0  0  0
  1  6  2  0  0  0
  1  2  1  0  0  0
  1 20  1  0  0  0
  2  3  2  0  0  0
  2 21  1  0  0  0
  3  4  1  0  0  0
  3 19  1  0  0  0
  4  5  2  0  0  0
  4 22  1  0  0  0
  5  6  1  0  0  0
  5 23  1  0  0  0
  6  7  1  0  0  0
  7 12  2  0  0  0
  7  8  1  0  0  0
  8  9  2  0  0  0
  8 13  1  0  0  0
  9 10  1  0  0  0
  9 24  1  0  0  0
 10 11  1  0  0  0
 10 12  1  0  0  0
 13 17  1  0  0  0
 13 14  2  0  0  0
 14 15  1  0  0  0
 14 25  1  0  0  0
 15 16  1  0  0  0
 16 17  2  0  0  0
 16 18  1  0  0  0
 18 26  1  0  0  0
 18 27  1  0  0  0
M  END
> <i_i_glide_confnum>
4

> <i_i_glide_lignum>
1731

> <i_i_glide_posenum>
12

> <i_i_glide_rotatable_bonds>
2

> <i_m_Source_File_Index>
1698

> <b_m_subgroup_collapsed>
0

> <r_i_docking_score>
-7.65474

> <r_i_glide_ecoul>
-5.59935

> <r_i_glide_eff_state_penalty>
0

> <r_i_glide_einternal>
0.404047

> <r_i_glide_emodel>
-50.8317

> <r_i_glide_energy>
-33.0801

> <r_i_glide_erotb>
0.365748

> <r_i_glide_esite>
-0.0519087

> <r_i_glide_evdw>
-27.4808

> <r_i_glide_gscore>
-7.65474

> <r_i_glide_hbond>
-0.472534

> <r_i_glide_ligand_efficiency>
-0.425263

> <r_i_glide_ligand_efficiency_ln>
-1.96761

> <r_i_glide_ligand_efficiency_sa>
-1.11451

> <r_i_glide_lipo>
-2.795

> <r_i_glide_metal>
0

> <r_i_glide_rewards>
-2.4871

> <s_i_glide_gridfile>
wee1_glide-grid

> <s_m_Source_File>
wee1_decoys_glide_SP.sdf

> <s_m_Source_Path>
/Users/zhangxujun/Desktop

> <s_m_entry_id>
1973

> <s_m_entry_name>
wee1_decoys_glide_SP.1698

> <s_m_subgroup_title>
wee1_decoys_glide_SP

> <s_m_subgroupid>
wee1_decoys_glide_SP


$$$$
