@<TRIPOS>MOLECULE
ZINC63617069_5724
69   73    1
SMALL
USER_CHARGES


@<TRIPOS>ATOM
      1 C1         -7.4581   51.4194   26.7128 C.3       1 UNK         0.0000 
      2 O2         -6.8107   52.5601   26.1599 O.3       1 UNK         0.0000 
      3 C3         -5.5613   52.4132   25.5894 C.ar      1 UNK         0.0000 
      4 C4         -4.9848   53.5660   25.0608 C.ar      1 UNK         0.0000 
      5 C5         -3.7226   53.5239   24.4794 C.ar      1 UNK         0.0000 
      6 C6         -3.0123   52.3224   24.4187 C.ar      1 UNK         0.0000 
      7 C7         -3.5970   51.1566   24.9318 C.ar      1 UNK         0.0000 
      8 C8         -4.8594   51.2011   25.5175 C.ar      1 UNK         0.0000 
      9 C9         -1.6088   52.3079   23.8076 C.3       1 UNK         0.0000 
     10 H10        -1.3097   53.3473   23.6675 H         1 UNK         0.0000 
     11 C11        -1.6870   51.6965   22.3621 C.2       1 UNK         0.0000 
     12 O12        -2.6954   51.0907   21.9912 O.2       1 UNK         0.0000 
     13 N13        -0.6160   51.8984   21.5652 N.am      1 UNK         0.0000 
     14 C14        -0.4352   51.4302   20.2527 C.ar      1 UNK         0.0000 
     15 C15        -1.4522   51.4764   19.2913 C.ar      1 UNK         0.0000 
     16 C16        -1.1968   51.0404   17.9931 C.ar      1 UNK         0.0000 
     17 C17         0.0655   50.5656   17.6361 C.ar      1 UNK         0.0000 
     18 C18         1.0808   50.5198   18.6035 C.ar      1 UNK         0.0000 
     19 C19         0.8277   50.9476   19.9037 C.ar      1 UNK         0.0000 
     20 O20         0.2234   50.1660   16.3240 O.3       1 UNK         0.0000 
     21 C21         1.5045   49.7193   15.8875 C.3       1 UNK         0.0000 
     22 N22        -0.5586   51.7250   24.7483 N.am      1 UNK         0.0000 
     23 C23         0.7368   51.3068   24.1467 C.3       1 UNK         0.0000 
     24 C24         1.6686   52.4804   23.8602 C.2       1 UNK         0.0000 
     25 C25         2.2581   53.0045   22.7150 C.2       1 UNK         0.0000 
     26 C26         3.0293   54.0967   23.1064 C.2       1 UNK         0.0000 
     27 C27         2.8859   54.1983   24.4758 C.2       1 UNK         0.0000 
     28 O28         2.0523   53.2300   24.9291 O.3       1 UNK         0.0000 
     29 C29        -0.5879   51.9002   26.1193 C.2       1 UNK         0.0000 
     30 O30        -1.4845   52.5134   26.6922 O.2       1 UNK         0.0000 
     31 C31         0.5242   51.2945   27.0118 C.3       1 UNK         0.0000 
     32 C32         0.5637   51.7208   28.4806 C.2       1 UNK         0.0000 
     33 C33         1.6257   52.0084   29.2516 C.2       1 UNK         0.0000 
     34 C34         3.0558   52.0964   28.9253 C.2       1 UNK         0.0000 
     35 C35         3.9824   52.1400   29.9015 C.2       1 UNK         0.0000 
     36 C36         3.5225   52.0967   31.2811 C.2       1 UNK         0.0000 
     37 C37         2.1993   52.0968   31.5901 C.2       1 UNK         0.0000 
     38 C38         1.2308   52.1002   30.5880 C.2       1 UNK         0.0000 
     39 N39        -0.0747   52.0966   30.7032 N.pl3     1 UNK         0.0000 
     40 C40        -0.6492   51.7949   29.3878 C.3       1 UNK         0.0000 
     41 H41        -8.4233   51.7177   27.1219 H         1 UNK         0.0000 
     42 H42        -7.6413   50.6560   25.9548 H         1 UNK         0.0000 
     43 H43        -6.8758   50.9850   27.5274 H         1 UNK         0.0000 
     44 H44        -5.5274   54.4967   25.1014 H         1 UNK         0.0000 
     45 H45        -3.2970   54.4323   24.0800 H         1 UNK         0.0000 
     46 H46        -3.0622   50.2186   24.8912 H         1 UNK         0.0000 
     47 H47        -5.2690   50.2866   25.9163 H         1 UNK         0.0000 
     48 H48         0.1839   52.3501   21.9834 H         1 UNK         0.0000 
     49 H49        -2.4350   51.8503   19.5376 H         1 UNK         0.0000 
     50 H50        -1.9820   51.0747   17.2523 H         1 UNK         0.0000 
     51 H51         2.0708   50.1570   18.3632 H         1 UNK         0.0000 
     52 H52         1.6232   50.8828   20.6294 H         1 UNK         0.0000 
     53 H53         1.4578   49.4631   14.8294 H         1 UNK         0.0000 
     54 H54         2.2612   50.4975   16.0017 H         1 UNK         0.0000 
     55 H55         1.8251   48.8274   16.4293 H         1 UNK         0.0000 
     56 H56         1.2570   50.5892   24.7772 H         1 UNK         0.0000 
     57 H57         0.5653   50.6768   23.2764 H         1 UNK         0.0000 
     58 H58         2.1613   52.6526   21.7006 H         1 UNK         0.0000 
     59 H59         3.6182   54.7362   22.4634 H         1 UNK         0.0000 
     60 H60         3.2809   54.8768   25.2172 H         1 UNK         0.0000 
     61 H61         1.5043   51.5284   26.6149 H         1 UNK         0.0000 
     62 H62         0.4074   50.2099   26.9839 H         1 UNK         0.0000 
     63 H63         3.4039   52.1342   27.9026 H         1 UNK         0.0000 
     64 H64         5.0347   52.2118   29.6643 H         1 UNK         0.0000 
     65 H65         4.2518   52.0751   32.0806 H         1 UNK         0.0000 
     66 H66         1.8908   52.0614   32.6190 H         1 UNK         0.0000 
     67 H67        -1.2511   50.8967   29.4622 H         1 UNK         0.0000 
     68 H68        -1.2955   52.6036   29.1365 H         1 UNK         0.0000 
     69 H69        -0.6094   52.0966   31.5800 H         1 UNK         0.0000 
@<TRIPOS>BOND
     1    1    2 1    
     2    1   41 1    
     3    1   42 1    
     4    1   43 1    
     5    2    3 1    
     6    3    8 ar   
     7    3    4 ar   
     8    4    5 ar   
     9    4   44 1    
    10    5    6 ar   
    11    5   45 1    
    12    6    7 ar   
    13    6    9 1    
    14    7    8 ar   
    15    7   46 1    
    16    8   47 1    
    17    9   10 1    
    18    9   11 1    
    19    9   22 1    
    20   11   12 2    
    21   11   13 am   BACKBONE|DICT|INTERRES
    22   13   14 1    
    23   13   48 1    
    24   14   19 ar   
    25   14   15 ar   
    26   15   16 ar   
    27   15   49 1    
    28   16   17 ar   
    29   16   50 1    
    30   17   18 ar   
    31   17   20 1    
    32   18   19 ar   
    33   18   51 1    
    34   19   52 1    
    35   20   21 1    
    36   21   53 1    
    37   21   54 1    
    38   21   55 1    
    39   22   23 1    
    40   22   29 am   BACKBONE|DICT|INTERRES
    41   23   24 1    
    42   23   56 1    
    43   23   57 1    
    44   24   28 1    
    45   24   25 2    
    46   25   26 1    
    47   25   58 1    
    48   26   27 2    
    49   26   59 1    
    50   27   28 1    
    51   27   60 1    
    52   29   30 2    
    53   29   31 1    
    54   31   32 1    
    55   31   61 1    
    56   31   62 1    
    57   32   40 1    
    58   32   33 2    
    59   33   38 1    
    60   33   34 1    
    61   34   35 2    
    62   34   63 1    
    63   35   36 1    
    64   35   64 1    
    65   36   37 2    
    66   36   65 1    
    67   37   38 1    
    68   37   66 1    
    69   38   39 2    
    70   39   40 1    
    71   39   69 1    
    72   40   67 1    
    73   40   68 1    
@<TRIPOS>SUBSTRUCTURE
     1 UNK         1 GROUP             0       ****    0 ROOT    
