@<TRIPOS>MOLECULE
ZINC38684517_6010
52   55    1
SMALL
USER_CHARGES


@<TRIPOS>ATOM
      1 C1         -2.4055   52.3676   24.6286 C.2       1 UNK         0.0000 
      2 C2         -2.5379   51.1780   25.2405 C.2       1 UNK         0.0000 
      3 C3         -1.4019   50.2874   25.7353 C.3       1 UNK         0.0000 
      4 O4         -0.1087   50.8823   25.6020 O.3       1 UNK         0.0000 
      5 C5          0.2998   51.8631   26.4879 C.ar      1 UNK         0.0000 
      6 C6         -0.4045   52.2636   27.6346 C.ar      1 UNK         0.0000 
      7 C7          0.0815   53.2962   28.4332 C.ar      1 UNK         0.0000 
      8 C8          1.2634   53.9453   28.0858 C.ar      1 UNK         0.0000 
      9 C9          2.0066   53.5391   26.9712 C.ar      1 UNK         0.0000 
     10 C10         1.5027   52.4964   26.1868 C.ar      1 UNK         0.0000 
     11 C11         3.3358   54.2486   26.6421 C.3       1 UNK         0.0000 
     12 H12         3.1085   55.2970   26.8214 H         1 UNK         0.0000 
     13 C13         3.8290   54.2041   25.1746 C.ar      1 UNK         0.0000 
     14 C14         2.9611   54.2270   24.0706 C.ar      1 UNK         0.0000 
     15 C15         3.4412   54.1598   22.7639 C.ar      1 UNK         0.0000 
     16 C16         4.8142   54.1148   22.5182 C.ar      1 UNK         0.0000 
     17 C17         5.7010   54.0988   23.6005 C.ar      1 UNK         0.0000 
     18 C18         5.2132   54.1454   24.9042 C.ar      1 UNK         0.0000 
     19 O19         6.1660   54.1147   25.9017 O.3       1 UNK         0.0000 
     20 C20         5.7628   53.9223   27.1795 C.2       1 UNK         0.0000 
     21 C21         4.4834   53.9197   27.6006 C.2       1 UNK         0.0000 
     22 C22         4.1898   53.6807   28.9746 C.1       1 UNK         0.0000 
     23 N23         3.9040   53.5094   30.0821 N.1       1 UNK         0.0000 
     24 N24         6.8744   53.6965   27.9394 N.pl3     1 UNK         0.0000 
     25 O25         5.2503   54.0566   21.2141 O.3       1 UNK         0.0000 
     26 C26         6.0087   55.0662   20.6745 C.2       1 UNK         0.0000 
     27 O27         6.3407   56.0927   21.2814 O.2       1 UNK         0.0000 
     28 C28         6.4640   54.7608   19.2785 C.ar      1 UNK         0.0000 
     29 C29         5.9726   53.6528   18.5661 C.ar      1 UNK         0.0000 
     30 C30         6.4475   53.3658   17.2894 C.ar      1 UNK         0.0000 
     31 C31         7.4068   54.1895   16.7073 C.ar      1 UNK         0.0000 
     32 C32         7.8899   55.3020   17.3913 C.ar      1 UNK         0.0000 
     33 C33         7.4218   55.5859   18.6708 C.ar      1 UNK         0.0000 
     34 Br34        8.0671   53.7862   14.9690 Br        1 UNK         0.0000 
     35 H35        -1.4340   52.7979   24.4318 H         1 UNK         0.0000 
     36 H36        -3.2736   52.9272   24.3172 H         1 UNK         0.0000 
     37 H37        -3.5310   50.7879   25.4117 H         1 UNK         0.0000 
     38 H38        -1.5951   49.9716   26.7593 H         1 UNK         0.0000 
     39 H39        -1.4045   49.3763   25.1398 H         1 UNK         0.0000 
     40 H40        -1.3330   51.7898   27.9148 H         1 UNK         0.0000 
     41 H41        -0.4655   53.6044   29.3120 H         1 UNK         0.0000 
     42 H42         1.6164   54.7512   28.7101 H         1 UNK         0.0000 
     43 H43         2.0501   52.1438   25.3289 H         1 UNK         0.0000 
     44 H44         1.8950   54.2994   24.2222 H         1 UNK         0.0000 
     45 H45         2.7469   54.1712   21.9356 H         1 UNK         0.0000 
     46 H46         6.7681   54.0558   23.4253 H         1 UNK         0.0000 
     47 H47         6.8376   53.7558   28.9466 H         1 UNK         0.0000 
     48 H48         7.7046   53.3002   27.5232 H         1 UNK         0.0000 
     49 H49         5.2323   52.9860   18.9889 H         1 UNK         0.0000 
     50 H50         6.0735   52.4982   16.7624 H         1 UNK         0.0000 
     51 H51         8.6321   55.9391   16.9325 H         1 UNK         0.0000 
     52 H52         7.8211   56.4477   19.1887 H         1 UNK         0.0000 
@<TRIPOS>BOND
     1    1    2 2    
     2    1   35 1    
     3    1   36 1    
     4    2    3 1    
     5    2   37 1    
     6    3    4 1    
     7    3   38 1    
     8    3   39 1    
     9    4    5 1    
    10    5   10 ar   
    11    5    6 ar   
    12    6    7 ar   
    13    6   40 1    
    14    7    8 ar   
    15    7   41 1    
    16    8    9 ar   
    17    8   42 1    
    18    9   10 ar   
    19    9   11 1    
    20   10   43 1    
    21   11   12 1    
    22   11   21 1    
    23   11   13 1    
    24   13   18 ar   
    25   13   14 ar   
    26   14   15 ar   
    27   14   44 1    
    28   15   16 ar   
    29   15   45 1    
    30   16   17 ar   
    31   16   25 1    
    32   17   18 ar   
    33   17   46 1    
    34   18   19 1    
    35   19   20 1    
    36   20   21 2    
    37   20   24 1    
    38   21   22 1    
    39   22   23 3    
    40   24   47 1    
    41   24   48 1    
    42   25   26 1    
    43   26   27 2    
    44   26   28 1    
    45   28   33 ar   
    46   28   29 ar   
    47   29   30 ar   
    48   29   49 1    
    49   30   31 ar   
    50   30   50 1    
    51   31   32 ar   
    52   31   34 1    
    53   32   33 ar   
    54   32   51 1    
    55   33   52 1    
@<TRIPOS>SUBSTRUCTURE
     1 UNK         1 GROUP             0       ****    0 ROOT    
