@<TRIPOS>MOLECULE
ZINC28308920_5994
53   57    1
SMALL
USER_CHARGES


@<TRIPOS>ATOM
      1 C1          6.6784   54.6697   27.1019 C.ar      1 UNK         0.0000 
      2 C2          5.5206   54.3774   27.8140 C.ar      1 UNK         0.0000 
      3 C3          4.3313   54.0975   27.1466 C.ar      1 UNK         0.0000 
      4 C4          4.2873   54.1019   25.7299 C.ar      1 UNK         0.0000 
      5 C5          3.1045   53.7824   25.0206 C.ar      1 UNK         0.0000 
      6 C6          3.0984   53.7456   23.6185 C.ar      1 UNK         0.0000 
      7 C7          4.2504   54.0947   22.9155 C.ar      1 UNK         0.0000 
      8 C8          5.4291   54.4191   23.5840 C.ar      1 UNK         0.0000 
      9 C9          5.4736   54.4153   24.9992 C.ar      1 UNK         0.0000 
     10 C10         6.6659   54.6976   25.7081 C.ar      1 UNK         0.0000 
     11 N11         1.9898   53.3437   22.8496 N.am      1 UNK         0.0000 
     12 C12         0.9909   52.4947   23.2000 C.2       1 UNK         0.0000 
     13 O13         0.9045   52.0040   24.3238 O.2       1 UNK         0.0000 
     14 C14         0.0410   52.1557   22.1343 C.2       1 UNK         0.0000 
     15 C15        -1.2792   51.9400   22.4139 C.2       1 UNK         0.0000 
     16 C16        -2.0423   52.0403   23.6732 C.ar      1 UNK         0.0000 
     17 C17        -1.8751   51.1460   24.7510 C.ar      1 UNK         0.0000 
     18 C18        -2.6868   51.2316   25.8941 C.ar      1 UNK         0.0000 
     19 C19        -3.6798   52.2079   25.9057 C.ar      1 UNK         0.0000 
     20 C20        -3.8467   53.0734   24.8631 C.ar      1 UNK         0.0000 
     21 C21        -3.0423   53.0201   23.7346 C.ar      1 UNK         0.0000 
     22 O22        -4.8686   53.9251   25.1340 O.3       1 UNK         0.0000 
     23 C23        -5.5108   53.3678   26.2466 C.3       1 UNK         0.0000 
     24 O24        -4.6063   52.4873   26.8615 O.3       1 UNK         0.0000 
     25 N25         0.5845   52.0949   20.8600 N.am      1 UNK         0.0000 
     26 C26        -0.0119   52.0945   19.6423 C.2       1 UNK         0.0000 
     27 O27        -1.2328   52.0976   19.4608 O.2       1 UNK         0.0000 
     28 C28         0.9222   52.0906   18.4505 C.ar      1 UNK         0.0000 
     29 C29         2.2741   52.4606   18.5665 C.ar      1 UNK         0.0000 
     30 C30         3.1042   52.4558   17.4503 C.ar      1 UNK         0.0000 
     31 C31         2.5968   52.0948   16.2078 C.ar      1 UNK         0.0000 
     32 C32         1.2603   51.7314   16.0716 C.ar      1 UNK         0.0000 
     33 C33         0.4276   51.7302   17.1869 C.ar      1 UNK         0.0000 
     34 Br34        3.7390   52.0943   14.6863 Br        1 UNK         0.0000 
     35 H35         7.5823   54.8846   27.6538 H         1 UNK         0.0000 
     36 H36         5.5496   54.3686   28.8945 H         1 UNK         0.0000 
     37 H37         3.4365   53.8593   27.7028 H         1 UNK         0.0000 
     38 H38         2.2212   53.5469   25.5934 H         1 UNK         0.0000 
     39 H39         4.2522   54.0849   21.8347 H         1 UNK         0.0000 
     40 H40         6.3213   54.6599   23.0239 H         1 UNK         0.0000 
     41 H41         7.5630   54.9173   25.1505 H         1 UNK         0.0000 
     42 H42         1.9727   53.7051   21.9092 H         1 UNK         0.0000 
     43 H43        -1.9345   51.6490   21.6117 H         1 UNK         0.0000 
     44 H44        -1.1188   50.3749   24.7031 H         1 UNK         0.0000 
     45 H45        -2.5474   50.5460   26.7192 H         1 UNK         0.0000 
     46 H46        -3.2013   53.6987   22.9114 H         1 UNK         0.0000 
     47 H47        -6.3881   52.8101   25.9120 H         1 UNK         0.0000 
     48 H48        -5.8428   54.1471   26.9298 H         1 UNK         0.0000 
     49 H49         1.5898   52.0192   20.8349 H         1 UNK         0.0000 
     50 H50         2.7077   52.7599   19.5095 H         1 UNK         0.0000 
     51 H51         4.1487   52.7174   17.5512 H         1 UNK         0.0000 
     52 H52         0.8739   51.4512   15.1042 H         1 UNK         0.0000 
     53 H53        -0.6080   51.4435   17.0587 H         1 UNK         0.0000 
@<TRIPOS>BOND
     1    1   10 ar   
     2    1    2 ar   
     3    1   35 1    
     4    2    3 ar   
     5    2   36 1    
     6    3    4 ar   
     7    3   37 1    
     8    4    9 ar   
     9    4    5 ar   
    10    5    6 ar   
    11    5   38 1    
    12    6    7 ar   
    13    6   11 1    
    14    7    8 ar   
    15    7   39 1    
    16    8    9 ar   
    17    8   40 1    
    18    9   10 ar   
    19   10   41 1    
    20   11   12 am   BACKBONE|DICT|INTERRES
    21   11   42 1    
    22   12   13 2    
    23   12   14 1    
    24   14   15 2    
    25   14   25 1    
    26   15   16 1    
    27   15   43 1    
    28   16   21 ar   
    29   16   17 ar   
    30   17   18 ar   
    31   17   44 1    
    32   18   19 ar   
    33   18   45 1    
    34   19   24 1    
    35   19   20 ar   
    36   20   21 ar   
    37   20   22 1    
    38   21   46 1    
    39   22   23 1    
    40   23   24 1    
    41   23   47 1    
    42   23   48 1    
    43   25   26 am   BACKBONE|DICT|INTERRES
    44   25   49 1    
    45   26   27 2    
    46   26   28 1    
    47   28   33 ar   
    48   28   29 ar   
    49   29   30 ar   
    50   29   50 1    
    51   30   31 ar   
    52   30   51 1    
    53   31   32 ar   
    54   31   34 1    
    55   32   33 ar   
    56   32   52 1    
    57   33   53 1    
@<TRIPOS>SUBSTRUCTURE
     1 UNK         1 GROUP             0       ****    0 ROOT    
