@<TRIPOS>MOLECULE
ZINC19368109_6190
61   63    1
SMALL
USER_CHARGES


@<TRIPOS>ATOM
      1 C1          4.4191   55.0551   25.7925 C.3       1 UNK         0.0000 
      2 C2          4.3496   54.4679   24.3969 C.ar      1 UNK         0.0000 
      3 C3          5.4927   53.9082   23.8355 C.ar      1 UNK         0.0000 
      4 C4          5.4223   53.2956   22.5898 C.ar      1 UNK         0.0000 
      5 C5          4.2247   53.2588   21.8597 C.ar      1 UNK         0.0000 
      6 C6          3.1034   53.9032   22.4087 C.ar      1 UNK         0.0000 
      7 C7          3.1554   54.4792   23.6762 C.ar      1 UNK         0.0000 
      8 C8          4.1762   52.5553   20.4655 C.3       1 UNK         0.0000 
      9 C9          2.7473   52.1250   20.0151 C.ar      1 UNK         0.0000 
     10 C10         1.9387   51.4285   20.9274 C.ar      1 UNK         0.0000 
     11 C11         0.6626   50.9980   20.5778 C.ar      1 UNK         0.0000 
     12 C12         0.1834   51.2250   19.2898 C.ar      1 UNK         0.0000 
     13 C13         0.9849   51.8757   18.3540 C.ar      1 UNK         0.0000 
     14 C14         2.2605   52.3078   18.7076 C.ar      1 UNK         0.0000 
     15 C15        -1.2098   50.7647   18.9035 C.3       1 UNK         0.0000 
     16 C16         4.8823   53.5358   19.4572 C.2       1 UNK         0.0000 
     17 O17         5.9231   53.2179   18.8698 O.2       1 UNK         0.0000 
     18 N18         4.3042   54.7432   19.2824 N.am      1 UNK         0.0000 
     19 N19         4.8354   55.6494   18.3607 N.am      1 UNK         0.0000 
     20 C20         5.7388   56.5739   18.7592 C.2       1 UNK         0.0000 
     21 O21         6.2434   56.6017   19.8862 O.2       1 UNK         0.0000 
     22 C22         6.1447   57.6844   17.7624 C.3       1 UNK         0.0000 
     23 N23         5.2518   57.8321   16.5852 N.3       1 UNK         0.0000 
     24 C24         3.9559   58.4177   16.9840 C.3       1 UNK         0.0000 
     25 C25         3.0203   58.6645   15.7880 C.3       1 UNK         0.0000 
     26 N26         3.7200   59.6891   14.8815 N.4       1 UNK         0.0000 
     27 C27         5.0737   59.1164   14.4112 C.3       1 UNK         0.0000 
     28 C28         5.9232   58.7660   15.6554 C.3       1 UNK         0.0000 
     29 C29         2.8304   60.1009   13.6918 C.3       1 UNK         0.0000 
     30 O30         4.9451   51.3567   20.4817 O.3       1 UNK         0.0000 
     31 H31         5.2953   55.6967   25.8862 H         1 UNK         0.0000 
     32 H32         3.5415   55.6539   26.0315 H         1 UNK         0.0000 
     33 H33         4.5158   54.2579   26.5302 H         1 UNK         0.0000 
     34 H34         6.4249   53.8981   24.3818 H         1 UNK         0.0000 
     35 H35         6.3038   52.8065   22.2174 H         1 UNK         0.0000 
     36 H36         2.1688   53.9371   21.8705 H         1 UNK         0.0000 
     37 H37         2.2659   54.9289   24.0913 H         1 UNK         0.0000 
     38 H38         2.3037   51.2208   21.9230 H         1 UNK         0.0000 
     39 H39         0.0574   50.4787   21.3063 H         1 UNK         0.0000 
     40 H40         0.6300   52.0344   17.3462 H         1 UNK         0.0000 
     41 H41         2.8596   52.7751   17.9409 H         1 UNK         0.0000 
     42 H42        -1.6762   51.4793   18.2249 H         1 UNK         0.0000 
     43 H43        -1.1656   49.7958   18.4054 H         1 UNK         0.0000 
     44 H44        -1.8597   50.6866   19.7753 H         1 UNK         0.0000 
     45 H45         3.4160   55.0238   19.6786 H         1 UNK         0.0000 
     46 H46         4.3893   55.6304   17.4549 H         1 UNK         0.0000 
     47 H47         6.2072   58.6327   18.3032 H         1 UNK         0.0000 
     48 H48         7.1702   57.4890   17.4421 H         1 UNK         0.0000 
     49 H49         3.4396   57.7625   17.6818 H         1 UNK         0.0000 
     50 H50         4.1385   59.3698   17.4801 H         1 UNK         0.0000 
     51 H51         2.0984   59.1397   16.1276 H         1 UNK         0.0000 
     52 H52         2.7968   57.7660   15.2101 H         1 UNK         0.0000 
     53 H53         5.5562   59.9184   13.8499 H         1 UNK         0.0000 
     54 H54         4.8808   58.2573   13.7652 H         1 UNK         0.0000 
     55 H55         6.1081   59.6981   16.1955 H         1 UNK         0.0000 
     56 H56         6.8803   58.3580   15.3248 H         1 UNK         0.0000 
     57 H57         2.6244   59.2122   13.0925 H         1 UNK         0.0000 
     58 H58         1.9155   60.5273   14.1067 H         1 UNK         0.0000 
     59 H59         3.3793   60.8528   13.1217 H         1 UNK         0.0000 
     60 H60         5.1044   51.0941   19.5461 H         1 UNK         0.0000 
     61 H61         3.9044   60.4967   15.4832 H         1 UNK         0.0000 
@<TRIPOS>BOND
     1    1    2 1    
     2    1   31 1    
     3    1   32 1    
     4    1   33 1    
     5    2    7 ar   
     6    2    3 ar   
     7    3    4 ar   
     8    3   34 1    
     9    4    5 ar   
    10    4   35 1    
    11    5    6 ar   
    12    5    8 1    
    13    6    7 ar   
    14    6   36 1    
    15    7   37 1    
    16    8    9 1    
    17    8   16 1    
    18    8   30 1    
    19    9   14 ar   
    20    9   10 ar   
    21   10   11 ar   
    22   10   38 1    
    23   11   12 ar   
    24   11   39 1    
    25   12   13 ar   
    26   12   15 1    
    27   13   14 ar   
    28   13   40 1    
    29   14   41 1    
    30   15   42 1    
    31   15   43 1    
    32   15   44 1    
    33   16   17 2    
    34   16   18 am   BACKBONE|DICT|INTERRES
    35   18   19 1    
    36   18   45 1    
    37   19   20 am   BACKBONE|DICT|INTERRES
    38   19   46 1    
    39   20   21 2    
    40   20   22 1    
    41   22   23 1    
    42   22   47 1    
    43   22   48 1    
    44   23   28 1    
    45   23   24 1    
    46   24   25 1    
    47   24   49 1    
    48   24   50 1    
    49   25   26 1    
    50   25   51 1    
    51   25   52 1    
    52   26   27 1    
    53   26   29 1    
    54   26   61 1    
    55   27   28 1    
    56   27   53 1    
    57   27   54 1    
    58   28   55 1    
    59   28   56 1    
    60   29   57 1    
    61   29   58 1    
    62   29   59 1    
    63   30   60 1    
@<TRIPOS>SUBSTRUCTURE
     1 UNK         1 GROUP             0       ****    0 ROOT    
