@<TRIPOS>MOLECULE
ZINC35374416_3658
56   58    1
SMALL
USER_CHARGES


@<TRIPOS>ATOM
      1 C1         -6.9578   43.6984   28.0061 C.3       1 UNK         0.0000 
      2 C2         -5.4984   43.6232   27.5138 C.3       1 UNK         0.0000 
      3 C3         -4.8060   44.9812   27.2296 C.3       1 UNK         0.0000 
      4 H4         -3.7905   44.7366   26.9077 H         1 UNK         0.0000 
      5 C5         -4.6422   45.8390   28.5096 C.3       1 UNK         0.0000 
      6 C6         -5.4537   45.7491   26.0418 C.3       1 UNK         0.0000 
      7 N7         -5.0015   47.1312   25.8791 N.am      1 UNK         0.0000 
      8 C8         -3.7482   47.5267   25.6021 C.2       1 UNK         0.0000 
      9 O9         -2.8310   46.7518   25.3256 O.2       1 UNK         0.0000 
     10 C10        -3.5169   49.0433   25.6652 C.3       1 UNK         0.0000 
     11 H11        -4.1646   49.4767   26.4315 H         1 UNK         0.0000 
     12 C12        -3.6908   49.6952   24.2849 C.3       1 UNK         0.0000 
     13 S13        -2.8157   51.2757   24.3656 S.3       1 UNK         0.0000 
     14 C14        -1.8585   50.9062   25.8624 C.3       1 UNK         0.0000 
     15 N15        -2.0769   49.3909   26.0815 N.4       1 UNK         0.0000 
     16 C16        -2.3943   51.7092   27.0795 C.3       1 UNK         0.0000 
     17 C17        -1.5509   51.5298   28.3607 C.3       1 UNK         0.0000 
     18 N18        -0.1509   51.8319   28.0160 N.am      1 UNK         0.0000 
     19 C19         0.4422   50.9626   26.9790 C.3       1 UNK         0.0000 
     20 C20        -0.3509   51.1765   25.6723 C.3       1 UNK         0.0000 
     21 C21         0.4925   52.8740   28.6145 C.2       1 UNK         0.0000 
     22 O22        -0.0427   53.6071   29.4475 O.2       1 UNK         0.0000 
     23 C23         1.9425   53.1316   28.2772 C.ar      1 UNK         0.0000 
     24 C24         2.2735   53.6974   27.0393 C.ar      1 UNK         0.0000 
     25 C25         3.6012   53.9759   26.7161 C.ar      1 UNK         0.0000 
     26 C26         4.6170   53.6807   27.6227 C.ar      1 UNK         0.0000 
     27 C27         4.3013   53.1030   28.8529 C.ar      1 UNK         0.0000 
     28 C28         2.9748   52.8251   29.1880 C.ar      1 UNK         0.0000 
     29 Cl29        2.6702   52.0986   30.7314 Cl        1 UNK         0.0000 
     30 Cl30        6.2632   54.0162   27.2240 Cl        1 UNK         0.0000 
     31 H31        -7.3243   42.7035   28.2639 H         1 UNK         0.0000 
     32 H32        -7.6232   44.0842   27.2329 H         1 UNK         0.0000 
     33 H33        -7.0737   44.3304   28.8823 H         1 UNK         0.0000 
     34 H34        -4.9142   43.0716   28.2519 H         1 UNK         0.0000 
     35 H35        -5.4626   43.0058   26.6162 H         1 UNK         0.0000 
     36 H36        -5.6014   46.1551   28.9200 H         1 UNK         0.0000 
     37 H37        -4.0954   45.2975   29.2805 H         1 UNK         0.0000 
     38 H38        -4.0496   46.7363   28.3298 H         1 UNK         0.0000 
     39 H39        -5.3302   45.1952   25.1088 H         1 UNK         0.0000 
     40 H40        -6.5317   45.8130   26.1973 H         1 UNK         0.0000 
     41 H41        -5.6904   47.8402   26.0792 H         1 UNK         0.0000 
     42 H42        -3.2313   49.1133   23.4836 H         1 UNK         0.0000 
     43 H43        -4.7375   49.8708   24.0313 H         1 UNK         0.0000 
     44 H44        -1.8569   49.0754   27.0364 H         1 UNK         0.0000 
     45 H45        -2.4117   52.7703   26.8260 H         1 UNK         0.0000 
     46 H46        -3.4326   51.4573   27.2925 H         1 UNK         0.0000 
     47 H47        -1.9236   52.0917   29.2173 H         1 UNK         0.0000 
     48 H48        -1.5882   50.4995   28.6871 H         1 UNK         0.0000 
     49 H49         1.5045   51.1115   26.8608 H         1 UNK         0.0000 
     50 H50         0.3276   49.9226   27.2826 H         1 UNK         0.0000 
     51 H51         0.0575   50.5390   24.8866 H         1 UNK         0.0000 
     52 H52        -0.1951   52.1978   25.3219 H         1 UNK         0.0000 
     53 H53         1.5036   53.9443   26.3232 H         1 UNK         0.0000 
     54 H54         3.8431   54.4218   25.7627 H         1 UNK         0.0000 
     55 H55         5.0912   52.8615   29.5438 H         1 UNK         0.0000 
     56 H56        -1.4431   48.8755   25.4827 H         1 UNK         0.0000 
@<TRIPOS>BOND
     1    1    2 1    
     2    1   31 1    
     3    1   32 1    
     4    1   33 1    
     5    2    3 1    
     6    2   34 1    
     7    2   35 1    
     8    3    4 1    
     9    3    5 1    
    10    3    6 1    
    11    5   36 1    
    12    5   37 1    
    13    5   38 1    
    14    6    7 1    
    15    6   39 1    
    16    6   40 1    
    17    7    8 am   BACKBONE|DICT|INTERRES
    18    7   41 1    
    19    8    9 2    
    20    8   10 1    
    21   10   11 1    
    22   10   15 1    
    23   10   12 1    
    24   12   13 1    
    25   12   42 1    
    26   12   43 1    
    27   13   14 1    
    28   14   20 1    
    29   14   15 1    
    30   14   16 1    
    31   15   44 1    
    32   15   56 1    
    33   16   17 1    
    34   16   45 1    
    35   16   46 1    
    36   17   18 1    
    37   17   47 1    
    38   17   48 1    
    39   18   19 1    
    40   18   21 am   BACKBONE|DICT|INTERRES
    41   19   20 1    
    42   19   49 1    
    43   19   50 1    
    44   20   51 1    
    45   20   52 1    
    46   21   22 2    
    47   21   23 1    
    48   23   28 ar   
    49   23   24 ar   
    50   24   25 ar   
    51   24   53 1    
    52   25   26 ar   
    53   25   54 1    
    54   26   27 ar   
    55   26   30 1    
    56   27   28 ar   
    57   27   55 1    
    58   28   29 1    
@<TRIPOS>SUBSTRUCTURE
     1 UNK         1 GROUP             0       ****    0 ROOT    
