ZINC39672238_3073
                    3D
 Schrodinger Suite 2024-2.
 77 81  0  0  1  0            999 V2000
   -1.3433   51.7286   29.0851 C   0  0  0  0  0  0
   -0.4881   52.5472   28.0964 C   0  0  0  0  0  0
   -0.2416   51.8791   26.7009 C   0  0  1  0  0  0
    0.1527   50.8784   26.8946 H   0  0  0  0  0  0
   -1.6011   51.6536   25.9772 C   0  0  0  0  0  0
   -2.0714   52.5017   24.9630 C   0  0  0  0  0  0
   -3.3119   52.2970   24.3678 C   0  0  0  0  0  0
   -4.1091   51.2368   24.7861 C   0  0  0  0  0  0
   -3.6730   50.3898   25.8001 C   0  0  0  0  0  0
   -2.4308   50.6060   26.3899 C   0  0  0  0  0  0
    0.8786   52.4856   25.7687 C   0  0  0  0  0  0
    0.8005   52.2356   24.5614 O   0  0  0  0  0  0
    1.9206   53.2558   26.2017 N   0  0  0  0  0  0
    2.8631   53.8482   25.2526 C   0  0  0  0  0  0
    3.8575   54.6896   26.0972 C   0  0  1  0  0  0
    3.4617   55.6968   26.1407 H   0  0  0  0  0  0
    3.8455   53.9760   27.4885 C   0  0  0  0  0  0
    2.4068   53.4079   27.5662 C   0  0  0  0  0  0
    4.8280   52.7866   27.6782 C   0  0  0  0  0  0
    6.3193   53.1256   27.7243 C   0  0  0  0  0  0
    6.4743   54.0966   28.8815 N   0  3  0  0  0  0
    5.5048   55.2883   28.9089 C   0  0  0  0  0  0
    4.0566   54.8366   28.7462 C   0  0  0  0  0  0
    5.1910   54.8497   25.3128 C   0  0  0  0  0  0
    6.0062   55.6955   25.6814 O   0  0  0  0  0  0
    5.4161   54.0981   24.2225 N   0  0  0  0  0  0
    6.5967   54.1554   23.3756 C   0  0  0  0  0  0
    6.3103   54.7222   21.9919 C   0  0  0  0  0  0
    7.1571   55.6944   21.4628 C   0  0  0  0  0  0
    6.9946   56.1283   20.1523 C   0  0  0  0  0  0
    5.9907   55.6005   19.3306 C   0  0  0  0  0  0
    5.1111   54.6245   19.8695 C   0  0  0  0  0  0
    5.2810   54.2115   21.1971 C   0  0  0  0  0  0
    4.0311   53.9793   19.0079 C   0  0  0  0  0  0
    3.6139   54.9362   17.8890 C   0  0  0  0  0  0
    4.8464   55.4421   17.1330 C   0  0  0  0  0  0
    5.7927   56.1109   18.0357 N   0  0  0  0  0  0
    6.8413   56.7285   17.2200 C   0  0  0  0  0  0
   -1.2952   52.1482   30.0907 H   0  0  0  0  0  0
   -2.3961   51.6966   28.8054 H   0  0  0  0  0  0
   -0.9805   50.7071   29.1517 H   0  0  0  0  0  0
    0.4203   52.6747   28.6650 H   0  0  0  0  0  0
   -0.8955   53.5476   27.9559 H   0  0  0  0  0  0
   -1.4755   53.3318   24.6209 H   0  0  0  0  0  0
   -3.6486   52.9610   23.5869 H   0  0  0  0  0  0
   -5.0749   51.0732   24.3296 H   0  0  0  0  0  0
   -4.2981   49.5788   26.1412 H   0  0  0  0  0  0
   -2.1216   49.9763   27.2071 H   0  0  0  0  0  0
    3.3484   52.9729   24.8189 H   0  0  0  0  0  0
    2.3716   54.4218   24.4632 H   0  0  0  0  0  0
    1.7872   54.1899   28.0096 H   0  0  0  0  0  0
    2.3929   52.5090   28.1834 H   0  0  0  0  0  0
    4.5758   52.2127   28.5720 H   0  0  0  0  0  0
    4.7059   52.0967   26.8816 H   0  0  0  0  0  0
    6.9322   52.2698   28.0080 H   0  0  0  0  0  0
    6.7690   53.5708   26.8422 H   0  0  0  0  0  0
    6.3140   53.5223   29.6817 H   0  0  0  0  0  0
    5.6582   55.7832   29.8673 H   0  0  0  0  0  0
    5.9048   55.8753   28.0910 H   0  0  0  0  0  0
    3.3858   55.6966   28.7397 H   0  0  0  0  0  0
    3.7735   54.2771   29.6391 H   0  0  0  0  0  0
    4.7071   53.4430   23.9351 H   0  0  0  0  0  0
    7.4023   54.7264   23.8446 H   0  0  0  0  0  0
    6.9789   53.1382   23.2714 H   0  0  0  0  0  0
    7.9703   56.0964   22.0546 H   0  0  0  0  0  0
    7.6771   56.8759   19.7787 H   0  0  0  0  0  0
    4.6333   53.4411   21.5906 H   0  0  0  0  0  0
    4.4284   53.0613   18.5714 H   0  0  0  0  0  0
    3.1665   53.6881   19.6055 H   0  0  0  0  0  0
    3.1003   55.7966   18.3133 H   0  0  0  0  0  0
    2.9104   54.4568   17.2075 H   0  0  0  0  0  0
    4.6182   56.0118   16.2298 H   0  0  0  0  0  0
    5.3836   54.5702   16.7584 H   0  0  0  0  0  0
    7.4939   55.9690   16.7855 H   0  0  0  0  0  0
    6.4134   57.3205   16.4092 H   0  0  0  0  0  0
    7.4584   57.4171   17.7914 H   0  0  0  0  0  0
    7.4231   54.4457   28.9521 H   0  0  0  0  0  0
  1  2  1  0  0  0
  1 39  1  0  0  0
  1 40  1  0  0  0
  1 41  1  0  0  0
  2  3  1  0  0  0
  2 42  1  0  0  0
  2 43  1  0  0  0
  3  4  1  0  0  0
  3  5  1  0  0  0
  3 11  1  0  0  0
  5 10  2  0  0  0
  5  6  1  0  0  0
  6  7  2  0  0  0
  6 44  1  0  0  0
  7  8  1  0  0  0
  7 45  1  0  0  0
  8  9  2  0  0  0
  8 46  1  0  0  0
  9 10  1  0  0  0
  9 47  1  0  0  0
 10 48  1  0  0  0
 11 12  2  0  0  0
 11 13  1  0  0  0
 13 18  1  0  0  0
 13 14  1  0  0  0
 14 15  1  0  0  0
 14 49  1  0  0  0
 14 50  1  0  0  0
 15 16  1  0  0  0
 15 17  1  0  0  0
 15 24  1  0  0  0
 17 23  1  0  0  0
 17 18  1  0  0  0
 17 19  1  0  0  0
 18 51  1  0  0  0
 18 52  1  0  0  0
 19 20  1  0  0  0
 19 53  1  0  0  0
 19 54  1  0  0  0
 20 21  1  0  0  0
 20 55  1  0  0  0
 20 56  1  0  0  0
 21 22  1  0  0  0
 21 57  1  0  0  0
 21 77  1  0  0  0
 22 23  1  0  0  0
 22 58  1  0  0  0
 22 59  1  0  0  0
 23 60  1  0  0  0
 23 61  1  0  0  0
 24 25  2  0  0  0
 24 26  1  0  0  0
 26 27  1  0  0  0
 26 62  1  0  0  0
 27 28  1  0  0  0
 27 63  1  0  0  0
 27 64  1  0  0  0
 28 33  2  0  0  0
 28 29  1  0  0  0
 29 30  2  0  0  0
 29 65  1  0  0  0
 30 31  1  0  0  0
 30 66  1  0  0  0
 31 37  1  0  0  0
 31 32  2  0  0  0
 32 33  1  0  0  0
 32 34  1  0  0  0
 33 67  1  0  0  0
 34 35  1  0  0  0
 34 68  1  0  0  0
 34 69  1  0  0  0
 35 36  1  0  0  0
 35 70  1  0  0  0
 35 71  1  0  0  0
 36 37  1  0  0  0
 36 72  1  0  0  0
 36 73  1  0  0  0
 37 38  1  0  0  0
 38 74  1  0  0  0
 38 75  1  0  0  0
 38 76  1  0  0  0
M  CHG  1  21   1
M  END
> <i_i_glide_confnum>
321

> <i_i_glide_lignum>
3074

> <i_i_glide_posenum>
42

> <i_i_glide_rotatable_bonds>
8

> <i_m_Source_File_Index>
2578

> <b_m_subgroup_collapsed>
0

> <r_i_docking_score>
-4.89533

> <r_i_glide_ecoul>
-3.23578

> <r_i_glide_eff_state_penalty>
0

> <r_i_glide_einternal>
4.50019

> <r_i_glide_emodel>
-46.2813

> <r_i_glide_energy>
-32.317

> <r_i_glide_erotb>
0.593948

> <r_i_glide_esite>
0

> <r_i_glide_evdw>
-29.0812

> <r_i_glide_gscore>
-4.89533

> <r_i_glide_hbond>
0

> <r_i_glide_ligand_efficiency>
-0.135981

> <r_i_glide_ligand_efficiency_ln>
-1.06803

> <r_i_glide_ligand_efficiency_sa>
-0.449001

> <r_i_glide_lipo>
-2.72789

> <r_i_glide_metal>
0

> <r_i_glide_rewards>
-0.821961

> <s_i_glide_gridfile>
wee1_glide-grid

> <s_m_Source_File>
wee1_decoys_glide_SP.sdf

> <s_m_Source_Path>
/Users/zhangxujun/Desktop

> <s_m_entry_id>
2853

> <s_m_entry_name>
wee1_decoys_glide_SP.2578

> <s_m_subgroup_title>
wee1_decoys_glide_SP

> <s_m_subgroupid>
wee1_decoys_glide_SP


$$$$
