@<TRIPOS>MOLECULE
ZINC03840771_4361
67   71    1
SMALL
USER_CHARGES


@<TRIPOS>ATOM
      1 C1          1.6716   47.8831   20.0427 C.3       1 UNK         0.0000 
      2 C2          1.0453   48.9620   20.9606 C.3       1 UNK         0.0000 
      3 H3          1.0576   48.5008   21.9457 H         1 UNK         0.0000 
      4 C4         -0.4089   49.2621   20.6067 C.2       1 UNK         0.0000 
      5 C5         -0.8420   50.4838   20.0714 C.2       1 UNK         0.0000 
      6 S6         -2.5667   50.4182   19.8374 S.3       1 UNK         0.0000 
      7 C7         -2.5365   48.7910   20.4341 C.2       1 UNK         0.0000 
      8 N8         -1.3496   48.3497   20.7812 N.2       1 UNK         0.0000 
      9 N9         -3.7455   48.1042   20.4890 N.am      1 UNK         0.0000 
     10 C10        -3.9411   46.8508   20.9507 C.2       1 UNK         0.0000 
     11 O11        -3.0575   46.1272   21.4172 O.2       1 UNK         0.0000 
     12 C12        -5.3735   46.2867   20.9058 C.3       1 UNK         0.0000 
     13 C13        -6.4364   47.0078   20.0974 C.3       1 UNK         0.0000 
     14 C14        -5.8194   45.7127   19.5802 C.3       1 UNK         0.0000 
     15 C15         0.0244   51.7124   19.8378 C.3       1 UNK         0.0000 
     16 C16         1.5319   51.2902   19.8255 C.3       1 UNK         0.0000 
     17 C17         1.8528   50.3125   21.0269 C.3       1 UNK         0.0000 
     18 H18         2.9138   50.0620   20.9493 H         1 UNK         0.0000 
     19 C19         1.7021   51.0808   22.4016 C.3       1 UNK         0.0000 
     20 H20         0.6711   51.4204   22.4823 H         1 UNK         0.0000 
     21 C21         2.6204   52.3444   22.5024 C.3       1 UNK         0.0000 
     22 H22         3.6315   51.9686   22.3595 H         1 UNK         0.0000 
     23 C23         2.3542   53.2473   21.2823 C.3       1 UNK         0.0000 
     24 C24         2.4989   52.4964   19.9525 C.3       1 UNK         0.0000 
     25 C25         2.5452   53.1510   23.8640 C.3       1 UNK         0.0000 
     26 H26         2.4959   52.4148   24.6658 H         1 UNK         0.0000 
     27 C27         1.2556   54.0180   23.9449 C.3       1 UNK         0.0000 
     28 C28         3.8192   54.0102   24.1507 C.2       1 UNK         0.0000 
     29 O29         4.5854   54.2364   23.2093 O.2       1 UNK         0.0000 
     30 N30         4.1533   54.3817   25.4209 N.am      1 UNK         0.0000 
     31 C31         5.4134   55.1171   25.6620 C.3       1 UNK         0.0000 
     32 C32         6.2808   54.2963   26.6351 C.3       1 UNK         0.0000 
     33 S33         5.5139   54.1143   28.2710 S.3       1 UNK         0.0000 
     34 C34         3.9546   53.4226   27.6744 C.3       1 UNK         0.0000 
     35 C35         3.2593   54.2676   26.5942 C.3       1 UNK         0.0000 
     36 O36         1.8886   50.2446   23.5248 O.3       1 UNK         0.0000 
     37 C37         1.8440   50.6584   18.4419 C.3       1 UNK         0.0000 
     38 H38         1.1271   46.9397   20.0841 H         1 UNK         0.0000 
     39 H39         1.6864   48.1466   18.9909 H         1 UNK         0.0000 
     40 H40         2.7042   47.6966   20.3348 H         1 UNK         0.0000 
     41 H41        -4.5567   48.6066   20.1663 H         1 UNK         0.0000 
     42 H42        -5.6789   45.7782   21.8223 H         1 UNK         0.0000 
     43 H43        -7.4624   46.9894   20.4705 H         1 UNK         0.0000 
     44 H44        -6.2184   47.9350   19.5677 H         1 UNK         0.0000 
     45 H45        -5.1464   45.7522   18.7214 H         1 UNK         0.0000 
     46 H46        -6.4185   44.8021   19.5897 H         1 UNK         0.0000 
     47 H47        -0.1911   52.3893   20.6611 H         1 UNK         0.0000 
     48 H48        -0.2508   52.2403   18.9222 H         1 UNK         0.0000 
     49 H49         1.3616   53.6771   21.3732 H         1 UNK         0.0000 
     50 H50         3.0359   54.0972   21.2815 H         1 UNK         0.0000 
     51 H51         2.3163   53.2050   19.1417 H         1 UNK         0.0000 
     52 H52         3.5331   52.1763   19.8248 H         1 UNK         0.0000 
     53 H53         1.1068   54.4875   24.9107 H         1 UNK         0.0000 
     54 H54         1.2692   54.8432   23.2307 H         1 UNK         0.0000 
     55 H55         0.3648   53.4209   23.7504 H         1 UNK         0.0000 
     56 H56         5.1745   56.0899   26.0815 H         1 UNK         0.0000 
     57 H57         5.9661   55.3371   24.7463 H         1 UNK         0.0000 
     58 H58         6.4641   53.2972   26.2387 H         1 UNK         0.0000 
     59 H59         7.2509   54.7643   26.7834 H         1 UNK         0.0000 
     60 H60         4.1916   52.4435   27.2826 H         1 UNK         0.0000 
     61 H61         3.3018   53.2807   28.5338 H         1 UNK         0.0000 
     62 H62         2.3046   53.8008   26.3746 H         1 UNK         0.0000 
     63 H63         3.0489   55.2649   26.9802 H         1 UNK         0.0000 
     64 H64         1.2638   49.5132   23.4884 H         1 UNK         0.0000 
     65 H65         1.0617   49.9763   18.1060 H         1 UNK         0.0000 
     66 H66         1.9220   51.4109   17.6563 H         1 UNK         0.0000 
     67 H67         2.7920   50.1186   18.4550 H         1 UNK         0.0000 
@<TRIPOS>BOND
     1    1    2 1    
     2    1   38 1    
     3    1   39 1    
     4    1   40 1    
     5    2    3 1    
     6    2   17 1    
     7    2    4 1    
     8    4    8 1    
     9    4    5 2    
    10    5    6 1    
    11    5   15 1    
    12    6    7 1    
    13    7    8 2    
    14    7    9 am   BACKBONE|DICT|INTERRES
    15    9   10 am   BACKBONE|DICT|INTERRES
    16    9   41 1    
    17   10   11 2    
    18   10   12 1    
    19   12   14 1    
    20   12   13 1    
    21   12   42 1    
    22   13   14 1    
    23   13   43 1    
    24   13   44 1    
    25   14   45 1    
    26   14   46 1    
    27   15   16 1    
    28   15   47 1    
    29   15   48 1    
    30   16   24 1    
    31   16   17 1    
    32   16   37 1    
    33   17   18 1    
    34   17   19 1    
    35   19   20 1    
    36   19   21 1    
    37   19   36 1    
    38   21   22 1    
    39   21   23 1    
    40   21   25 1    
    41   23   24 1    
    42   23   49 1    
    43   23   50 1    
    44   24   51 1    
    45   24   52 1    
    46   25   26 1    
    47   25   27 1    
    48   25   28 1    
    49   27   53 1    
    50   27   54 1    
    51   27   55 1    
    52   28   29 2    
    53   28   30 am   BACKBONE|DICT|INTERRES
    54   30   35 1    
    55   30   31 1    
    56   31   32 1    
    57   31   56 1    
    58   31   57 1    
    59   32   33 1    
    60   32   58 1    
    61   32   59 1    
    62   33   34 1    
    63   34   35 1    
    64   34   60 1    
    65   34   61 1    
    66   35   62 1    
    67   35   63 1    
    68   36   64 1    
    69   37   65 1    
    70   37   66 1    
    71   37   67 1    
@<TRIPOS>SUBSTRUCTURE
     1 UNK         1 GROUP             0       ****    0 ROOT    
