@<TRIPOS>MOLECULE
ZINC09781058_6099
64   68    1
SMALL
USER_CHARGES


@<TRIPOS>ATOM
      1 C1          1.1801   47.8815   20.0817 C.3       1 UNK         0.0000 
      2 C2          1.3071   48.7201   18.7845 C.3       1 UNK         0.0000 
      3 C3          0.0265   49.5663   18.5595 C.3       1 UNK         0.0000 
      4 C4         -0.1837   50.6960   19.5865 C.2       1 UNK         0.0000 
      5 C5          1.0180   51.1906   20.3079 C.2       1 UNK         0.0000 
      6 C6          0.8155   52.2524   21.4156 C.3       1 UNK         0.0000 
      7 H7          0.3591   53.1069   20.9156 H         1 UNK         0.0000 
      8 C8          2.1690   52.7875   21.9428 C.ar      1 UNK         0.0000 
      9 C9          3.3989   52.2678   21.5061 C.ar      1 UNK         0.0000 
     10 N10         4.6103   52.6946   21.9476 N.ar      1 UNK         0.0000 
     11 C11         4.5870   53.6908   22.8669 C.ar      1 UNK         0.0000 
     12 N12         3.4755   54.3194   23.2965 N.ar      1 UNK         0.0000 
     13 C13         2.2954   53.8588   22.8378 C.ar      1 UNK         0.0000 
     14 O14         1.2974   54.4939   23.2821 O.co2     1 UNK         0.0000 
     15 S15         6.1116   54.0986   23.6679 S.3       1 UNK         0.0000 
     16 C16         5.6978   55.1787   25.0809 C.3       1 UNK         0.0000 
     17 C17         5.4609   54.4367   26.3861 C.ar      1 UNK         0.0000 
     18 C18         6.5341   54.2182   27.2512 C.ar      1 UNK         0.0000 
     19 C19         6.3252   53.5985   28.4787 C.ar      1 UNK         0.0000 
     20 C20         5.0510   53.1582   28.8390 C.ar      1 UNK         0.0000 
     21 C21         3.9745   53.3828   27.9895 C.ar      1 UNK         0.0000 
     22 C22         4.1726   54.0303   26.7739 C.ar      1 UNK         0.0000 
     23 F23         3.0972   54.2785   26.0011 F         1 UNK         0.0000 
     24 N24         3.3917   51.2573   20.5472 N.pl3     1 UNK         0.0000 
     25 C25         2.2589   50.7846   19.9300 C.2       1 UNK         0.0000 
     26 C26         2.5016   49.7067   18.8797 C.3       1 UNK         0.0000 
     27 C27        -0.1600   51.8378   22.5364 C.ar      1 UNK         0.0000 
     28 C28        -1.4787   52.2885   22.4965 C.ar      1 UNK         0.0000 
     29 C29        -2.3739   51.9753   23.5069 C.ar      1 UNK         0.0000 
     30 C30        -1.9778   51.1928   24.5983 C.ar      1 UNK         0.0000 
     31 C31        -0.6492   50.7320   24.6347 C.ar      1 UNK         0.0000 
     32 C32         0.2498   51.0491   23.6154 C.ar      1 UNK         0.0000 
     33 N33        -2.9085   50.8825   25.6262 N.pl3     1 UNK         0.0000 
     34 C34        -4.3129   51.2790   25.5276 C.3       1 UNK         0.0000 
     35 C35        -2.4982   50.0970   26.7904 C.3       1 UNK         0.0000 
     36 O36        -1.2690   51.2732   19.6470 O.2       1 UNK         0.0000 
     37 C37         1.5125   47.8361   17.5361 C.3       1 UNK         0.0000 
     38 H38         2.0864   47.3020   20.2609 H         1 UNK         0.0000 
     39 H39         1.0120   48.4953   20.9673 H         1 UNK         0.0000 
     40 H40         0.3530   47.1768   20.0174 H         1 UNK         0.0000 
     41 H41        -0.8749   48.9596   18.4988 H         1 UNK         0.0000 
     42 H42         0.1335   50.0788   17.6048 H         1 UNK         0.0000 
     43 H43         4.7783   55.7034   24.8712 H         1 UNK         0.0000 
     44 H44         6.4734   55.9352   25.1973 H         1 UNK         0.0000 
     45 H45         7.5279   54.5362   26.9844 H         1 UNK         0.0000 
     46 H46         7.1660   53.4501   29.1398 H         1 UNK         0.0000 
     47 H47         4.8887   52.6383   29.7706 H         1 UNK         0.0000 
     48 H48         2.9839   53.0565   28.2675 H         1 UNK         0.0000 
     49 H49         2.7045   50.2219   17.9427 H         1 UNK         0.0000 
     50 H50         3.3733   49.1021   19.1354 H         1 UNK         0.0000 
     51 H51        -1.8186   52.8967   21.6746 H         1 UNK         0.0000 
     52 H52        -3.3781   52.3627   23.4277 H         1 UNK         0.0000 
     53 H53        -0.2958   50.1228   25.4509 H         1 UNK         0.0000 
     54 H54         1.2688   50.6921   23.6718 H         1 UNK         0.0000 
     55 H55        -4.7549   50.9147   24.5963 H         1 UNK         0.0000 
     56 H56        -4.9198   50.8884   26.3499 H         1 UNK         0.0000 
     57 H57        -4.4015   52.3690   25.5302 H         1 UNK         0.0000 
     58 H58        -1.6435   50.5588   27.2877 H         1 UNK         0.0000 
     59 H59        -3.2950   49.9869   27.5274 H         1 UNK         0.0000 
     60 H60        -2.1911   49.0953   26.4794 H         1 UNK         0.0000 
     61 H61         4.2880   50.9639   20.1869 H         1 UNK         0.0000 
     62 H62         2.4246   47.2411   17.6157 H         1 UNK         0.0000 
     63 H63         0.6827   47.1431   17.3911 H         1 UNK         0.0000 
     64 H64         1.6030   48.4326   16.6257 H         1 UNK         0.0000 
@<TRIPOS>BOND
     1    1    2 1    
     2    1   38 1    
     3    1   39 1    
     4    1   40 1    
     5    2   26 1    
     6    2    3 1    
     7    2   37 1    
     8    3   41 1    
     9    3   42 1    
    10    3    4 1    
    11    4   36 2    
    12    4    5 1    
    13    5    6 1    
    14    5   25 2    
    15    6    7 1    
    16    6    8 1    
    17    6   27 1    
    18    8   13 ar   
    19    8    9 ar   
    20    9   10 ar   
    21    9   24 1    
    22   10   11 ar   
    23   11   12 ar   
    24   11   15 1    
    25   12   13 ar   
    26   13   14 1    
    27   15   16 1    
    28   16   17 1    
    29   16   43 1    
    30   16   44 1    
    31   17   22 ar   
    32   17   18 ar   
    33   18   19 ar   
    34   18   45 1    
    35   19   20 ar   
    36   19   46 1    
    37   20   21 ar   
    38   20   47 1    
    39   21   22 ar   
    40   21   48 1    
    41   22   23 1    
    42   24   25 1    
    43   24   61 1    
    44   25   26 1    
    45   26   49 1    
    46   26   50 1    
    47   27   32 ar   
    48   27   28 ar   
    49   28   29 ar   
    50   28   51 1    
    51   29   30 ar   
    52   29   52 1    
    53   30   31 ar   
    54   30   33 1    
    55   31   32 ar   
    56   31   53 1    
    57   32   54 1    
    58   33   34 1    
    59   33   35 1    
    60   34   55 1    
    61   34   56 1    
    62   34   57 1    
    63   35   58 1    
    64   35   59 1    
    65   35   60 1    
    66   37   62 1    
    67   37   63 1    
    68   37   64 1    
@<TRIPOS>SUBSTRUCTURE
     1 UNK         1 GROUP             0       ****    0 ROOT    
