@<TRIPOS>MOLECULE
ZINC12151399_4872
63   66    1
SMALL
USER_CHARGES


@<TRIPOS>ATOM
      1 C1          6.7874   54.2293   18.3895 C.3       1 UNK         0.0000 
      2 C2          5.2737   53.9584   18.3968 C.3       1 UNK         0.0000 
      3 C3          4.7984   53.3411   17.0758 C.3       1 UNK         0.0000 
      4 N4          4.8796   53.1188   19.5305 N.am      1 UNK         0.0000 
      5 C5          4.5881   53.5755   20.7655 C.2       1 UNK         0.0000 
      6 O6          4.7040   54.7673   21.0397 O.2       1 UNK         0.0000 
      7 C7          4.1934   52.5426   21.8671 C.3       1 UNK         0.0000 
      8 H8          5.1278   52.3677   22.4011 H         1 UNK         0.0000 
      9 C9          3.4952   51.2737   21.3520 C.3       1 UNK         0.0000 
     10 C10         1.9901   51.5638   21.3078 C.3       1 UNK         0.0000 
     11 H11         1.4258   50.7436   21.7556 H         1 UNK         0.0000 
     12 C12         1.7698   52.7966   22.2037 C.3       1 UNK         0.0000 
     13 C13         3.2666   54.3917   23.6483 C.3       1 UNK         0.0000 
     14 C14         4.3810   54.3775   24.6894 C.ar      1 UNK         0.0000 
     15 C15         5.6876   54.6721   24.2883 C.ar      1 UNK         0.0000 
     16 C16         6.7241   54.6767   25.2145 C.ar      1 UNK         0.0000 
     17 C17         6.4708   54.3871   26.5521 C.ar      1 UNK         0.0000 
     18 C18         5.1730   54.0949   26.9604 C.ar      1 UNK         0.0000 
     19 C19         4.1081   54.0979   26.0422 C.ar      1 UNK         0.0000 
     20 O20         2.7945   53.8330   26.3957 O.3       1 UNK         0.0000 
     21 C21         2.4291   53.6088   27.7599 C.3       1 UNK         0.0000 
     22 C22         2.4813   54.8839   28.5922 C.2       1 UNK         0.0000 
     23 C23         1.5038   55.3183   29.4046 C.2       1 UNK         0.0000 
     24 S24         1.4045   51.8595   19.6098 S.3       1 UNK         0.0000 
     25 C25         1.0795   50.1760   19.2251 C.ar      1 UNK         0.0000 
     26 N26         1.8762   49.3904   18.4199 N.pl3     1 UNK         0.0000 
     27 H27         2.7190   49.7045   17.9463 H         1 UNK         0.0000 
     28 C28         1.2830   48.1515   18.3407 C.ar      1 UNK         0.0000 
     29 C29         1.5919   46.9737   17.6546 C.ar      1 UNK         0.0000 
     30 C30         0.7105   45.9005   17.8310 C.ar      1 UNK         0.0000 
     31 C31        -0.4094   45.9887   18.6601 C.ar      1 UNK         0.0000 
     32 C32        -0.7134   47.1671   19.3447 C.ar      1 UNK         0.0000 
     33 C33         0.1412   48.2672   19.1725 C.ar      1 UNK         0.0000 
     34 N34         0.0468   49.5236   19.7048 N.2       1 UNK         0.0000 
     35 H35         7.0652   54.8622   17.5453 H         1 UNK         0.0000 
     36 H36         7.1124   54.7414   19.2939 H         1 UNK         0.0000 
     37 H37         7.3560   53.3048   18.2807 H         1 UNK         0.0000 
     38 H38         4.7578   54.9210   18.4734 H         1 UNK         0.0000 
     39 H39         5.0682   53.9813   16.2372 H         1 UNK         0.0000 
     40 H40         5.2677   52.3754   16.8836 H         1 UNK         0.0000 
     41 H41         3.7165   53.2189   17.0597 H         1 UNK         0.0000 
     42 H42         4.7920   52.1339   19.3185 H         1 UNK         0.0000 
     43 H43         3.6477   50.4957   22.0878 H         1 UNK         0.0000 
     44 H44         3.9001   50.8925   20.4127 H         1 UNK         0.0000 
     45 H45         1.0215   52.6704   22.9872 H         1 UNK         0.0000 
     46 H46         1.5420   53.7021   21.6614 H         1 UNK         0.0000 
     47 H47         2.2972   54.5474   24.1248 H         1 UNK         0.0000 
     48 H48         3.3707   55.1887   22.9173 H         1 UNK         0.0000 
     49 H49         5.9119   54.9012   23.2570 H         1 UNK         0.0000 
     50 H50         7.7269   54.8980   24.8819 H         1 UNK         0.0000 
     51 H51         7.2729   54.3804   27.2764 H         1 UNK         0.0000 
     52 H52         5.0163   53.8670   28.0022 H         1 UNK         0.0000 
     53 H53         3.0522   52.8356   28.2104 H         1 UNK         0.0000 
     54 H54         1.4142   53.2070   27.7692 H         1 UNK         0.0000 
     55 H55         3.3777   55.4797   28.5042 H         1 UNK         0.0000 
     56 H56         0.5827   54.7655   29.5290 H         1 UNK         0.0000 
     57 H57         1.6117   56.2385   29.9608 H         1 UNK         0.0000 
     58 H58         2.4628   46.9034   17.0158 H         1 UNK         0.0000 
     59 H59         0.9063   44.9718   17.3146 H         1 UNK         0.0000 
     60 H60        -1.0564   45.1303   18.7654 H         1 UNK         0.0000 
     61 H61        -1.5868   47.2392   19.9780 H         1 UNK         0.0000 
     62 N62         3.1265   53.0535   22.8831 N.4       1 UNK         0.0000 
     63 H63         3.1526   52.3791   23.6357 H         1 UNK         0.0000 
@<TRIPOS>BOND
     1    1    2 1    
     2    1   35 1    
     3    1   36 1    
     4    1   37 1    
     5    2    3 1    
     6    2    4 1    
     7    2   38 1    
     8    3   39 1    
     9    3   40 1    
    10    3   41 1    
    11    4    5 am   BACKBONE|DICT|INTERRES
    12    4   42 1    
    13    5    6 2    
    14    5    7 1    
    15    7    8 1    
    16    7    9 1    
    17    7   62 1    
    18    9   10 1    
    19    9   43 1    
    20    9   44 1    
    21   10   11 1    
    22   10   12 1    
    23   10   24 1    
    24   12   45 1    
    25   12   46 1    
    26   12   62 1    
    27   13   14 1    
    28   13   47 1    
    29   13   48 1    
    30   13   62 1    
    31   14   19 ar   
    32   14   15 ar   
    33   15   16 ar   
    34   15   49 1    
    35   16   17 ar   
    36   16   50 1    
    37   17   18 ar   
    38   17   51 1    
    39   18   19 ar   
    40   18   52 1    
    41   19   20 1    
    42   20   21 1    
    43   21   22 1    
    44   21   53 1    
    45   21   54 1    
    46   22   23 2    
    47   22   55 1    
    48   23   56 1    
    49   23   57 1    
    50   24   25 1    
    51   25   34 ar   
    52   25   26 ar   
    53   26   27 1    
    54   26   28 ar   
    55   28   33 ar   
    56   28   29 ar   
    57   29   30 ar   
    58   29   58 1    
    59   30   31 ar   
    60   30   59 1    
    61   31   32 ar   
    62   31   60 1    
    63   32   33 ar   
    64   32   61 1    
    65   33   34 ar   
    66   62   63 1    
@<TRIPOS>SUBSTRUCTURE
     1 UNK         1 GROUP             0       ****    0 ROOT    
