ZINC39696264_184
                    3D
 Schrodinger Suite 2024-2.
 72 76  0  0  1  0            999 V2000
    6.7003   53.4683   27.2238 C   0  0  0  0  0  0
    5.9222   54.3885   28.1670 C   0  0  0  0  0  0
    4.5115   53.9060   28.4583 C   0  0  0  0  0  0
    3.4249   54.5189   27.8387 C   0  0  0  0  0  0
    2.1295   54.1399   28.1672 C   0  0  0  0  0  0
    1.9174   53.1213   29.1040 C   0  0  0  0  0  0
    3.0067   52.4893   29.6985 C   0  0  0  0  0  0
    4.2956   52.8706   29.3672 C   0  0  0  0  0  0
    0.5148   52.6235   29.4514 C   0  0  1  0  0  0
    0.5916   51.5577   29.6845 H   0  0  0  0  0  0
    0.0133   53.3369   30.7165 C   0  0  0  0  0  0
   -0.4606   52.7120   28.3601 N   0  0  0  0  0  0
   -0.3125   52.1593   27.1431 C   0  0  0  0  0  0
    0.7101   51.5579   26.8124 O   0  0  0  0  0  0
   -1.4635   52.3940   26.1300 C   0  0  1  0  0  0
   -2.0051   53.2964   26.4187 H   0  0  0  0  0  0
   -0.8755   52.5721   24.7133 C   0  0  0  0  0  0
   -1.9017   52.0199   23.8178 N   0  0  0  0  0  0
   -3.0473   51.5129   24.5891 C   0  0  0  0  0  0
   -2.4415   51.2011   25.9757 C   0  0  0  0  0  0
   -1.7122   49.8210   25.9552 C   0  0  0  0  0  0
   -2.6654   48.6315   25.7329 C   0  0  0  0  0  0
   -3.6956   48.6461   26.8815 N   0  3  0  0  0  0
   -4.4728   49.9781   26.9817 C   0  0  0  0  0  0
   -3.4521   51.1232   27.1500 C   0  0  0  0  0  0
   -1.7291   51.6668   22.5095 C   0  0  0  0  0  0
   -2.6349   51.1437   21.8567 O   0  0  0  0  0  0
   -0.4508   51.8872   21.8487 C   0  0  0  0  0  0
   -0.0423   51.5574   20.5601 C   0  0  0  0  0  0
    1.2896   51.9561   20.4328 C   0  0  0  0  0  0
    1.6590   52.5300   21.6413 C   0  0  0  0  0  0
    0.5897   52.4978   22.4781 O   0  0  0  0  0  0
    2.9133   53.1569   22.1578 C   0  0  0  0  0  0
    3.0265   53.5426   23.4996 C   0  0  0  0  0  0
    4.2137   54.0965   23.9741 C   0  0  0  0  0  0
    5.2851   54.2775   23.1040 C   0  0  0  0  0  0
    5.1704   53.9301   21.7590 C   0  0  0  0  0  0
    3.9902   53.3613   21.2886 C   0  0  0  0  0  0
    7.6715   53.9015   26.9931 H   0  0  0  0  0  0
    6.1723   53.3171   26.2821 H   0  0  0  0  0  0
    6.8737   52.4956   27.6828 H   0  0  0  0  0  0
    6.4545   54.4906   29.1127 H   0  0  0  0  0  0
    5.8882   55.3942   27.7493 H   0  0  0  0  0  0
    3.5796   55.2970   27.1090 H   0  0  0  0  0  0
    1.2971   54.6327   27.6863 H   0  0  0  0  0  0
    2.8544   51.6996   30.4160 H   0  0  0  0  0  0
    5.1069   52.3489   29.8325 H   0  0  0  0  0  0
    0.7399   53.2696   31.5282 H   0  0  0  0  0  0
   -0.1765   54.3945   30.5316 H   0  0  0  0  0  0
   -0.8957   52.8797   31.0937 H   0  0  0  0  0  0
   -1.3646   53.0720   28.6099 H   0  0  0  0  0  0
   -0.6331   53.6111   24.4855 H   0  0  0  0  0  0
   -0.0148   51.9084   24.6099 H   0  0  0  0  0  0
   -3.5933   50.6748   24.1586 H   0  0  0  0  0  0
   -3.7478   52.3333   24.7422 H   0  0  0  0  0  0
   -0.9524   49.7960   25.1734 H   0  0  0  0  0  0
   -1.1495   49.6965   26.8807 H   0  0  0  0  0  0
   -3.2118   48.6548   24.7890 H   0  0  0  0  0  0
   -2.1357   47.6820   25.8228 H   0  0  0  0  0  0
   -4.3253   47.8598   26.8114 H   0  0  0  0  0  0
   -5.0769   50.0650   26.0763 H   0  0  0  0  0  0
   -5.1329   49.8788   27.8445 H   0  0  0  0  0  0
   -2.9288   51.0170   28.1031 H   0  0  0  0  0  0
   -4.0007   52.0631   27.2239 H   0  0  0  0  0  0
   -0.6393   51.0677   19.8049 H   0  0  0  0  0  0
    1.9156   51.8426   19.5591 H   0  0  0  0  0  0
    2.2086   53.3945   24.1896 H   0  0  0  0  0  0
    4.3060   54.3742   25.0136 H   0  0  0  0  0  0
    6.2067   54.7078   23.4696 H   0  0  0  0  0  0
    5.9984   54.0977   21.0848 H   0  0  0  0  0  0
    3.9157   53.0851   20.2457 H   0  0  0  0  0  0
   -3.1310   48.4982   27.7247 H   0  0  0  0  0  0
  1  2  1  0  0  0
  1 39  1  0  0  0
  1 40  1  0  0  0
  1 41  1  0  0  0
  2  3  1  0  0  0
  2 42  1  0  0  0
  2 43  1  0  0  0
  3  8  2  0  0  0
  3  4  1  0  0  0
  4  5  2  0  0  0
  4 44  1  0  0  0
  5  6  1  0  0  0
  5 45  1  0  0  0
  6  7  2  0  0  0
  6  9  1  0  0  0
  7  8  1  0  0  0
  7 46  1  0  0  0
  8 47  1  0  0  0
  9 10  1  0  0  0
  9 11  1  0  0  0
  9 12  1  0  0  0
 11 48  1  0  0  0
 11 49  1  0  0  0
 11 50  1  0  0  0
 12 13  1  0  0  0
 12 51  1  0  0  0
 13 14  2  0  0  0
 13 15  1  0  0  0
 15 16  1  0  0  0
 15 20  1  0  0  0
 15 17  1  0  0  0
 17 18  1  0  0  0
 17 52  1  0  0  0
 17 53  1  0  0  0
 18 19  1  0  0  0
 18 26  1  0  0  0
 19 20  1  0  0  0
 19 54  1  0  0  0
 19 55  1  0  0  0
 20 25  1  0  0  0
 20 21  1  0  0  0
 21 22  1  0  0  0
 21 56  1  0  0  0
 21 57  1  0  0  0
 22 23  1  0  0  0
 22 58  1  0  0  0
 22 59  1  0  0  0
 23 24  1  0  0  0
 23 60  1  0  0  0
 23 72  1  0  0  0
 24 25  1  0  0  0
 24 61  1  0  0  0
 24 62  1  0  0  0
 25 63  1  0  0  0
 25 64  1  0  0  0
 26 27  2  0  0  0
 26 28  1  0  0  0
 28 32  1  0  0  0
 28 29  2  0  0  0
 29 30  1  0  0  0
 29 65  1  0  0  0
 30 31  2  0  0  0
 30 66  1  0  0  0
 31 32  1  0  0  0
 31 33  1  0  0  0
 33 38  2  0  0  0
 33 34  1  0  0  0
 34 35  2  0  0  0
 34 67  1  0  0  0
 35 36  1  0  0  0
 35 68  1  0  0  0
 36 37  2  0  0  0
 36 69  1  0  0  0
 37 38  1  0  0  0
 37 70  1  0  0  0
 38 71  1  0  0  0
M  CHG  1  23   1
M  END
> <i_i_glide_confnum>
141

> <i_i_glide_lignum>
185

> <i_i_glide_posenum>
322

> <i_i_glide_rotatable_bonds>
8

> <i_m_Source_File_Index>
893

> <b_m_subgroup_collapsed>
0

> <r_i_docking_score>
-5.23253

> <r_i_glide_ecoul>
-2.79979

> <r_i_glide_eff_state_penalty>
0

> <r_i_glide_einternal>
2.91867

> <r_i_glide_emodel>
-62.6231

> <r_i_glide_energy>
-46.41

> <r_i_glide_erotb>
0.600771

> <r_i_glide_esite>
-0.118708

> <r_i_glide_evdw>
-43.6102

> <r_i_glide_gscore>
-5.23253

> <r_i_glide_hbond>
-0.188467

> <r_i_glide_ligand_efficiency>
-0.145348

> <r_i_glide_ligand_efficiency_ln>
-1.1416

> <r_i_glide_ligand_efficiency_sa>
-0.479929

> <r_i_glide_lipo>
-2.82227

> <r_i_glide_metal>
0

> <r_i_glide_rewards>
-0.10338

> <s_i_glide_gridfile>
wee1_glide-grid

> <s_m_Source_File>
wee1_decoys_glide_SP.sdf

> <s_m_Source_Path>
/Users/zhangxujun/Desktop

> <s_m_entry_id>
1168

> <s_m_entry_name>
wee1_decoys_glide_SP.893

> <s_m_subgroup_title>
wee1_decoys_glide_SP

> <s_m_subgroupid>
wee1_decoys_glide_SP


$$$$
