@<TRIPOS>MOLECULE
ZINC20746115_168
49   52    1
SMALL
USER_CHARGES


@<TRIPOS>ATOM
      1 C1          6.9332   55.5257   19.0036 C.3       1 UNK         0.0000 
      2 O2          6.6354   55.2988   20.3744 O.3       1 UNK         0.0000 
      3 C3          5.5058   54.6383   20.7390 C.2       1 UNK         0.0000 
      4 O4          4.6552   54.2465   19.9374 O.2       1 UNK         0.0000 
      5 C5          5.3710   54.4943   22.2248 C.ar      1 UNK         0.0000 
      6 C6          6.4430   54.7404   23.0992 C.ar      1 UNK         0.0000 
      7 C7          6.2792   54.6068   24.4769 C.ar      1 UNK         0.0000 
      8 C8          5.0452   54.2310   25.0033 C.ar      1 UNK         0.0000 
      9 C9          3.9631   53.9829   24.1555 C.ar      1 UNK         0.0000 
     10 C10         4.1385   54.0966   22.7665 C.ar      1 UNK         0.0000 
     11 N11         2.7673   53.5465   24.7550 N.am      1 UNK         0.0000 
     12 C12         1.5095   53.6110   24.2623 C.2       1 UNK         0.0000 
     13 O13         1.2308   54.2989   23.2815 O.2       1 UNK         0.0000 
     14 N14         0.5576   52.9003   24.9389 N.am      1 UNK         0.0000 
     15 C15        -0.8553   52.9788   24.4821 C.3       1 UNK         0.0000 
     16 C16        -1.1958   51.7164   23.6450 C.3       1 UNK         0.0000 
     17 C17        -0.7620   50.5180   24.4627 C.ar      1 UNK         0.0000 
     18 C18         0.1066   50.5976   25.5509 C.ar      1 UNK         0.0000 
     19 N19         0.2028   49.3207   26.0815 N.pl3     1 UNK         0.0000 
     20 C20        -0.6624   48.4916   25.4035 C.ar      1 UNK         0.0000 
     21 N21        -1.2679   49.2327   24.4153 N.pl3     1 UNK         0.0000 
     22 H22        -1.9826   48.9052   23.7814 H         1 UNK         0.0000 
     23 C23         0.8335   51.8777   25.9917 C.3       1 UNK         0.0000 
     24 H24         1.9022   51.6981   25.9741 H         1 UNK         0.0000 
     25 C25         0.6178   52.3474   27.4430 C.ar      1 UNK         0.0000 
     26 C26        -0.2654   51.6966   28.3187 C.ar      1 UNK         0.0000 
     27 C27        -0.3654   52.0982   29.6497 C.ar      1 UNK         0.0000 
     28 C28         0.3997   53.1675   30.1079 C.ar      1 UNK         0.0000 
     29 C29         1.2512   53.8472   29.2426 C.ar      1 UNK         0.0000 
     30 C30         1.3629   53.4344   27.9186 C.ar      1 UNK         0.0000 
     31 Br31        0.3003   53.6972   31.9325 Br        1 UNK         0.0000 
     32 H32         7.0982   54.5847   18.4794 H         1 UNK         0.0000 
     33 H33         6.1245   56.0610   18.5042 H         1 UNK         0.0000 
     34 H34         7.8373   56.1253   18.9167 H         1 UNK         0.0000 
     35 H35         7.4157   55.0350   22.7274 H         1 UNK         0.0000 
     36 H36         7.1138   54.7914   25.1356 H         1 UNK         0.0000 
     37 H37         4.9407   54.1243   26.0736 H         1 UNK         0.0000 
     38 H38         3.3157   53.8778   22.0993 H         1 UNK         0.0000 
     39 H39         2.8851   53.0949   25.6480 H         1 UNK         0.0000 
     40 H40        -1.4790   53.0147   25.3772 H         1 UNK         0.0000 
     41 H41        -1.0860   53.9264   23.9924 H         1 UNK         0.0000 
     42 H42        -2.2597   51.6855   23.4091 H         1 UNK         0.0000 
     43 H43        -0.6697   51.7507   22.6897 H         1 UNK         0.0000 
     44 H44        -0.8727   47.4618   25.6630 H         1 UNK         0.0000 
     45 H45        -0.8686   50.8608   27.9950 H         1 UNK         0.0000 
     46 H46        -1.0238   51.5715   30.3286 H         1 UNK         0.0000 
     47 H47         1.8342   54.6830   29.6000 H         1 UNK         0.0000 
     48 H48         2.0436   53.9655   27.2721 H         1 UNK         0.0000 
     49 H49         0.7358   49.0516   26.8980 H         1 UNK         0.0000 
@<TRIPOS>BOND
     1    1    2 1    
     2    1   32 1    
     3    1   33 1    
     4    1   34 1    
     5    2    3 1    
     6    3    4 2    
     7    3    5 1    
     8    5   10 ar   
     9    5    6 ar   
    10    6    7 ar   
    11    6   35 1    
    12    7    8 ar   
    13    7   36 1    
    14    8    9 ar   
    15    8   37 1    
    16    9   10 ar   
    17    9   11 1    
    18   10   38 1    
    19   11   12 am   BACKBONE|DICT|INTERRES
    20   11   39 1    
    21   12   13 2    
    22   12   14 am   BACKBONE|DICT|INTERRES
    23   14   23 1    
    24   14   15 1    
    25   15   16 1    
    26   15   40 1    
    27   15   41 1    
    28   16   17 1    
    29   16   42 1    
    30   16   43 1    
    31   17   21 ar   
    32   17   18 ar   
    33   18   19 ar   
    34   18   23 1    
    35   19   20 ar   
    36   19   49 1    
    37   20   21 ar   
    38   20   44 1    
    39   21   22 1    
    40   23   24 1    
    41   23   25 1    
    42   25   30 ar   
    43   25   26 ar   
    44   26   27 ar   
    45   26   45 1    
    46   27   28 ar   
    47   27   46 1    
    48   28   29 ar   
    49   28   31 1    
    50   29   30 ar   
    51   29   47 1    
    52   30   48 1    
@<TRIPOS>SUBSTRUCTURE
     1 UNK         1 GROUP             0       ****    0 ROOT    
