@<TRIPOS>MOLECULE
ZINC03258698_6082
68   72    1
SMALL
USER_CHARGES


@<TRIPOS>ATOM
      1 C1         -6.2322   48.5978   21.2178 C.3       1 UNK         0.0000 
      2 C2         -4.8567   47.9480   21.4801 C.3       1 UNK         0.0000 
      3 C3         -4.5373   47.6049   22.9524 C.3       1 UNK         0.0000 
      4 C4         -4.1745   48.8160   23.8078 C.2       1 UNK         0.0000 
      5 C5         -5.0642   49.8896   23.9633 C.2       1 UNK         0.0000 
      6 S6         -4.3497   51.1506   24.9138 S.3       1 UNK         0.0000 
      7 C7         -2.8897   50.2440   25.1664 C.2       1 UNK         0.0000 
      8 C8         -2.9546   49.0172   24.5044 C.2       1 UNK         0.0000 
      9 C9         -1.8557   48.0557   24.4956 C.1       1 UNK         0.0000 
     10 N10        -0.9849   47.2950   24.4815 N.1       1 UNK         0.0000 
     11 N11        -1.8090   50.7103   25.9200 N.am      1 UNK         0.0000 
     12 C12        -1.6340   51.9243   26.4895 C.2       1 UNK         0.0000 
     13 O13        -2.4594   52.8369   26.4231 O.2       1 UNK         0.0000 
     14 C14        -0.2745   52.2016   27.1900 C.3       1 UNK         0.0000 
     15 C15         0.4359   50.9297   27.6827 C.3       1 UNK         0.0000 
     16 C16         1.8307   51.2963   28.2266 C.3       1 UNK         0.0000 
     17 C17         1.7927   52.3689   29.3442 C.3       1 UNK         0.0000 
     18 C18         0.7755   53.5248   29.1820 C.3       1 UNK         0.0000 
     19 C19        -0.4953   53.1234   28.4125 C.3       1 UNK         0.0000 
     20 C20         3.1933   52.9206   29.6877 C.2       1 UNK         0.0000 
     21 O21         3.5213   52.8845   30.8724 O.2       1 UNK         0.0000 
     22 N22         4.0804   53.4427   28.8091 N.am      1 UNK         0.0000 
     23 C23         4.0412   53.7418   27.4369 C.2       1 UNK         0.0000 
     24 C24         5.1405   54.0286   26.6404 C.2       1 UNK         0.0000 
     25 C25         4.8594   54.2455   25.2667 C.2       1 UNK         0.0000 
     26 C26         3.4851   54.1384   25.0063 C.2       1 UNK         0.0000 
     27 S27         2.6273   53.9566   26.4915 S.3       1 UNK         0.0000 
     28 C28         2.7234   54.2596   23.7034 C.3       1 UNK         0.0000 
     29 C29         3.2715   53.4551   22.5217 C.3       1 UNK         0.0000 
     30 C30         4.6110   53.9622   21.9704 C.3       1 UNK         0.0000 
     31 C31         5.8239   53.7415   22.8859 C.3       1 UNK         0.0000 
     32 C32         5.9054   54.5514   24.1934 C.3       1 UNK         0.0000 
     33 C33         6.4629   54.0695   27.2128 C.1       1 UNK         0.0000 
     34 N34         7.5042   54.0968   27.6841 N.1       1 UNK         0.0000 
     35 C35        -6.4558   50.0105   23.3800 C.3       1 UNK         0.0000 
     36 C36        -6.4741   49.9876   21.8418 C.3       1 UNK         0.0000 
     37 H37        -6.3679   48.6834   20.1388 H         1 UNK         0.0000 
     38 H38        -7.0158   47.9162   21.5514 H         1 UNK         0.0000 
     39 H39        -4.0660   48.5788   21.0707 H         1 UNK         0.0000 
     40 H40        -4.8160   47.0241   20.9005 H         1 UNK         0.0000 
     41 H41        -5.3914   47.0863   23.3894 H         1 UNK         0.0000 
     42 H42        -3.7382   46.8636   22.9584 H         1 UNK         0.0000 
     43 H43        -1.0598   50.0448   26.0473 H         1 UNK         0.0000 
     44 H44         0.2696   52.7154   26.4033 H         1 UNK         0.0000 
     45 H45        -0.1176   50.4966   28.5144 H         1 UNK         0.0000 
     46 H46         0.6086   50.2047   26.8840 H         1 UNK         0.0000 
     47 H47         2.3677   51.6098   27.3485 H         1 UNK         0.0000 
     48 H48         2.3039   50.3881   28.6002 H         1 UNK         0.0000 
     49 H49         1.4644   51.7797   30.2047 H         1 UNK         0.0000 
     50 H50         1.1892   54.3613   28.6253 H         1 UNK         0.0000 
     51 H51         0.4642   53.8920   30.1622 H         1 UNK         0.0000 
     52 H52        -0.8956   54.0815   28.0837 H         1 UNK         0.0000 
     53 H53        -1.1177   52.6112   29.1523 H         1 UNK         0.0000 
     54 H54         4.9912   53.5823   29.2219 H         1 UNK         0.0000 
     55 H55         1.6826   53.9652   23.8480 H         1 UNK         0.0000 
     56 H56         2.7043   55.2966   23.4030 H         1 UNK         0.0000 
     57 H57         3.3417   52.4038   22.7923 H         1 UNK         0.0000 
     58 H58         2.5395   53.4996   21.7127 H         1 UNK         0.0000 
     59 H59         4.8024   53.4446   21.0282 H         1 UNK         0.0000 
     60 H60         4.5283   55.0155   21.7043 H         1 UNK         0.0000 
     61 H61         5.9085   52.6763   23.0922 H         1 UNK         0.0000 
     62 H62         6.7072   54.0102   22.3090 H         1 UNK         0.0000 
     63 H63         5.9061   55.6170   23.9647 H         1 UNK         0.0000 
     64 H64         6.9080   54.3694   24.5822 H         1 UNK         0.0000 
     65 H65        -6.9422   50.9192   23.7381 H         1 UNK         0.0000 
     66 H66        -7.0791   49.1888   23.7355 H         1 UNK         0.0000 
     67 H67        -5.7515   50.7039   21.4484 H         1 UNK         0.0000 
     68 H68        -7.4485   50.3447   21.5052 H         1 UNK         0.0000 
@<TRIPOS>BOND
     1    1   36 1    
     2    1    2 1    
     3    1   37 1    
     4    1   38 1    
     5    2    3 1    
     6    2   39 1    
     7    2   40 1    
     8    3    4 1    
     9    3   41 1    
    10    3   42 1    
    11    4    8 1    
    12    4    5 2    
    13    5    6 1    
    14    5   35 1    
    15    6    7 1    
    16    7    8 2    
    17    7   11 am   BACKBONE|DICT|INTERRES
    18    8    9 1    
    19    9   10 3    
    20   11   12 am   BACKBONE|DICT|INTERRES
    21   11   43 1    
    22   12   13 2    
    23   12   14 1    
    24   14   19 1    
    25   14   15 1    
    26   14   44 1    
    27   15   16 1    
    28   15   45 1    
    29   15   46 1    
    30   16   17 1    
    31   16   47 1    
    32   16   48 1    
    33   17   18 1    
    34   17   20 1    
    35   17   49 1    
    36   18   19 1    
    37   18   50 1    
    38   18   51 1    
    39   19   52 1    
    40   19   53 1    
    41   20   21 2    
    42   20   22 am   BACKBONE|DICT|INTERRES
    43   22   23 am   BACKBONE|DICT|INTERRES
    44   22   54 1    
    45   23   27 1    
    46   23   24 2    
    47   24   25 1    
    48   24   33 1    
    49   25   32 1    
    50   25   26 2    
    51   26   27 1    
    52   26   28 1    
    53   28   29 1    
    54   28   55 1    
    55   28   56 1    
    56   29   30 1    
    57   29   57 1    
    58   29   58 1    
    59   30   31 1    
    60   30   59 1    
    61   30   60 1    
    62   31   32 1    
    63   31   61 1    
    64   31   62 1    
    65   32   63 1    
    66   32   64 1    
    67   33   34 3    
    68   35   36 1    
    69   35   65 1    
    70   35   66 1    
    71   36   67 1    
    72   36   68 1    
@<TRIPOS>SUBSTRUCTURE
     1 UNK         1 GROUP             0       ****    0 ROOT    
