@<TRIPOS>MOLECULE
ZINC32974761_5592
64   68    1
SMALL
USER_CHARGES


@<TRIPOS>ATOM
      1 C1          5.5411   54.8559   18.5248 C.3       1 UNK         0.0000 
      2 C2          5.6770   54.7614   20.0345 C.ar      1 UNK         0.0000 
      3 C3          4.7171   54.0721   20.7728 C.ar      1 UNK         0.0000 
      4 C4          4.8323   53.9919   22.1574 C.ar      1 UNK         0.0000 
      5 C5          5.9040   54.6025   22.8223 C.ar      1 UNK         0.0000 
      6 C6          6.8622   55.2965   22.0693 C.ar      1 UNK         0.0000 
      7 C7          6.7478   55.3801   20.6834 C.ar      1 UNK         0.0000 
      8 C8          5.9859   54.5511   24.3203 C.2       1 UNK         0.0000 
      9 N9          4.9332   54.2933   25.0741 N.2       1 UNK         0.0000 
     10 C10         5.4374   54.3092   26.2775 C.2       1 UNK         0.0000 
     11 O11         6.7580   54.6055   26.3104 O.3       1 UNK         0.0000 
     12 N12         7.1041   54.7826   24.9739 N.2       1 UNK         0.0000 
     13 C13         4.7333   54.0690   27.5140 C.ar      1 UNK         0.0000 
     14 C14         3.4770   54.5464   27.8483 C.ar      1 UNK         0.0000 
     15 N15         3.1493   53.9702   29.0462 N.pl3     1 UNK         0.0000 
     16 C16         4.2492   53.2136   29.3607 C.ar      1 UNK         0.0000 
     17 N17         5.2111   53.2929   28.4723 N.2       1 UNK         0.0000 
     18 C18         1.8880   54.0807   29.7649 C.3       1 UNK         0.0000 
     19 C19         0.7561   53.2556   29.1649 C.ar      1 UNK         0.0000 
     20 C20         0.5142   53.2666   27.7872 C.ar      1 UNK         0.0000 
     21 C21        -0.5032   52.4963   27.2423 C.ar      1 UNK         0.0000 
     22 C22        -1.2963   51.7137   28.0733 C.ar      1 UNK         0.0000 
     23 C23        -1.0597   51.6966   29.4494 C.ar      1 UNK         0.0000 
     24 C24        -0.0475   52.4755   30.0000 C.ar      1 UNK         0.0000 
     25 N25        -2.2508   50.8740   27.5091 N.pl3     1 UNK         0.0000 
     26 S26        -3.7158   51.3912   26.6571 S.o2      1 UNK         0.0000 
     27 O27        -3.4172   52.7225   26.1167 O.2       1 UNK         0.0000 
     28 O28        -4.0718   50.2828   25.7627 O.2       1 UNK         0.0000 
     29 C29        -5.0882   51.5207   27.8543 C.ar      1 UNK         0.0000 
     30 C30        -6.0960   52.4966   27.6721 C.ar      1 UNK         0.0000 
     31 C31        -7.0636   52.6991   28.6563 C.ar      1 UNK         0.0000 
     32 C32        -7.0678   51.9373   29.8202 C.ar      1 UNK         0.0000 
     33 C33        -6.1163   50.9353   29.9819 C.ar      1 UNK         0.0000 
     34 C34        -5.1413   50.7042   29.0075 C.ar      1 UNK         0.0000 
     35 C35        -4.2380   49.4981   29.2164 C.3       1 UNK         0.0000 
     36 C36        -8.1119   52.1901   30.8953 C.3       1 UNK         0.0000 
     37 C37        -6.2046   53.3414   26.4088 C.3       1 UNK         0.0000 
     38 H38         6.0319   55.7471   18.1339 H         1 UNK         0.0000 
     39 H39         4.4894   54.9234   18.2398 H         1 UNK         0.0000 
     40 H40         5.9696   53.9739   18.0461 H         1 UNK         0.0000 
     41 H41         3.8789   53.5995   20.2757 H         1 UNK         0.0000 
     42 H42         4.0734   53.4601   22.7128 H         1 UNK         0.0000 
     43 H43         7.6949   55.7844   22.5527 H         1 UNK         0.0000 
     44 H44         7.4936   55.9166   20.1147 H         1 UNK         0.0000 
     45 H45         2.7922   55.1995   27.3301 H         1 UNK         0.0000 
     46 H46         4.2660   52.6254   30.2646 H         1 UNK         0.0000 
     47 H47         2.0578   53.7652   30.7934 H         1 UNK         0.0000 
     48 H48         1.6012   55.1325   29.8003 H         1 UNK         0.0000 
     49 H49         1.1048   53.8577   27.1108 H         1 UNK         0.0000 
     50 H50        -0.6714   52.4963   26.1749 H         1 UNK         0.0000 
     51 H51        -1.6448   51.0714   30.1088 H         1 UNK         0.0000 
     52 H52         0.1165   52.4489   31.0676 H         1 UNK         0.0000 
     53 H53        -2.1173   49.8765   27.6702 H         1 UNK         0.0000 
     54 H54        -7.8218   53.4573   28.5189 H         1 UNK         0.0000 
     55 H55        -6.1442   50.3151   30.8680 H         1 UNK         0.0000 
     56 H56        -4.7060   48.7489   29.8562 H         1 UNK         0.0000 
     57 H57        -4.0235   48.9897   28.2763 H         1 UNK         0.0000 
     58 H58        -3.2977   49.7815   29.6841 H         1 UNK         0.0000 
     59 H59        -7.7281   51.9368   31.8850 H         1 UNK         0.0000 
     60 H60        -8.3884   53.2453   30.9273 H         1 UNK         0.0000 
     61 H61        -9.0123   51.6017   30.7079 H         1 UNK         0.0000 
     62 H62        -7.2085   53.7456   26.2740 H         1 UNK         0.0000 
     63 H63        -5.4965   54.1696   26.4365 H         1 UNK         0.0000 
     64 H64        -6.0043   52.7390   25.5211 H         1 UNK         0.0000 
@<TRIPOS>BOND
     1    1    2 1    
     2    1   38 1    
     3    1   39 1    
     4    1   40 1    
     5    2    7 ar   
     6    2    3 ar   
     7    3    4 ar   
     8    3   41 1    
     9    4    5 ar   
    10    4   42 1    
    11    5    6 ar   
    12    5    8 1    
    13    6    7 ar   
    14    6   43 1    
    15    7   44 1    
    16    8   12 2    
    17    8    9 1    
    18    9   10 2    
    19   10   11 1    
    20   10   13 1    
    21   11   12 1    
    22   13   17 ar   
    23   13   14 ar   
    24   14   15 ar   
    25   14   45 1    
    26   15   16 ar   
    27   15   18 1    
    28   16   17 ar   
    29   16   46 1    
    30   18   19 1    
    31   18   47 1    
    32   18   48 1    
    33   19   24 ar   
    34   19   20 ar   
    35   20   21 ar   
    36   20   49 1    
    37   21   22 ar   
    38   21   50 1    
    39   22   23 ar   
    40   22   25 1    
    41   23   24 ar   
    42   23   51 1    
    43   24   52 1    
    44   25   26 1    
    45   25   53 1    
    46   26   27 2    
    47   26   28 2    
    48   26   29 1    
    49   29   34 ar   
    50   29   30 ar   
    51   30   31 ar   
    52   30   37 1    
    53   31   32 ar   
    54   31   54 1    
    55   32   33 ar   
    56   32   36 1    
    57   33   34 ar   
    58   33   55 1    
    59   34   35 1    
    60   35   56 1    
    61   35   57 1    
    62   35   58 1    
    63   36   59 1    
    64   36   60 1    
    65   36   61 1    
    66   37   62 1    
    67   37   63 1    
    68   37   64 1    
@<TRIPOS>SUBSTRUCTURE
     1 UNK         1 GROUP             0       ****    0 ROOT    
