ZINC36311939_1188
                    3D
 Schrodinger Suite 2024-2.
 62 66  0  0  1  0            999 V2000
   -1.2352   48.4783   23.9924 C   0  0  0  0  0  0
   -0.4955   48.6824   22.8265 C   0  0  0  0  0  0
    0.6145   49.5416   22.8239 C   0  0  0  0  0  0
    0.9543   50.1990   24.0180 C   0  0  0  0  0  0
    0.2130   49.9967   25.1830 C   0  0  0  0  0  0
   -0.8781   49.1305   25.1720 C   0  0  0  0  0  0
    0.7033   50.8888   26.7934 Br  0  0  0  0  0  0
    1.4795   49.6762   21.5849 C   0  0  0  0  0  0
    1.6801   48.6837   20.8814 O   0  0  0  0  0  0
    2.0515   50.8806   21.3204 N   0  0  0  0  0  0
    3.2169   50.9791   20.4215 C   0  0  0  0  0  0
    4.2263   51.9525   21.0747 C   0  0  0  0  0  0
    3.5391   53.3247   21.2798 N   0  3  0  0  0  0
    2.2458   53.1782   22.1243 C   0  0  0  0  0  0
    1.3009   52.1362   21.5006 C   0  0  0  0  0  0
    4.4731   54.4773   21.7719 C   0  0  2  0  0  0
    3.7619   55.2966   21.8685 H   0  0  0  0  0  0
    5.5183   54.8461   20.6737 C   0  0  0  0  0  0
    4.9535   55.0102   19.2510 C   0  0  0  0  0  0
    5.9852   55.8494   18.4921 C   0  0  0  0  0  0
    6.7290   56.6783   19.5491 C   0  0  0  0  0  0
    6.2374   56.1836   20.9164 C   0  0  0  0  0  0
    5.0681   54.1777   23.1760 C   0  0  0  0  0  0
    6.1880   53.6808   23.2831 O   0  0  0  0  0  0
    4.2621   54.4950   24.2130 N   0  0  0  0  0  0
    4.4170   54.2086   25.5754 C   0  0  0  0  0  0
    5.6646   54.0971   26.2314 C   0  0  0  0  0  0
    5.7273   53.7518   27.5923 C   0  0  0  0  0  0
    4.5248   53.5194   28.2551 C   0  0  0  0  0  0
    3.3201   53.6582   27.6274 C   0  0  0  0  0  0
    3.2251   54.0172   26.2914 C   0  0  0  0  0  0
    2.3180   53.3915   28.5043 O   0  0  0  0  0  0
    2.9514   52.7787   29.5901 C   0  0  0  0  0  0
    4.3041   53.1463   29.5451 O   0  0  0  0  0  0
   -2.0789   47.8043   23.9870 H   0  0  0  0  0  0
   -0.7766   48.1488   21.9289 H   0  0  0  0  0  0
    1.8223   50.8392   24.0664 H   0  0  0  0  0  0
   -1.4381   48.9553   26.0811 H   0  0  0  0  0  0
    2.9084   51.3584   19.4454 H   0  0  0  0  0  0
    3.6712   50.0100   20.2211 H   0  0  0  0  0  0
    5.0502   52.1135   20.3778 H   0  0  0  0  0  0
    4.6207   51.6029   22.0334 H   0  0  0  0  0  0
    2.4971   52.9284   23.1546 H   0  0  0  0  0  0
    1.7560   54.1514   22.0878 H   0  0  0  0  0  0
    0.4003   52.0127   22.1050 H   0  0  0  0  0  0
    0.9647   52.4997   20.5273 H   0  0  0  0  0  0
    6.3041   54.0970   20.6003 H   0  0  0  0  0  0
    4.7181   54.0604   18.7679 H   0  0  0  0  0  0
    4.0213   55.5755   19.2815 H   0  0  0  0  0  0
    6.6859   55.1924   17.9730 H   0  0  0  0  0  0
    5.5174   56.4785   17.7328 H   0  0  0  0  0  0
    7.8066   56.5367   19.4496 H   0  0  0  0  0  0
    6.5316   57.7439   19.4202 H   0  0  0  0  0  0
    5.5095   56.9084   21.2789 H   0  0  0  0  0  0
    7.0178   56.1123   21.6760 H   0  0  0  0  0  0
    3.3663   54.8902   23.9757 H   0  0  0  0  0  0
    6.5863   54.2590   25.6931 H   0  0  0  0  0  0
    6.6780   53.6524   28.0939 H   0  0  0  0  0  0
    2.2577   54.0968   25.8172 H   0  0  0  0  0  0
    2.4780   53.0586   30.5311 H   0  0  0  0  0  0
    2.8641   51.6952   29.4819 H   0  0  0  0  0  0
    3.2342   53.6135   20.3582 H   0  0  0  0  0  0
  1  6  2  0  0  0
  1  2  1  0  0  0
  1 35  1  0  0  0
  2  3  2  0  0  0
  2 36  1  0  0  0
  3  4  1  0  0  0
  3  8  1  0  0  0
  4  5  2  0  0  0
  4 37  1  0  0  0
  5  6  1  0  0  0
  5  7  1  0  0  0
  6 38  1  0  0  0
  8  9  2  0  0  0
  8 10  1  0  0  0
 10 15  1  0  0  0
 10 11  1  0  0  0
 11 12  1  0  0  0
 11 39  1  0  0  0
 11 40  1  0  0  0
 12 13  1  0  0  0
 12 41  1  0  0  0
 12 42  1  0  0  0
 13 14  1  0  0  0
 13 16  1  0  0  0
 13 62  1  0  0  0
 14 15  1  0  0  0
 14 43  1  0  0  0
 14 44  1  0  0  0
 15 45  1  0  0  0
 15 46  1  0  0  0
 16 17  1  0  0  0
 16 18  1  0  0  0
 16 23  1  0  0  0
 18 22  1  0  0  0
 18 19  1  0  0  0
 18 47  1  0  0  0
 19 20  1  0  0  0
 19 48  1  0  0  0
 19 49  1  0  0  0
 20 21  1  0  0  0
 20 50  1  0  0  0
 20 51  1  0  0  0
 21 22  1  0  0  0
 21 52  1  0  0  0
 21 53  1  0  0  0
 22 54  1  0  0  0
 22 55  1  0  0  0
 23 24  2  0  0  0
 23 25  1  0  0  0
 25 26  1  0  0  0
 25 56  1  0  0  0
 26 31  2  0  0  0
 26 27  1  0  0  0
 27 28  2  0  0  0
 27 57  1  0  0  0
 28 29  1  0  0  0
 28 58  1  0  0  0
 29 34  1  0  0  0
 29 30  2  0  0  0
 30 31  1  0  0  0
 30 32  1  0  0  0
 31 59  1  0  0  0
 32 33  1  0  0  0
 33 34  1  0  0  0
 33 60  1  0  0  0
 33 61  1  0  0  0
M  CHG  1  13   1
M  END
> <i_i_glide_confnum>
146

> <i_i_glide_lignum>
1189

> <i_i_glide_posenum>
395

> <i_i_glide_rotatable_bonds>
7

> <i_m_Source_File_Index>
2202

> <b_m_subgroup_collapsed>
0

> <r_i_docking_score>
-3.97399

> <r_i_glide_ecoul>
0.297355

> <r_i_glide_eff_state_penalty>
0

> <r_i_glide_einternal>
11.6912

> <r_i_glide_emodel>
-48.0548

> <r_i_glide_energy>
-43.2375

> <r_i_glide_erotb>
0.463431

> <r_i_glide_esite>
0

> <r_i_glide_evdw>
-43.5348

> <r_i_glide_gscore>
-3.97399

> <r_i_glide_hbond>
0

> <r_i_glide_ligand_efficiency>
-0.120424

> <r_i_glide_ligand_efficiency_ln>
-0.883795

> <r_i_glide_ligand_efficiency_sa>
-0.386264

> <r_i_glide_lipo>
-2.07174

> <r_i_glide_metal>
0

> <r_i_glide_rewards>
-0.233541

> <s_i_glide_gridfile>
wee1_glide-grid

> <s_m_Source_File>
wee1_decoys_glide_SP.sdf

> <s_m_Source_Path>
/Users/zhangxujun/Desktop

> <s_m_entry_id>
2477

> <s_m_entry_name>
wee1_decoys_glide_SP.2202

> <s_m_subgroup_title>
wee1_decoys_glide_SP

> <s_m_subgroupid>
wee1_decoys_glide_SP


$$$$
