@<TRIPOS>MOLECULE
ZINC09045213_4922
80   84    1
SMALL
USER_CHARGES


@<TRIPOS>ATOM
      1 C1         -5.3130   50.0143   24.6915 C.3       1 UNK         0.0000 
      2 C2         -4.6083   49.9098   26.0416 C.2       1 UNK         0.0000 
      3 O3         -5.2644   49.9966   27.0788 O.2       1 UNK         0.0000 
      4 C4         -3.0736   49.7178   26.0942 C.3       1 UNK         0.0000 
      5 H5         -2.9127   48.9794   26.8806 H         1 UNK         0.0000 
      6 C6         -2.4023   49.1623   24.8037 C.3       1 UNK         0.0000 
      7 C7         -0.9911   49.7868   24.7600 C.3       1 UNK         0.0000 
      8 C8         -0.8462   50.4943   26.1145 C.3       1 UNK         0.0000 
      9 H9         -0.6545   49.6875   26.8253 H         1 UNK         0.0000 
     10 C10        -2.2655   50.9943   26.4755 C.3       1 UNK         0.0000 
     11 C11        -2.3073   51.3923   27.9895 C.3       1 UNK         0.0000 
     12 C12        -0.9222   51.7675   28.6102 C.3       1 UNK         0.0000 
     13 C13         0.0025   52.4771   27.5814 C.3       1 UNK         0.0000 
     14 H14        -0.5943   53.2915   27.1846 H         1 UNK         0.0000 
     15 C15         0.3016   51.4981   26.4013 C.3       1 UNK         0.0000 
     16 H16         1.1076   50.8700   26.7813 H         1 UNK         0.0000 
     17 C17         0.9290   52.2224   25.1859 C.3       1 UNK         0.0000 
     18 C18         1.7252   53.4964   25.5623 C.3       1 UNK         0.0000 
     19 C19         2.3115   53.3665   26.9648 C.2       1 UNK         0.0000 
     20 C20         3.6434   53.3711   27.1484 C.2       1 UNK         0.0000 
     21 C21         4.3387   53.1773   28.3917 C.2       1 UNK         0.0000 
     22 N22         5.5957   53.2904   28.5653 N.2       1 UNK         0.0000 
     23 O23         6.3219   53.3729   27.3577 O.3       1 UNK         0.0000 
     24 C24         6.7037   54.7164   27.0768 C.3       1 UNK         0.0000 
     25 C25         6.6618   54.9466   25.5589 C.2       1 UNK         0.0000 
     26 O26         6.7048   56.0965   25.1375 O.2       1 UNK         0.0000 
     27 N27         6.6046   53.8801   24.7445 N.am      1 UNK         0.0000 
     28 C28         6.6307   53.8967   23.2789 C.3       1 UNK         0.0000 
     29 C29         5.3962   54.5497   22.6222 C.3       1 UNK         0.0000 
     30 C30         4.6400   53.6744   21.6370 C.ar      1 UNK         0.0000 
     31 C31         3.5855   52.8774   22.0807 C.ar      1 UNK         0.0000 
     32 C32         2.8602   52.0952   21.1833 C.ar      1 UNK         0.0000 
     33 C33         3.1830   52.1122   19.8273 C.ar      1 UNK         0.0000 
     34 C34         4.2448   52.9099   19.3748 C.ar      1 UNK         0.0000 
     35 C35         4.9655   53.6916   20.2778 C.ar      1 UNK         0.0000 
     36 O36         4.6268   52.8967   18.0586 O.3       1 UNK         0.0000 
     37 O37         2.4505   51.3437   18.9587 O.3       1 UNK         0.0000 
     38 C38         3.4655   52.8220   29.6062 C.3       1 UNK         0.0000 
     39 C39         2.0607   52.2834   29.2006 C.3       1 UNK         0.0000 
     40 C40         1.3163   53.1509   28.1379 C.3       1 UNK         0.0000 
     41 C41         0.9741   54.5270   28.7684 C.3       1 UNK         0.0000 
     42 C42        -2.6945   52.2158   25.5977 C.3       1 UNK         0.0000 
     43 H43        -4.8424   50.7736   24.0652 H         1 UNK         0.0000 
     44 H44        -6.3601   50.2928   24.8300 H         1 UNK         0.0000 
     45 H45        -5.2880   49.0541   24.1758 H         1 UNK         0.0000 
     46 H46        -2.3399   48.0735   24.8583 H         1 UNK         0.0000 
     47 H47        -2.9334   49.4061   23.8834 H         1 UNK         0.0000 
     48 H48        -0.1897   49.0692   24.5783 H         1 UNK         0.0000 
     49 H49        -0.9532   50.5132   23.9479 H         1 UNK         0.0000 
     50 H50        -3.1113   52.0965   28.2015 H         1 UNK         0.0000 
     51 H51        -2.5753   50.4969   28.5543 H         1 UNK         0.0000 
     52 H52        -0.4166   50.8969   29.0342 H         1 UNK         0.0000 
     53 H53        -1.0972   52.4240   29.4634 H         1 UNK         0.0000 
     54 H54         1.5034   51.5290   24.5702 H         1 UNK         0.0000 
     55 H55         0.1231   52.5850   24.5467 H         1 UNK         0.0000 
     56 H56         1.1044   54.3778   25.5245 H         1 UNK         0.0000 
     57 H57         2.4892   53.7074   24.8188 H         1 UNK         0.0000 
     58 H58         4.2289   53.4770   26.2486 H         1 UNK         0.0000 
     59 H59         6.0513   55.4556   27.5467 H         1 UNK         0.0000 
     60 H60         7.7130   54.8777   27.4511 H         1 UNK         0.0000 
     61 H61         6.5297   52.9728   25.1823 H         1 UNK         0.0000 
     62 H62         7.5044   54.4929   23.0137 H         1 UNK         0.0000 
     63 H63         6.8149   52.8979   22.8865 H         1 UNK         0.0000 
     64 H64         4.6914   54.8967   23.3784 H         1 UNK         0.0000 
     65 H65         5.7196   55.4409   22.0818 H         1 UNK         0.0000 
     66 H66         3.3289   52.8528   23.1264 H         1 UNK         0.0000 
     67 H67         2.0509   51.4814   21.5471 H         1 UNK         0.0000 
     68 H68         5.7799   54.3033   19.9166 H         1 UNK         0.0000 
     69 H69         4.7040   51.9653   17.7862 H         1 UNK         0.0000 
     70 H70         1.8278   50.7613   19.3971 H         1 UNK         0.0000 
     71 H71         3.9724   52.0614   30.2007 H         1 UNK         0.0000 
     72 H72         3.3743   53.6997   30.2431 H         1 UNK         0.0000 
     73 H73         1.4465   52.1836   30.0970 H         1 UNK         0.0000 
     74 H74         2.1773   51.2668   28.8178 H         1 UNK         0.0000 
     75 H75         0.3390   54.4118   29.6486 H         1 UNK         0.0000 
     76 H76         1.8632   55.0733   29.0840 H         1 UNK         0.0000 
     77 H77         0.4406   55.1787   28.0814 H         1 UNK         0.0000 
     78 H78        -2.0018   53.0500   25.6460 H         1 UNK         0.0000 
     79 H79        -2.7774   51.9550   24.5421 H         1 UNK         0.0000 
     80 H80        -3.6665   52.6043   25.9042 H         1 UNK         0.0000 
@<TRIPOS>BOND
     1    1    2 1    
     2    1   43 1    
     3    1   44 1    
     4    1   45 1    
     5    2    3 2    
     6    2    4 1    
     7    4    5 1    
     8    4   10 1    
     9    4    6 1    
    10    6    7 1    
    11    6   46 1    
    12    6   47 1    
    13    7    8 1    
    14    7   48 1    
    15    7   49 1    
    16    8    9 1    
    17    8   15 1    
    18    8   10 1    
    19   10   11 1    
    20   10   42 1    
    21   11   12 1    
    22   11   50 1    
    23   11   51 1    
    24   12   13 1    
    25   12   52 1    
    26   12   53 1    
    27   13   14 1    
    28   13   40 1    
    29   13   15 1    
    30   15   16 1    
    31   15   17 1    
    32   17   18 1    
    33   17   54 1    
    34   17   55 1    
    35   18   19 1    
    36   18   56 1    
    37   18   57 1    
    38   19   40 1    
    39   19   20 2    
    40   20   21 1    
    41   20   58 1    
    42   21   22 2    
    43   21   38 1    
    44   22   23 1    
    45   23   24 1    
    46   24   25 1    
    47   24   59 1    
    48   24   60 1    
    49   25   26 2    
    50   25   27 am   BACKBONE|DICT|INTERRES
    51   27   28 1    
    52   27   61 1    
    53   28   29 1    
    54   28   62 1    
    55   28   63 1    
    56   29   30 1    
    57   29   64 1    
    58   29   65 1    
    59   30   35 ar   
    60   30   31 ar   
    61   31   32 ar   
    62   31   66 1    
    63   32   33 ar   
    64   32   67 1    
    65   33   34 ar   
    66   33   37 1    
    67   34   35 ar   
    68   34   36 1    
    69   35   68 1    
    70   36   69 1    
    71   37   70 1    
    72   38   39 1    
    73   38   71 1    
    74   38   72 1    
    75   39   40 1    
    76   39   73 1    
    77   39   74 1    
    78   40   41 1    
    79   41   75 1    
    80   41   76 1    
    81   41   77 1    
    82   42   78 1    
    83   42   79 1    
    84   42   80 1    
@<TRIPOS>SUBSTRUCTURE
     1 UNK         1 GROUP             0       ****    0 ROOT    
