@<TRIPOS>MOLECULE
ZINC39970960_2987
57   60    1
SMALL
USER_CHARGES


@<TRIPOS>ATOM
      1 C1          6.3399   54.0979   26.7138 C.ar      1 UNK         0.0000 
      2 C2          5.6160   53.6979   27.8396 C.ar      1 UNK         0.0000 
      3 C3          4.2304   53.8697   27.8886 C.ar      1 UNK         0.0000 
      4 C4          3.5830   54.4960   26.8185 C.ar      1 UNK         0.0000 
      5 C5          4.2937   54.8644   25.6822 C.ar      1 UNK         0.0000 
      6 C6          5.6743   54.6560   25.6194 C.ar      1 UNK         0.0000 
      7 N7          6.4163   55.0629   24.4916 N.pl3     1 UNK         0.0000 
      8 C8          6.2316   54.7975   23.1594 C.2       1 UNK         0.0000 
      9 S9          5.1042   53.6967   22.5694 S.2       1 UNK         0.0000 
     10 N10         7.0783   55.5388   22.3765 N.pl3     1 UNK         0.0000 
     11 C11         7.2182   55.6340   20.9767 C.ar      1 UNK         0.0000 
     12 C12         8.5187   55.6966   20.4815 C.ar      1 UNK         0.0000 
     13 C13         8.7487   55.6538   19.1112 C.ar      1 UNK         0.0000 
     14 C14         7.6718   55.5664   18.2315 C.ar      1 UNK         0.0000 
     15 C15         6.3626   55.5979   18.7125 C.ar      1 UNK         0.0000 
     16 C16         6.1363   55.6509   20.0848 C.ar      1 UNK         0.0000 
     17 S17         7.9885   55.3118   16.4908 S.o2      1 UNK         0.0000 
     18 O18         9.2126   56.0567   16.1720 O.2       1 UNK         0.0000 
     19 O19         6.7438   55.5863   15.7638 O.2       1 UNK         0.0000 
     20 N20         8.3673   53.5732   16.3858 N.pl3     1 UNK         0.0000 
     21 C21         9.2029   53.1748   15.2274 C.3       1 UNK         0.0000 
     22 C22         8.3704   53.1804   13.9276 C.3       1 UNK         0.0000 
     23 C23         7.1192   52.2754   14.0645 C.3       1 UNK         0.0000 
     24 C24         6.3209   52.5139   15.3719 C.3       1 UNK         0.0000 
     25 C25         7.2484   52.6182   16.6051 C.3       1 UNK         0.0000 
     26 O26         3.5421   53.4491   29.0146 O.3       1 UNK         0.0000 
     27 C27         2.2735   52.8937   28.9391 C.ar      1 UNK         0.0000 
     28 C28         1.8030   52.2125   27.8074 C.ar      1 UNK         0.0000 
     29 C29         0.5072   51.7078   27.7711 C.ar      1 UNK         0.0000 
     30 C30        -0.3252   51.8688   28.8740 C.ar      1 UNK         0.0000 
     31 C31         0.1432   52.4969   30.0272 C.ar      1 UNK         0.0000 
     32 C32         1.4415   53.0045   30.0555 C.ar      1 UNK         0.0000 
     33 Cl33       -1.9511   51.2967   28.7935 Cl        1 UNK         0.0000 
     34 H34         7.4086   53.9475   26.6926 H         1 UNK         0.0000 
     35 H35         6.1293   53.2458   28.6748 H         1 UNK         0.0000 
     36 H36         2.5186   54.6669   26.8589 H         1 UNK         0.0000 
     37 H37         3.7630   55.2966   24.8488 H         1 UNK         0.0000 
     38 H38         7.2570   55.5706   24.7169 H         1 UNK         0.0000 
     39 H39         7.8331   55.9859   22.8772 H         1 UNK         0.0000 
     40 H40         9.3629   55.7093   21.1543 H         1 UNK         0.0000 
     41 H41         9.7654   55.6368   18.7422 H         1 UNK         0.0000 
     42 H42         5.5236   55.5441   18.0329 H         1 UNK         0.0000 
     43 H43         5.1171   55.6520   20.4388 H         1 UNK         0.0000 
     44 H44         9.5143   52.1422   15.3944 H         1 UNK         0.0000 
     45 H45        10.1261   53.7552   15.2147 H         1 UNK         0.0000 
     46 H46         8.9843   52.8385   13.0936 H         1 UNK         0.0000 
     47 H47         8.0723   54.2010   13.6823 H         1 UNK         0.0000 
     48 H48         6.4671   52.4046   13.2003 H         1 UNK         0.0000 
     49 H49         7.4407   51.2329   14.0414 H         1 UNK         0.0000 
     50 H50         5.7080   53.4090   15.2808 H         1 UNK         0.0000 
     51 H51         5.6104   51.6996   15.5222 H         1 UNK         0.0000 
     52 H52         7.6981   51.6310   16.7238 H         1 UNK         0.0000 
     53 H53         6.7600   52.8141   17.5602 H         1 UNK         0.0000 
     54 H54         2.4325   52.0968   26.9395 H         1 UNK         0.0000 
     55 H55         0.1445   51.2017   26.8880 H         1 UNK         0.0000 
     56 H56        -0.4968   52.5921   30.8940 H         1 UNK         0.0000 
     57 H57         1.7942   53.5014   30.9433 H         1 UNK         0.0000 
@<TRIPOS>BOND
     1    1    6 ar   
     2    1    2 ar   
     3    1   34 1    
     4    2    3 ar   
     5    2   35 1    
     6    3    4 ar   
     7    3   26 1    
     8    4    5 ar   
     9    4   36 1    
    10    5    6 ar   
    11    5   37 1    
    12    6    7 1    
    13    7    8 1    
    14    7   38 1    
    15    8    9 2    
    16    8   10 1    
    17   10   11 1    
    18   10   39 1    
    19   11   16 ar   
    20   11   12 ar   
    21   12   13 ar   
    22   12   40 1    
    23   13   14 ar   
    24   13   41 1    
    25   14   15 ar   
    26   14   17 1    
    27   15   16 ar   
    28   15   42 1    
    29   16   43 1    
    30   17   18 2    
    31   17   19 2    
    32   17   20 1    
    33   20   25 1    
    34   20   21 1    
    35   21   22 1    
    36   21   44 1    
    37   21   45 1    
    38   22   23 1    
    39   22   46 1    
    40   22   47 1    
    41   23   24 1    
    42   23   48 1    
    43   23   49 1    
    44   24   25 1    
    45   24   50 1    
    46   24   51 1    
    47   25   52 1    
    48   25   53 1    
    49   26   27 1    
    50   27   32 ar   
    51   27   28 ar   
    52   28   29 ar   
    53   28   54 1    
    54   29   30 ar   
    55   29   55 1    
    56   30   31 ar   
    57   30   33 1    
    58   31   32 ar   
    59   31   56 1    
    60   32   57 1    
@<TRIPOS>SUBSTRUCTURE
     1 UNK         1 GROUP             0       ****    0 ROOT    
