@<TRIPOS>MOLECULE
ZINC44171456_3488
72   75    1
SMALL
USER_CHARGES


@<TRIPOS>ATOM
      1 C1          3.2892   53.7747   22.1795 C.3       1 UNK         0.0000 
      2 C2          2.1163   53.1230   22.9384 C.3       1 UNK         0.0000 
      3 C3          2.1553   53.1499   24.4764 C.ar      1 UNK         0.0000 
      4 C4          3.2485   53.6983   25.1531 C.ar      1 UNK         0.0000 
      5 C5          3.3575   53.7281   26.5534 C.ar      1 UNK         0.0000 
      6 C6          2.2640   53.2427   27.3213 C.ar      1 UNK         0.0000 
      7 C7          1.1770   52.6809   26.6324 C.ar      1 UNK         0.0000 
      8 C8          1.1121   52.6003   25.2378 C.ar      1 UNK         0.0000 
      9 C9         -0.1029   51.9277   24.5871 C.3       1 UNK         0.0000 
     10 H10         0.0405   51.8350   23.5129 H         1 UNK         0.0000 
     11 C11        -1.4271   52.6644   24.8452 C.3       1 UNK         0.0000 
     12 S12        -2.8457   51.9553   23.8879 S.3       1 UNK         0.0000 
     13 O13        -2.4829   51.9584   22.4015 O.2       1 UNK         0.0000 
     14 C14        -2.6847   50.2364   24.5824 C.3       1 UNK         0.0000 
     15 C15        -1.2822   49.5757   24.4414 C.3       1 UNK         0.0000 
     16 H16        -1.2220   48.6256   24.9785 H         1 UNK         0.0000 
     17 N17        -0.1845   50.4641   25.0821 N.4       1 UNK         0.0000 
     18 C18        -0.8152   49.2449   22.9944 C.2       1 UNK         0.0000 
     19 O19         0.3593   49.4090   22.6558 O.2       1 UNK         0.0000 
     20 N20        -1.7329   48.7327   22.1564 N.am      1 UNK         0.0000 
     21 C21        -1.4830   48.3324   20.7693 C.3       1 UNK         0.0000 
     22 C22        -2.3211   49.1157   19.7643 C.ar      1 UNK         0.0000 
     23 C23        -2.1494   50.5019   19.6309 C.ar      1 UNK         0.0000 
     24 C24        -2.9006   51.2215   18.7000 C.ar      1 UNK         0.0000 
     25 C25        -3.8254   50.5603   17.8926 C.ar      1 UNK         0.0000 
     26 C26        -3.9992   49.1811   18.0134 C.ar      1 UNK         0.0000 
     27 C27        -3.2497   48.4596   18.9429 C.ar      1 UNK         0.0000 
     28 F28        -3.4328   47.1219   19.0418 F         1 UNK         0.0000 
     29 F29        -2.7305   52.5568   18.5687 F         1 UNK         0.0000 
     30 C30         2.1913   53.3665   28.8707 C.3       1 UNK         0.0000 
     31 C31         3.5304   53.8732   29.4833 C.3       1 UNK         0.0000 
     32 C32         4.2583   54.8764   28.5868 C.3       1 UNK         0.0000 
     33 C33         4.6519   54.2433   27.2307 C.3       1 UNK         0.0000 
     34 C34         5.6229   53.0722   27.4758 C.3       1 UNK         0.0000 
     35 C35         5.3814   55.2922   26.3656 C.3       1 UNK         0.0000 
     36 C36         1.0902   54.4018   29.2083 C.3       1 UNK         0.0000 
     37 C37         1.9191   51.9810   29.5115 C.3       1 UNK         0.0000 
     38 H38         3.1514   53.6696   21.1030 H         1 UNK         0.0000 
     39 H39         3.3669   54.8409   22.3969 H         1 UNK         0.0000 
     40 H40         4.2419   53.3039   22.4260 H         1 UNK         0.0000 
     41 H41         2.0548   52.0809   22.6193 H         1 UNK         0.0000 
     42 H42         1.1968   53.6162   22.6143 H         1 UNK         0.0000 
     43 H43         4.0661   54.0750   24.5643 H         1 UNK         0.0000 
     44 H44         0.3431   52.3027   27.2054 H         1 UNK         0.0000 
     45 H45        -1.3516   53.6947   24.4968 H         1 UNK         0.0000 
     46 H46        -1.7170   52.6708   25.8969 H         1 UNK         0.0000 
     47 H47        -3.4693   49.6481   24.1063 H         1 UNK         0.0000 
     48 H48        -2.9584   50.3219   25.6346 H         1 UNK         0.0000 
     49 H49        -0.2854   50.4558   26.0868 H         1 UNK         0.0000 
     50 H50        -2.6758   48.5947   22.4895 H         1 UNK         0.0000 
     51 H51        -1.6809   47.2617   20.6938 H         1 UNK         0.0000 
     52 H52        -0.4336   48.4412   20.4829 H         1 UNK         0.0000 
     53 H53        -1.4274   51.0235   20.2450 H         1 UNK         0.0000 
     54 H54        -4.4050   51.1156   17.1718 H         1 UNK         0.0000 
     55 H55        -4.7131   48.6672   17.3860 H         1 UNK         0.0000 
     56 H56         3.3614   54.3258   30.4586 H         1 UNK         0.0000 
     57 H57         4.2051   53.0430   29.6973 H         1 UNK         0.0000 
     58 H58         3.5690   55.6972   28.4217 H         1 UNK         0.0000 
     59 H59         5.1259   55.2985   29.1010 H         1 UNK         0.0000 
     60 H60         6.4128   53.3353   28.1851 H         1 UNK         0.0000 
     61 H61         5.1200   52.1819   27.8464 H         1 UNK         0.0000 
     62 H62         6.1206   52.8174   26.5411 H         1 UNK         0.0000 
     63 H63         6.2242   55.7095   26.9141 H         1 UNK         0.0000 
     64 H64         5.8287   54.8583   25.4696 H         1 UNK         0.0000 
     65 H65         4.7157   56.0935   26.0353 H         1 UNK         0.0000 
     66 H66         1.0269   54.5832   30.2806 H         1 UNK         0.0000 
     67 H67         1.2678   55.3638   28.7254 H         1 UNK         0.0000 
     68 H68         0.1047   54.0609   28.8942 H         1 UNK         0.0000 
     69 H69         1.9029   52.0469   30.5996 H         1 UNK         0.0000 
     70 H70         0.9552   51.5617   29.2180 H         1 UNK         0.0000 
     71 H71         2.6882   51.2588   29.2361 H         1 UNK         0.0000 
     72 H72         0.7120   50.0261   24.9042 H         1 UNK         0.0000 
@<TRIPOS>BOND
     1    1    2 1    
     2    1   38 1    
     3    1   39 1    
     4    1   40 1    
     5    2    3 1    
     6    2   41 1    
     7    2   42 1    
     8    3    8 ar   
     9    3    4 ar   
    10    4    5 ar   
    11    4   43 1    
    12    5   33 1    
    13    5    6 ar   
    14    6    7 ar   
    15    6   30 1    
    16    7    8 ar   
    17    7   44 1    
    18    8    9 1    
    19    9   10 1    
    20    9   17 1    
    21    9   11 1    
    22   11   12 1    
    23   11   45 1    
    24   11   46 1    
    25   12   13 2    
    26   12   14 1    
    27   14   15 1    
    28   14   47 1    
    29   14   48 1    
    30   15   16 1    
    31   15   17 1    
    32   15   18 1    
    33   17   49 1    
    34   17   72 1    
    35   18   19 2    
    36   18   20 am   BACKBONE|DICT|INTERRES
    37   20   21 1    
    38   20   50 1    
    39   21   22 1    
    40   21   51 1    
    41   21   52 1    
    42   22   27 ar   
    43   22   23 ar   
    44   23   24 ar   
    45   23   53 1    
    46   24   25 ar   
    47   24   29 1    
    48   25   26 ar   
    49   25   54 1    
    50   26   27 ar   
    51   26   55 1    
    52   27   28 1    
    53   30   31 1    
    54   30   36 1    
    55   30   37 1    
    56   31   32 1    
    57   31   56 1    
    58   31   57 1    
    59   32   33 1    
    60   32   58 1    
    61   32   59 1    
    62   33   34 1    
    63   33   35 1    
    64   34   60 1    
    65   34   61 1    
    66   34   62 1    
    67   35   63 1    
    68   35   64 1    
    69   35   65 1    
    70   36   66 1    
    71   36   67 1    
    72   36   68 1    
    73   37   69 1    
    74   37   70 1    
    75   37   71 1    
@<TRIPOS>SUBSTRUCTURE
     1 UNK         1 GROUP             0       ****    0 ROOT    
