@<TRIPOS>MOLECULE
ZINC09311000_4357
51   54    1
SMALL
USER_CHARGES


@<TRIPOS>ATOM
      1 C1          6.3081   54.5784   26.0816 C.ar      1 UNK         0.0000 
      2 C2          6.4049   54.4326   27.4614 C.ar      1 UNK         0.0000 
      3 C3          5.2580   54.1989   28.2137 C.ar      1 UNK         0.0000 
      4 C4          4.0039   54.0875   27.5958 C.ar      1 UNK         0.0000 
      5 C5          3.9248   54.2473   26.2018 C.ar      1 UNK         0.0000 
      6 C6          5.0714   54.4960   25.4515 C.ar      1 UNK         0.0000 
      7 C7          2.7771   53.7977   28.4412 C.2       1 UNK         0.0000 
      8 O8          2.7708   54.0336   29.6583 O.2       1 UNK         0.0000 
      9 N9          1.6830   53.3055   27.7343 N.am      1 UNK         0.0000 
     10 C10         0.8175   52.5238   28.2583 C.2       1 UNK         0.0000 
     11 C11        -0.2065   51.9541   27.3602 C.ar      1 UNK         0.0000 
     12 C12        -0.1477   51.7195   25.9569 C.ar      1 UNK         0.0000 
     13 N13        -1.2920   51.2889   25.4679 N.2       1 UNK         0.0000 
     14 N14        -2.1249   51.1442   26.5016 N.pl3     1 UNK         0.0000 
     15 C15        -1.4780   51.4640   27.6751 C.ar      1 UNK         0.0000 
     16 O16        -2.1148   51.2967   28.8808 O.3       1 UNK         0.0000 
     17 C17        -3.4662   50.7400   26.2706 C.ar      1 UNK         0.0000 
     18 C18        -4.0812   49.7867   27.0936 C.ar      1 UNK         0.0000 
     19 C19        -5.4014   49.4117   26.8622 C.ar      1 UNK         0.0000 
     20 C20        -6.1078   49.9842   25.8069 C.ar      1 UNK         0.0000 
     21 C21        -5.5075   50.9303   24.9790 C.ar      1 UNK         0.0000 
     22 C22        -4.1879   51.3080   25.2095 C.ar      1 UNK         0.0000 
     23 C23         1.0084   51.8769   24.9814 C.3       1 UNK         0.0000 
     24 S24         0.7457   53.1761   23.7419 S.3       1 UNK         0.0000 
     25 C25         2.1100   53.0544   22.6305 C.ar      1 UNK         0.0000 
     26 C26         3.0303   54.0967   22.5756 C.ar      1 UNK         0.0000 
     27 C27         4.0895   54.0397   21.6749 C.ar      1 UNK         0.0000 
     28 C28         4.2173   52.9396   20.8300 C.ar      1 UNK         0.0000 
     29 C29         3.3049   51.8865   20.8920 C.ar      1 UNK         0.0000 
     30 C30         2.2456   51.9427   21.7978 C.ar      1 UNK         0.0000 
     31 Cl31        5.5041   52.8985   19.6834 Cl        1 UNK         0.0000 
     32 N32         0.6457   52.0960   29.5564 N.pl3     1 UNK         0.0000 
     33 H33         7.1943   54.7536   25.4909 H         1 UNK         0.0000 
     34 H34         7.3660   54.4968   27.9517 H         1 UNK         0.0000 
     35 H35         5.3562   54.0891   29.2819 H         1 UNK         0.0000 
     36 H36         2.9758   54.1855   25.6888 H         1 UNK         0.0000 
     37 H37         5.0107   54.6160   24.3811 H         1 UNK         0.0000 
     38 H38        -2.0959   50.3591   29.1239 H         1 UNK         0.0000 
     39 H39        -3.5400   49.3158   27.9034 H         1 UNK         0.0000 
     40 H40        -5.8723   48.6715   27.4943 H         1 UNK         0.0000 
     41 H41        -7.1309   49.6893   25.6264 H         1 UNK         0.0000 
     42 H42        -6.0626   51.3678   24.1617 H         1 UNK         0.0000 
     43 H43        -3.7319   52.0455   24.5637 H         1 UNK         0.0000 
     44 H44         1.9432   52.0987   25.4873 H         1 UNK         0.0000 
     45 H45         1.1822   50.9387   24.4549 H         1 UNK         0.0000 
     46 H46         2.9123   54.9561   23.2175 H         1 UNK         0.0000 
     47 H47         4.7976   54.8529   21.6186 H         1 UNK         0.0000 
     48 H48         3.4119   51.0416   20.2260 H         1 UNK         0.0000 
     49 H49         1.5263   51.1383   21.8378 H         1 UNK         0.0000 
     50 H50         1.2224   52.5071   30.2761 H         1 UNK         0.0000 
     51 H51        -0.2149   51.6346   29.8140 H         1 UNK         0.0000 
@<TRIPOS>BOND
     1    1    6 ar   
     2    1    2 ar   
     3    1   33 1    
     4    2    3 ar   
     5    2   34 1    
     6    3    4 ar   
     7    3   35 1    
     8    4    5 ar   
     9    4    7 1    
    10    5    6 ar   
    11    5   36 1    
    12    6   37 1    
    13    7    8 2    
    14    7    9 am   BACKBONE|DICT|INTERRES
    15    9   10 2    
    16   10   11 1    
    17   10   32 1    
    18   11   15 ar   
    19   11   12 ar   
    20   12   13 ar   
    21   12   23 1    
    22   13   14 ar   
    23   14   15 ar   
    24   14   17 1    
    25   15   16 1    
    26   16   38 1    
    27   17   22 ar   
    28   17   18 ar   
    29   18   19 ar   
    30   18   39 1    
    31   19   20 ar   
    32   19   40 1    
    33   20   21 ar   
    34   20   41 1    
    35   21   22 ar   
    36   21   42 1    
    37   22   43 1    
    38   23   24 1    
    39   23   44 1    
    40   23   45 1    
    41   24   25 1    
    42   25   30 ar   
    43   25   26 ar   
    44   26   27 ar   
    45   26   46 1    
    46   27   28 ar   
    47   27   47 1    
    48   28   29 ar   
    49   28   31 1    
    50   29   30 ar   
    51   29   48 1    
    52   30   49 1    
    53   32   50 1    
    54   32   51 1    
@<TRIPOS>SUBSTRUCTURE
     1 UNK         1 GROUP             0       ****    0 ROOT    
