ZINC11719715_1267
                    3D
 Schrodinger Suite 2024-2.
 50 52  0  0  1  0            999 V2000
    2.6687   51.8583   19.0045 C   0  0  0  0  0  0
    3.6561   52.4374   20.0255 C   0  0  1  0  0  0
    4.2678   51.6365   20.4476 H   0  0  0  0  0  0
    4.5781   53.4369   19.2797 C   0  0  0  0  0  0
    4.3045   54.6385   19.2430 O   0  0  0  0  0  0
    5.6659   52.8967   18.6988 N   0  0  0  0  0  0
    6.7144   53.5916   18.0769 C   0  0  0  0  0  0
    7.2004   53.0646   16.8766 C   0  0  0  0  0  0
    8.3040   53.6427   16.2496 C   0  0  0  0  0  0
    8.9424   54.7393   16.8285 C   0  0  0  0  0  0
    8.4797   55.2566   18.0378 C   0  0  0  0  0  0
    7.3754   54.6856   18.6708 C   0  0  0  0  0  0
    6.9953   55.1764   19.8750 F   0  0  0  0  0  0
   10.3157   55.4452   16.0583 Cl  0  0  0  0  0  0
    2.0093   52.1723   21.9950 C   0  0  0  0  0  0
    1.3972   52.8603   23.2378 C   0  0  0  0  0  0
    2.5121   53.3308   24.1789 C   0  0  1  0  0  0
    3.3519   54.3727   23.4290 C   0  0  0  0  0  0
    4.0868   53.6932   22.2694 C   0  0  0  0  0  0
    1.9046   54.0202   25.3244 N   0  0  0  0  0  0
    2.1016   53.5364   27.0140 S   0  0  0  0  0  0
    1.3739   54.4901   27.8565 O   0  0  0  0  0  0
    1.8646   52.0968   27.1235 O   0  0  0  0  0  0
    3.8550   53.8064   27.3679 C   0  0  0  0  0  0
    4.9272   53.6967   26.4911 C   0  0  0  0  0  0
    6.1634   53.8319   27.1167 C   0  0  0  0  0  0
    6.0443   54.0222   28.4793 C   0  0  0  0  0  0
    4.3891   54.0972   28.9906 S   0  0  0  0  0  0
    3.1851   51.4687   18.1237 H   0  0  0  0  0  0
    2.1183   51.0229   19.4357 H   0  0  0  0  0  0
    1.9580   52.6224   18.6839 H   0  0  0  0  0  0
    5.6007   51.8949   18.4816 H   0  0  0  0  0  0
    6.7292   52.2010   16.4269 H   0  0  0  0  0  0
    8.6701   53.2315   15.3199 H   0  0  0  0  0  0
    8.9898   56.0897   18.4989 H   0  0  0  0  0  0
    1.2112   51.9638   21.2819 H   0  0  0  0  0  0
    2.5396   51.2501   22.2417 H   0  0  0  0  0  0
    0.7738   53.6973   22.9208 H   0  0  0  0  0  0
    0.7315   52.1713   23.7611 H   0  0  0  0  0  0
    3.1044   52.4854   24.5086 H   0  0  0  0  0  0
    4.0540   54.8961   24.0766 H   0  0  0  0  0  0
    2.7101   55.1520   23.0251 H   0  0  0  0  0  0
    4.7439   52.8812   22.5814 H   0  0  0  0  0  0
    4.6686   54.4530   21.7469 H   0  0  0  0  0  0
    1.4158   54.8965   25.1440 H   0  0  0  0  0  0
    4.8494   53.4773   25.4439 H   0  0  0  0  0  0
    7.1042   53.7480   26.5978 H   0  0  0  0  0  0
    6.8518   54.0967   29.1900 H   0  0  0  0  0  0
    3.0223   53.1219   21.2821 N   0  3  1  0  0  0
    2.4982   53.9252   20.9421 H   0  0  0  0  0  0
  1  2  1  0  0  0
  1 29  1  0  0  0
  1 30  1  0  0  0
  1 31  1  0  0  0
  2  3  1  0  0  0
  2  4  1  0  0  0
  2 49  1  0  0  0
  4  5  2  0  0  0
  4  6  1  0  0  0
  6  7  1  0  0  0
  6 32  1  0  0  0
  7 12  2  0  0  0
  7  8  1  0  0  0
  8  9  2  0  0  0
  8 33  1  0  0  0
  9 10  1  0  0  0
  9 34  1  0  0  0
 10 11  2  0  0  0
 10 14  1  0  0  0
 11 12  1  0  0  0
 11 35  1  0  0  0
 12 13  1  0  0  0
 15 16  1  0  0  0
 15 36  1  0  0  0
 15 37  1  0  0  0
 15 49  1  0  0  0
 16 17  1  0  0  0
 16 38  1  0  0  0
 16 39  1  0  0  0
 17 18  1  0  0  0
 17 20  1  0  0  0
 17 40  1  0  0  0
 18 19  1  0  0  0
 18 41  1  0  0  0
 18 42  1  0  0  0
 19 43  1  0  0  0
 19 44  1  0  0  0
 19 49  1  0  0  0
 20 21  1  0  0  0
 20 45  1  0  0  0
 21 22  2  0  0  0
 21 23  2  0  0  0
 21 24  1  0  0  0
 24 28  1  0  0  0
 24 25  2  0  0  0
 25 26  1  0  0  0
 25 46  1  0  0  0
 26 27  2  0  0  0
 26 47  1  0  0  0
 27 28  1  0  0  0
 27 48  1  0  0  0
 49 50  1  0  0  0
M  CHG  1  49   1
M  END
> <i_i_glide_confnum>
70

> <i_i_glide_lignum>
1268

> <i_i_glide_posenum>
157

> <i_i_glide_rotatable_bonds>
7

> <i_m_Source_File_Index>
1916

> <b_m_subgroup_collapsed>
0

> <r_i_docking_score>
-4.65321

> <r_i_glide_ecoul>
-6.87293

> <r_i_glide_eff_state_penalty>
0

> <r_i_glide_einternal>
7.8813

> <r_i_glide_emodel>
-43.7752

> <r_i_glide_energy>
-36.2294

> <r_i_glide_erotb>
0.601281

> <r_i_glide_esite>
-0.141851

> <r_i_glide_evdw>
-29.3564

> <r_i_glide_gscore>
-4.65321

> <r_i_glide_hbond>
-0.16

> <r_i_glide_ligand_efficiency>
-0.166186

> <r_i_glide_ligand_efficiency_ln>
-1.0741

> <r_i_glide_ligand_efficiency_sa>
-0.504639

> <r_i_glide_lipo>
-2.23681

> <r_i_glide_metal>
0

> <r_i_glide_rewards>
-0.217064

> <s_i_glide_gridfile>
wee1_glide-grid

> <s_m_Source_File>
wee1_decoys_glide_SP.sdf

> <s_m_Source_Path>
/Users/zhangxujun/Desktop

> <s_m_entry_id>
2191

> <s_m_entry_name>
wee1_decoys_glide_SP.1916

> <s_m_subgroup_title>
wee1_decoys_glide_SP

> <s_m_subgroupid>
wee1_decoys_glide_SP


$$$$
