ZINC16201616_3377
                    3D
 Schrodinger Suite 2024-2.
 63 66  0  0  1  0            999 V2000
    9.8475   54.0307   17.2982 C   0  0  0  0  0  0
    8.9080   53.1004   16.5673 C   0  0  0  0  0  0
    7.5914   53.3069   16.1402 C   0  0  0  0  0  0
    7.2688   52.1622   15.4401 C   0  0  0  0  0  0
    8.3110   51.2999   15.5144 O   0  0  0  0  0  0
    9.3371   51.9009   16.2395 N   0  0  0  0  0  0
    6.0724   51.7055   14.6397 C   0  0  0  0  0  0
    6.5420   54.7583   16.3797 S   0  0  0  0  0  0
    5.2818   54.4939   15.6772 O   0  0  0  0  0  0
    7.3631   55.9311   16.0593 O   0  0  0  0  0  0
    6.2215   54.7285   18.1274 N   0  0  0  0  0  0
    7.2263   55.3219   19.0388 C   0  0  0  0  0  0
    6.5124   55.8489   20.2994 C   0  0  0  0  0  0
    5.6091   54.7807   20.9656 C   0  0  0  0  0  0
    4.7239   54.0177   19.9355 C   0  0  1  0  0  0
    3.9202   54.6646   19.5743 H   0  0  0  0  0  0
    5.5319   53.5458   18.6971 C   0  0  0  0  0  0
    4.0648   52.8274   20.6676 C   0  0  0  0  0  0
    4.7066   51.7947   20.8841 O   0  0  0  0  0  0
    2.8123   53.0474   21.1215 N   0  0  0  0  0  0
    2.1216   52.0197   21.7495 N   0  0  0  0  0  0
    1.6761   52.1317   23.0253 C   0  0  0  0  0  0
    0.7689   51.3854   23.3906 O   0  0  0  0  0  0
    2.3360   52.9949   24.0062 C   0  0  0  0  0  0
    3.5405   53.6968   23.9630 C   0  0  0  0  0  0
    3.9307   54.3171   25.1556 C   0  0  0  0  0  0
    3.0274   54.0544   26.1919 C   0  0  0  0  0  0
    1.6860   53.1074   25.6133 S   0  0  0  0  0  0
    3.1056   54.4542   27.6523 C   0  0  0  0  0  0
    3.9787   53.5058   28.4949 C   0  0  0  0  0  0
    5.3355   53.1348   27.8631 C   0  0  0  0  0  0
    6.2640   54.3003   27.4794 C   0  0  0  0  0  0
    6.3980   54.5009   25.9574 C   0  0  0  0  0  0
    5.1918   55.1622   25.2701 C   0  0  0  0  0  0
    9.4994   55.0621   17.3025 H   0  0  0  0  0  0
    9.9823   53.7294   18.3354 H   0  0  0  0  0  0
   10.8377   54.0452   16.8401 H   0  0  0  0  0  0
    5.6958   52.4966   13.9930 H   0  0  0  0  0  0
    6.3122   50.8565   13.9999 H   0  0  0  0  0  0
    5.2510   51.3987   15.2860 H   0  0  0  0  0  0
    7.7745   56.1169   18.5331 H   0  0  0  0  0  0
    7.9187   54.5394   19.3497 H   0  0  0  0  0  0
    5.9113   56.7187   20.0248 H   0  0  0  0  0  0
    7.2511   56.2093   21.0184 H   0  0  0  0  0  0
    4.9877   55.2958   21.6943 H   0  0  0  0  0  0
    6.2981   54.1008   21.4670 H   0  0  0  0  0  0
    6.3145   52.8531   19.0121 H   0  0  0  0  0  0
    4.8940   53.1063   17.9274 H   0  0  0  0  0  0
    2.2102   53.7741   20.7499 H   0  0  0  0  0  0
    1.6375   51.4315   21.0878 H   0  0  0  0  0  0
    4.1811   53.7543   23.1047 H   0  0  0  0  0  0
    2.1098   54.5158   28.0925 H   0  0  0  0  0  0
    3.5182   55.4512   27.7485 H   0  0  0  0  0  0
    3.4218   52.5847   28.6769 H   0  0  0  0  0  0
    4.1450   53.9485   29.4787 H   0  0  0  0  0  0
    5.1554   52.4992   26.9953 H   0  0  0  0  0  0
    5.8755   52.4789   28.5334 H   0  0  0  0  0  0
    7.2576   54.0866   27.8757 H   0  0  0  0  0  0
    5.9641   55.2276   27.9697 H   0  0  0  0  0  0
    6.6373   53.5548   25.4685 H   0  0  0  0  0  0
    7.2647   55.1378   25.7807 H   0  0  0  0  0  0
    4.9603   56.0966   25.7704 H   0  0  0  0  0  0
    5.5179   55.4657   24.2752 H   0  0  0  0  0  0
  1  2  1  0  0  0
  1 35  1  0  0  0
  1 36  1  0  0  0
  1 37  1  0  0  0
  2  6  2  0  0  0
  2  3  1  0  0  0
  3  4  2  0  0  0
  3  8  1  0  0  0
  4  5  1  0  0  0
  4  7  1  0  0  0
  5  6  1  0  0  0
  7 38  1  0  0  0
  7 39  1  0  0  0
  7 40  1  0  0  0
  8  9  2  0  0  0
  8 10  2  0  0  0
  8 11  1  0  0  0
 11 17  1  0  0  0
 11 12  1  0  0  0
 12 13  1  0  0  0
 12 41  1  0  0  0
 12 42  1  0  0  0
 13 14  1  0  0  0
 13 43  1  0  0  0
 13 44  1  0  0  0
 14 15  1  0  0  0
 14 45  1  0  0  0
 14 46  1  0  0  0
 15 16  1  0  0  0
 15 17  1  0  0  0
 15 18  1  0  0  0
 17 47  1  0  0  0
 17 48  1  0  0  0
 18 19  2  0  0  0
 18 20  1  0  0  0
 20 21  1  0  0  0
 20 49  1  0  0  0
 21 22  1  0  0  0
 21 50  1  0  0  0
 22 23  2  0  0  0
 22 24  1  0  0  0
 24 28  1  0  0  0
 24 25  2  0  0  0
 25 26  1  0  0  0
 25 51  1  0  0  0
 26 34  1  0  0  0
 26 27  2  0  0  0
 27 28  1  0  0  0
 27 29  1  0  0  0
 29 30  1  0  0  0
 29 52  1  0  0  0
 29 53  1  0  0  0
 30 31  1  0  0  0
 30 54  1  0  0  0
 30 55  1  0  0  0
 31 32  1  0  0  0
 31 56  1  0  0  0
 31 57  1  0  0  0
 32 33  1  0  0  0
 32 58  1  0  0  0
 32 59  1  0  0  0
 33 34  1  0  0  0
 33 60  1  0  0  0
 33 61  1  0  0  0
 34 62  1  0  0  0
 34 63  1  0  0  0
M  END
> <i_i_glide_confnum>
103

> <i_i_glide_lignum>
3378

> <i_i_glide_posenum>
256

> <i_i_glide_rotatable_bonds>
7

> <i_m_Source_File_Index>
2527

> <b_m_subgroup_collapsed>
0

> <r_i_docking_score>
-5.83641

> <r_i_glide_ecoul>
-2.5724

> <r_i_glide_eff_state_penalty>
0

> <r_i_glide_einternal>
4.15302

> <r_i_glide_emodel>
-61.3688

> <r_i_glide_energy>
-46.0659

> <r_i_glide_erotb>
0.499794

> <r_i_glide_esite>
-0.0186097

> <r_i_glide_evdw>
-43.4935

> <r_i_glide_gscore>
-5.83641

> <r_i_glide_hbond>
-0.32

> <r_i_glide_ligand_efficiency>
-0.176861

> <r_i_glide_ligand_efficiency_ln>
-1.29799

> <r_i_glide_ligand_efficiency_sa>
-0.567287

> <r_i_glide_lipo>
-3.21761

> <r_i_glide_metal>
0

> <r_i_glide_rewards>
-0.219449

> <s_i_glide_gridfile>
wee1_glide-grid

> <s_m_Source_File>
wee1_decoys_glide_SP.sdf

> <s_m_Source_Path>
/Users/zhangxujun/Desktop

> <s_m_entry_id>
2802

> <s_m_entry_name>
wee1_decoys_glide_SP.2527

> <s_m_subgroup_title>
wee1_decoys_glide_SP

> <s_m_subgroupid>
wee1_decoys_glide_SP


$$$$
