@<TRIPOS>MOLECULE
ZINC46839050_2166
69   71    1
SMALL
USER_CHARGES


@<TRIPOS>ATOM
      1 C1          3.7381   54.6977   25.7959 C.3       1 UNK         0.0000 
      2 C2          4.1818   53.9573   24.5232 C.3       1 UNK         0.0000 
      3 H3          3.9506   52.8969   24.6091 H         1 UNK         0.0000 
      4 C4          5.6939   54.2097   24.2726 C.3       1 UNK         0.0000 
      5 C5          6.2151   53.7373   22.9017 C.3       1 UNK         0.0000 
      6 C6          5.3254   54.2342   21.7546 C.3       1 UNK         0.0000 
      7 C7          3.8543   53.8526   21.9708 C.3       1 UNK         0.0000 
      8 N8          3.3540   54.4656   23.3060 N.4       1 UNK         0.0000 
      9 C9          1.8196   54.2416   23.4330 C.3       1 UNK         0.0000 
     10 C10         1.3147   52.8399   23.7787 C.ar      1 UNK         0.0000 
     11 C11         0.8725   52.5578   25.0743 C.ar      1 UNK         0.0000 
     12 C12         0.3129   51.3219   25.3767 C.ar      1 UNK         0.0000 
     13 C13         0.1901   50.3456   24.3859 C.ar      1 UNK         0.0000 
     14 C14         0.6350   50.6205   23.0894 C.ar      1 UNK         0.0000 
     15 C15         1.1868   51.8645   22.7853 C.ar      1 UNK         0.0000 
     16 C16        -0.4930   49.0088   24.6919 C.3       1 UNK         0.0000 
     17 N17        -1.5756   49.0626   25.6819 N.am      1 UNK         0.0000 
     18 C18        -2.7531   49.6983   25.5395 C.2       1 UNK         0.0000 
     19 O19        -3.0798   50.2616   24.4947 O.2       1 UNK         0.0000 
     20 C20        -3.7122   49.6527   26.7540 C.3       1 UNK         0.0000 
     21 C21        -3.3058   50.6951   27.8269 C.3       1 UNK         0.0000 
     22 C22        -4.2528   50.5954   29.0505 C.3       1 UNK         0.0000 
     23 N23        -5.6368   50.7784   28.5592 N.am      1 UNK         0.0000 
     24 C24        -6.0949   49.7222   27.6227 C.3       1 UNK         0.0000 
     25 C25        -5.2032   49.7904   26.3582 C.3       1 UNK         0.0000 
     26 C26        -6.4288   51.7724   29.0541 C.2       1 UNK         0.0000 
     27 O27        -6.0956   52.4958   29.9996 O.2       1 UNK         0.0000 
     28 N28        -7.6043   51.9536   28.4176 N.am      1 UNK         0.0000 
     29 C29        -8.5599   53.0357   28.6618 C.3       1 UNK         0.0000 
     30 C30        -9.5398   53.1659   27.4861 C.3       1 UNK         0.0000 
     31 C31        -9.3012   52.8888   30.0053 C.3       1 UNK         0.0000 
     32 H32         4.3475   54.3944   26.6490 H         1 UNK         0.0000 
     33 H33         3.8520   55.7699   25.6830 H         1 UNK         0.0000 
     34 H34         2.7083   54.4960   26.0750 H         1 UNK         0.0000 
     35 H35         6.2752   53.7204   25.0558 H         1 UNK         0.0000 
     36 H36         5.9022   55.2771   24.3617 H         1 UNK         0.0000 
     37 H37         6.2805   52.6489   22.8814 H         1 UNK         0.0000 
     38 H38         7.2376   54.0974   22.7626 H         1 UNK         0.0000 
     39 H39         5.6700   53.8137   20.8089 H         1 UNK         0.0000 
     40 H40         5.4190   55.3156   21.6552 H         1 UNK         0.0000 
     41 H41         3.7085   52.7720   22.0150 H         1 UNK         0.0000 
     42 H42         3.2467   54.2757   21.1692 H         1 UNK         0.0000 
     43 H43         1.3995   54.5718   22.4824 H         1 UNK         0.0000 
     44 H44         1.5023   54.9607   24.1851 H         1 UNK         0.0000 
     45 H45         0.9190   53.2972   25.8570 H         1 UNK         0.0000 
     46 H46        -0.0424   51.1308   26.3794 H         1 UNK         0.0000 
     47 H47         0.5314   49.8822   22.3068 H         1 UNK         0.0000 
     48 H48         1.4876   52.0700   21.7685 H         1 UNK         0.0000 
     49 H49         0.2684   48.3236   25.0667 H         1 UNK         0.0000 
     50 H50        -0.8850   48.5666   23.7745 H         1 UNK         0.0000 
     51 H51        -1.3712   48.6865   26.6110 H         1 UNK         0.0000 
     52 H52        -3.5408   48.6670   27.1945 H         1 UNK         0.0000 
     53 H53        -3.3891   51.7165   27.4492 H         1 UNK         0.0000 
     54 H54        -2.3021   50.5067   28.2093 H         1 UNK         0.0000 
     55 H55        -3.9804   51.2947   29.8405 H         1 UNK         0.0000 
     56 H56        -4.1825   49.5989   29.4907 H         1 UNK         0.0000 
     57 H57        -5.9458   48.7636   28.1242 H         1 UNK         0.0000 
     58 H58        -7.1586   49.7641   27.3825 H         1 UNK         0.0000 
     59 H59        -5.5128   48.9628   25.7184 H         1 UNK         0.0000 
     60 H60        -5.4083   50.7486   25.8743 H         1 UNK         0.0000 
     61 H61        -7.8078   51.3591   27.6305 H         1 UNK         0.0000 
     62 H62        -7.9921   53.9685   28.6962 H         1 UNK         0.0000 
     63 H63       -10.2748   53.9491   27.6789 H         1 UNK         0.0000 
     64 H64       -10.1033   52.2450   27.3283 H         1 UNK         0.0000 
     65 H65        -9.0274   53.4349   26.5620 H         1 UNK         0.0000 
     66 H66       -10.0379   53.6845   30.1314 H         1 UNK         0.0000 
     67 H67        -9.8462   51.9454   30.0592 H         1 UNK         0.0000 
     68 H68        -8.6203   52.9526   30.8551 H         1 UNK         0.0000 
     69 H69         3.5062   55.4616   23.2332 H         1 UNK         0.0000 
@<TRIPOS>BOND
     1    1    2 1    
     2    1   32 1    
     3    1   33 1    
     4    1   34 1    
     5    2    3 1    
     6    2    8 1    
     7    2    4 1    
     8    4    5 1    
     9    4   35 1    
    10    4   36 1    
    11    5    6 1    
    12    5   37 1    
    13    5   38 1    
    14    6    7 1    
    15    6   39 1    
    16    6   40 1    
    17    7    8 1    
    18    7   41 1    
    19    7   42 1    
    20    8    9 1    
    21    8   69 1    
    22    9   10 1    
    23    9   43 1    
    24    9   44 1    
    25   10   15 ar   
    26   10   11 ar   
    27   11   12 ar   
    28   11   45 1    
    29   12   13 ar   
    30   12   46 1    
    31   13   14 ar   
    32   13   16 1    
    33   14   15 ar   
    34   14   47 1    
    35   15   48 1    
    36   16   17 1    
    37   16   49 1    
    38   16   50 1    
    39   17   18 am   BACKBONE|DICT|INTERRES
    40   17   51 1    
    41   18   19 2    
    42   18   20 1    
    43   20   25 1    
    44   20   21 1    
    45   20   52 1    
    46   21   22 1    
    47   21   53 1    
    48   21   54 1    
    49   22   23 1    
    50   22   55 1    
    51   22   56 1    
    52   23   24 1    
    53   23   26 am   BACKBONE|DICT|INTERRES
    54   24   25 1    
    55   24   57 1    
    56   24   58 1    
    57   25   59 1    
    58   25   60 1    
    59   26   27 2    
    60   26   28 am   BACKBONE|DICT|INTERRES
    61   28   29 1    
    62   28   61 1    
    63   29   30 1    
    64   29   31 1    
    65   29   62 1    
    66   30   63 1    
    67   30   64 1    
    68   30   65 1    
    69   31   66 1    
    70   31   67 1    
    71   31   68 1    
@<TRIPOS>SUBSTRUCTURE
     1 UNK         1 GROUP             0       ****    0 ROOT    
