@<TRIPOS>MOLECULE
ZINC16121166_2456
58   61    1
SMALL
USER_CHARGES


@<TRIPOS>ATOM
      1 C1         -1.6842   53.2053   23.7048 C.3       1 UNK         0.0000 
      2 C2         -1.2704   52.1315   22.6667 C.3       1 UNK         0.0000 
      3 H3         -0.9933   52.6126   21.7299 H         1 UNK         0.0000 
      4 C4         -2.4527   51.1873   22.4233 C.3       1 UNK         0.0000 
      5 C5         -2.2256   50.1051   23.4321 C.ar      1 UNK         0.0000 
      6 C6         -3.0867   49.1138   23.9038 C.ar      1 UNK         0.0000 
      7 C7         -2.6293   48.2008   24.8591 C.ar      1 UNK         0.0000 
      8 C8         -1.2961   48.2476   25.2821 C.ar      1 UNK         0.0000 
      9 C9         -0.4220   49.2046   24.7635 C.ar      1 UNK         0.0000 
     10 C10        -0.8845   50.1182   23.8089 C.ar      1 UNK         0.0000 
     11 N11        -0.2415   51.2312   23.2214 N.am      1 UNK         0.0000 
     12 C12         1.1012   51.3760   23.0249 C.2       1 UNK         0.0000 
     13 O13         1.9036   50.5121   23.3741 O.2       1 UNK         0.0000 
     14 C14         1.6882   52.6214   22.3348 C.3       1 UNK         0.0000 
     15 S15         1.7261   54.0967   23.4010 S.3       1 UNK         0.0000 
     16 C16         3.3591   54.0306   24.0717 C.ar      1 UNK         0.0000 
     17 N17         4.4377   54.0972   23.3215 N.2       1 UNK         0.0000 
     18 C18         5.4540   54.1509   24.1602 C.ar      1 UNK         0.0000 
     19 C19         5.0267   54.0968   25.4746 C.ar      1 UNK         0.0000 
     20 N20         3.6586   53.9723   25.4266 N.pl3     1 UNK         0.0000 
     21 C21         2.7875   53.8310   26.5323 C.ar      1 UNK         0.0000 
     22 C22         2.9810   54.5946   27.6863 C.ar      1 UNK         0.0000 
     23 C23         2.0922   54.4837   28.7537 C.ar      1 UNK         0.0000 
     24 C24         1.0164   53.5849   28.7007 C.ar      1 UNK         0.0000 
     25 C25         0.8490   52.8090   27.5448 C.ar      1 UNK         0.0000 
     26 C26         1.7280   52.9239   26.4760 C.ar      1 UNK         0.0000 
     27 C27         0.0205   53.4591   29.8749 C.3       1 UNK         0.0000 
     28 C28        -0.6562   52.0754   29.9495 C.3       1 UNK         0.0000 
     29 C29         0.6194   53.8113   31.2539 C.3       1 UNK         0.0000 
     30 S30        -3.7502   47.0049   25.5784 S.o2      1 UNK         0.0000 
     31 O31        -3.0200   45.7369   25.6820 O.2       1 UNK         0.0000 
     32 O32        -5.0204   47.0813   24.8503 O.2       1 UNK         0.0000 
     33 N33        -4.0415   47.5853   27.1969 N.pl3     1 UNK         0.0000 
     34 H34        -2.4119   53.8983   23.2832 H         1 UNK         0.0000 
     35 H35        -2.1640   52.7548   24.5755 H         1 UNK         0.0000 
     36 H36        -0.8492   53.7881   24.0797 H         1 UNK         0.0000 
     37 H37        -2.4141   50.7767   21.4133 H         1 UNK         0.0000 
     38 H38        -3.4187   51.6857   22.4930 H         1 UNK         0.0000 
     39 H39        -4.1146   49.0833   23.5726 H         1 UNK         0.0000 
     40 H40        -0.9383   47.5660   26.0423 H         1 UNK         0.0000 
     41 H41         0.5962   49.2283   25.1253 H         1 UNK         0.0000 
     42 H42         2.6891   52.3990   21.9634 H         1 UNK         0.0000 
     43 H43         1.1137   52.8520   21.4392 H         1 UNK         0.0000 
     44 H44         6.4759   54.2192   23.8147 H         1 UNK         0.0000 
     45 H45         5.5566   54.0861   26.4153 H         1 UNK         0.0000 
     46 H46         3.7999   55.2958   27.7531 H         1 UNK         0.0000 
     47 H47         2.2544   55.1126   29.6144 H         1 UNK         0.0000 
     48 H48         0.0358   52.1062   27.4502 H         1 UNK         0.0000 
     49 H49         1.5763   52.2998   25.6096 H         1 UNK         0.0000 
     50 H50        -0.7664   54.1851   29.6824 H         1 UNK         0.0000 
     51 H51        -1.3732   51.9241   29.1436 H         1 UNK         0.0000 
     52 H52         0.0949   51.2966   29.8769 H         1 UNK         0.0000 
     53 H53        -1.1991   51.9196   30.8814 H         1 UNK         0.0000 
     54 H54         0.8947   54.8632   31.3138 H         1 UNK         0.0000 
     55 H55        -0.0965   53.6375   32.0590 H         1 UNK         0.0000 
     56 H56         1.4990   53.2048   31.4691 H         1 UNK         0.0000 
     57 H57        -3.1608   47.6946   27.7281 H         1 UNK         0.0000 
     58 H58        -4.5855   48.4491   27.2131 H         1 UNK         0.0000 
@<TRIPOS>BOND
     1    1    2 1    
     2    1   34 1    
     3    1   35 1    
     4    1   36 1    
     5    2    3 1    
     6    2   11 1    
     7    2    4 1    
     8    4    5 1    
     9    4   37 1    
    10    4   38 1    
    11    5   10 ar   
    12    5    6 ar   
    13    6    7 ar   
    14    6   39 1    
    15    7    8 ar   
    16    7   30 1    
    17    8    9 ar   
    18    8   40 1    
    19    9   10 ar   
    20    9   41 1    
    21   10   11 1    
    22   11   12 am   BACKBONE|DICT|INTERRES
    23   12   13 2    
    24   12   14 1    
    25   14   15 1    
    26   14   42 1    
    27   14   43 1    
    28   15   16 1    
    29   16   20 ar   
    30   16   17 ar   
    31   17   18 ar   
    32   18   19 ar   
    33   18   44 1    
    34   19   20 ar   
    35   19   45 1    
    36   20   21 1    
    37   21   26 ar   
    38   21   22 ar   
    39   22   23 ar   
    40   22   46 1    
    41   23   24 ar   
    42   23   47 1    
    43   24   25 ar   
    44   24   27 1    
    45   25   26 ar   
    46   25   48 1    
    47   26   49 1    
    48   27   28 1    
    49   27   29 1    
    50   27   50 1    
    51   28   51 1    
    52   28   52 1    
    53   28   53 1    
    54   29   54 1    
    55   29   55 1    
    56   29   56 1    
    57   30   31 2    
    58   30   32 2    
    59   30   33 1    
    60   33   57 1    
    61   33   58 1    
@<TRIPOS>SUBSTRUCTURE
     1 UNK         1 GROUP             0       ****    0 ROOT    
