ZINC61865226_6209
                    3D
 Schrodinger Suite 2024-2.
 53 55  0  0  1  0            999 V2000
    4.1614   56.6703   16.4831 C   0  0  0  0  0  0
    4.5233   56.0111   17.6545 C   0  0  0  0  0  0
    5.5399   56.5219   18.4817 C   0  0  0  0  0  0
    6.1902   57.7030   18.0919 C   0  0  0  0  0  0
    5.8225   58.3689   16.9254 C   0  0  0  0  0  0
    4.8074   57.8519   16.1210 C   0  0  0  0  0  0
    4.4195   58.5437   14.8996 C   0  0  0  0  0  0
    4.1110   59.0879   13.9257 N   0  0  0  0  0  0
    5.9044   55.8634   19.8003 C   0  0  0  0  0  0
    6.8393   56.3014   20.4820 O   0  0  0  0  0  0
    5.1044   54.8408   20.1847 N   0  0  0  0  0  0
    5.3612   54.2255   21.4049 N   0  0  0  0  0  0
    4.3353   54.1451   22.2770 C   0  0  0  0  0  0
    3.1731   54.4967   22.0817 O   0  0  0  0  0  0
    4.7456   53.6967   23.4629 N   0  0  0  0  0  0
    3.9496   53.6967   24.6985 C   0  0  0  0  0  0
    4.7502   53.9773   26.0251 C   0  0  0  0  0  0
    6.2631   53.5728   25.9091 C   0  0  0  0  0  0
    7.1028   54.8416   25.8581 C   0  0  0  0  0  0
    6.1271   55.9044   25.4186 C   0  0  0  0  0  0
    4.8650   55.4894   26.1569 C   0  0  0  0  0  0
    3.9617   53.2967   27.2031 N   0  3  0  0  0  0
    2.4744   53.7514   27.2952 C   0  0  0  0  0  0
    1.6804   52.8562   28.2658 C   0  0  0  0  0  0
    2.2844   52.8965   29.9729 S   0  0  0  0  0  0
    4.0011   52.4605   29.6092 C   0  0  0  0  0  0
    4.6651   53.4041   28.5901 C   0  0  0  0  0  0
    3.3713   56.2592   15.8694 H   0  0  0  0  0  0
    3.9840   55.1094   17.9065 H   0  0  0  0  0  0
    6.9684   58.1375   18.7033 H   0  0  0  0  0  0
    6.3171   59.2967   16.6671 H   0  0  0  0  0  0
    4.6930   54.2083   19.5137 H   0  0  0  0  0  0
    5.9585   53.4243   21.2677 H   0  0  0  0  0  0
    5.6561   53.2671   23.5184 H   0  0  0  0  0  0
    3.1524   54.4364   24.5901 H   0  0  0  0  0  0
    3.4072   52.7560   24.7504 H   0  0  0  0  0  0
    6.6217   52.8967   26.6801 H   0  0  0  0  0  0
    6.4923   53.0481   24.9932 H   0  0  0  0  0  0
    7.5044   55.0597   26.8495 H   0  0  0  0  0  0
    7.9044   54.7605   25.1317 H   0  0  0  0  0  0
    6.4607   56.8966   25.6817 H   0  0  0  0  0  0
    5.9862   55.8891   24.3379 H   0  0  0  0  0  0
    3.9842   56.0271   25.8186 H   0  0  0  0  0  0
    5.0019   55.6967   27.2118 H   0  0  0  0  0  0
    2.4442   54.8096   27.5620 H   0  0  0  0  0  0
    2.0103   53.6270   26.3188 H   0  0  0  0  0  0
    1.6622   51.8198   27.9241 H   0  0  0  0  0  0
    0.6389   53.1790   28.3034 H   0  0  0  0  0  0
    4.0438   51.4219   29.2817 H   0  0  0  0  0  0
    4.5278   52.4964   30.5617 H   0  0  0  0  0  0
    5.6962   53.0787   28.4896 H   0  0  0  0  0  0
    4.6646   54.4406   28.9291 H   0  0  0  0  0  0
    3.9755   52.3145   26.9563 H   0  0  0  0  0  0
  1  6  2  0  0  0
  1  2  1  0  0  0
  1 28  1  0  0  0
  2  3  2  0  0  0
  2 29  1  0  0  0
  3  4  1  0  0  0
  3  9  1  0  0  0
  4  5  2  0  0  0
  4 30  1  0  0  0
  5  6  1  0  0  0
  5 31  1  0  0  0
  6  7  1  0  0  0
  7  8  3  0  0  0
  9 10  2  0  0  0
  9 11  1  0  0  0
 11 12  1  0  0  0
 11 32  1  0  0  0
 12 13  1  0  0  0
 12 33  1  0  0  0
 13 14  2  0  0  0
 13 15  1  0  0  0
 15 16  1  0  0  0
 15 34  1  0  0  0
 16 17  1  0  0  0
 16 35  1  0  0  0
 16 36  1  0  0  0
 17 21  1  0  0  0
 17 18  1  0  0  0
 17 22  1  0  0  0
 18 19  1  0  0  0
 18 37  1  0  0  0
 18 38  1  0  0  0
 19 20  1  0  0  0
 19 39  1  0  0  0
 19 40  1  0  0  0
 20 21  1  0  0  0
 20 41  1  0  0  0
 20 42  1  0  0  0
 21 43  1  0  0  0
 21 44  1  0  0  0
 22 27  1  0  0  0
 22 23  1  0  0  0
 22 53  1  0  0  0
 23 24  1  0  0  0
 23 45  1  0  0  0
 23 46  1  0  0  0
 24 25  1  0  0  0
 24 47  1  0  0  0
 24 48  1  0  0  0
 25 26  1  0  0  0
 26 27  1  0  0  0
 26 49  1  0  0  0
 26 50  1  0  0  0
 27 51  1  0  0  0
 27 52  1  0  0  0
M  CHG  1  22   1
M  END
> <i_i_glide_confnum>
102

> <i_i_glide_lignum>
6210

> <i_i_glide_posenum>
300

> <i_i_glide_rotatable_bonds>
9

> <i_m_Source_File_Index>
1243

> <b_m_subgroup_collapsed>
0

> <r_i_docking_score>
-3.45921

> <r_i_glide_ecoul>
0.707035

> <r_i_glide_eff_state_penalty>
0

> <r_i_glide_einternal>
8.79566

> <r_i_glide_emodel>
-30.022

> <r_i_glide_energy>
-23.8367

> <r_i_glide_erotb>
1.03272

> <r_i_glide_esite>
-0.0423993

> <r_i_glide_evdw>
-24.5438

> <r_i_glide_gscore>
-3.45921

> <r_i_glide_hbond>
-0.0926773

> <r_i_glide_ligand_efficiency>
-0.128119

> <r_i_glide_ligand_efficiency_ln>
-0.805247

> <r_i_glide_ligand_efficiency_sa>
-0.384357

> <r_i_glide_lipo>
-2.20611

> <r_i_glide_metal>
0

> <r_i_glide_rewards>
-1.02961

> <s_i_glide_gridfile>
wee1_glide-grid

> <s_m_Source_File>
wee1_decoys_glide_SP.sdf

> <s_m_Source_Path>
/Users/zhangxujun/Desktop

> <s_m_entry_id>
1518

> <s_m_entry_name>
wee1_decoys_glide_SP.1243

> <s_m_subgroup_title>
wee1_decoys_glide_SP

> <s_m_subgroupid>
wee1_decoys_glide_SP


$$$$
