@<TRIPOS>MOLECULE
ZINC32961641_5975
65   68    1
SMALL
USER_CHARGES


@<TRIPOS>ATOM
      1 C1          3.4745   54.1762   30.0301 C.3       1 UNK         0.0000 
      2 C2          4.1436   54.2215   28.6731 C.ar      1 UNK         0.0000 
      3 C3          5.5038   54.4953   28.5714 C.ar      1 UNK         0.0000 
      4 C4          6.1272   54.4845   27.3296 C.ar      1 UNK         0.0000 
      5 C5          5.3999   54.1999   26.1716 C.ar      1 UNK         0.0000 
      6 C6          4.0102   53.9380   26.2549 C.ar      1 UNK         0.0000 
      7 C7          3.4041   53.9639   27.5198 C.ar      1 UNK         0.0000 
      8 N8          3.2294   53.6984   25.1247 N.pl3     1 UNK         0.0000 
      9 C9          3.0853   54.7471   24.1020 C.3       1 UNK         0.0000 
     10 C10         2.3361   54.3493   22.8153 C.3       1 UNK         0.0000 
     11 N11         2.1718   52.9047   22.6270 N.pl3     1 UNK         0.0000 
     12 C12         1.5532   52.2913   23.8098 C.3       1 UNK         0.0000 
     13 C13         2.0106   52.8748   25.1748 C.3       1 UNK         0.0000 
     14 C14         2.1897   52.3349   21.3530 C.ar      1 UNK         0.0000 
     15 C15         1.0859   51.5651   20.9576 C.ar      1 UNK         0.0000 
     16 C16         0.9734   51.0668   19.6624 C.ar      1 UNK         0.0000 
     17 C17         1.9608   51.3376   18.7148 C.ar      1 UNK         0.0000 
     18 C18         3.0832   52.0665   19.1057 C.ar      1 UNK         0.0000 
     19 C19         3.2401   52.5362   20.4175 C.ar      1 UNK         0.0000 
     20 C20         4.5289   53.2182   20.7671 C.2       1 UNK         0.0000 
     21 O21         5.1039   52.8668   21.8241 O.co2     1 UNK         0.0000 
     22 O22         4.9757   54.0720   19.9674 O.co2     1 UNK         0.0000 
     23 N23         1.9045   50.8962   17.3838 N.pl3     1 UNK         0.0000 
     24 S24         0.4977   50.1614   16.5920 S.o2      1 UNK         0.0000 
     25 O25        -0.7190   50.7754   17.1401 O.2       1 UNK         0.0000 
     26 O26         0.7759   50.2046   15.1523 O.2       1 UNK         0.0000 
     27 C27         0.5453   48.4403   17.0764 C.ar      1 UNK         0.0000 
     28 C28        -0.2913   47.9476   18.0818 C.ar      1 UNK         0.0000 
     29 C29        -0.2237   46.6009   18.4535 C.ar      1 UNK         0.0000 
     30 C30         0.6696   45.7463   17.8000 C.ar      1 UNK         0.0000 
     31 C31         1.5073   46.2360   16.7950 C.ar      1 UNK         0.0000 
     32 C32         1.4514   47.5854   16.4450 C.ar      1 UNK         0.0000 
     33 C33         2.4823   45.3182   16.0815 C.3       1 UNK         0.0000 
     34 C34        -1.1313   46.0665   19.5463 C.3       1 UNK         0.0000 
     35 C35         6.1844   54.0966   24.8691 C.3       1 UNK         0.0000 
     36 H36         2.8301   53.3011   30.1004 H         1 UNK         0.0000 
     37 H37         4.2165   54.0970   30.8255 H         1 UNK         0.0000 
     38 H38         2.8576   55.0634   30.1652 H         1 UNK         0.0000 
     39 H39         6.0839   54.7073   29.4561 H         1 UNK         0.0000 
     40 H40         7.1888   54.6758   27.2806 H         1 UNK         0.0000 
     41 H41         2.3456   53.7748   27.6188 H         1 UNK         0.0000 
     42 H42         2.7043   55.6955   24.4813 H         1 UNK         0.0000 
     43 H43         4.0963   54.8966   23.7359 H         1 UNK         0.0000 
     44 H44         2.7065   54.8881   21.9447 H         1 UNK         0.0000 
     45 H45         1.3052   54.6900   22.9225 H         1 UNK         0.0000 
     46 H46         1.9215   51.2643   23.7852 H         1 UNK         0.0000 
     47 H47         0.4638   52.2776   23.7634 H         1 UNK         0.0000 
     48 H48         2.0051   52.1203   25.9621 H         1 UNK         0.0000 
     49 H49         1.2480   53.6007   25.4630 H         1 UNK         0.0000 
     50 H50         0.2768   51.3744   21.6461 H         1 UNK         0.0000 
     51 H51         0.1003   50.4883   19.4121 H         1 UNK         0.0000 
     52 H52         3.8751   52.2322   18.3851 H         1 UNK         0.0000 
     53 H53         2.7925   50.7233   16.9248 H         1 UNK         0.0000 
     54 H54        -0.9917   48.6083   18.5727 H         1 UNK         0.0000 
     55 H55         0.7170   44.7034   18.0787 H         1 UNK         0.0000 
     56 H56         2.1143   47.9721   15.6830 H         1 UNK         0.0000 
     57 H57         2.3681   44.2765   16.3886 H         1 UNK         0.0000 
     58 H58         2.3334   45.3748   15.0018 H         1 UNK         0.0000 
     59 H59         3.5044   45.6382   16.2870 H         1 UNK         0.0000 
     60 H60        -1.3590   45.0109   19.3879 H         1 UNK         0.0000 
     61 H61        -0.6614   46.1837   20.5237 H         1 UNK         0.0000 
     62 H62        -2.0842   46.5970   19.5533 H         1 UNK         0.0000 
     63 H63         5.7621   53.3267   24.2229 H         1 UNK         0.0000 
     64 H64         6.2014   55.0474   24.3362 H         1 UNK         0.0000 
     65 H65         7.2130   53.7871   25.0496 H         1 UNK         0.0000 
@<TRIPOS>BOND
     1    1    2 1    
     2    1   36 1    
     3    1   37 1    
     4    1   38 1    
     5    2    7 ar   
     6    2    3 ar   
     7    3    4 ar   
     8    3   39 1    
     9    4    5 ar   
    10    4   40 1    
    11    5    6 ar   
    12    5   35 1    
    13    6    7 ar   
    14    6    8 1    
    15    7   41 1    
    16    8   13 1    
    17    8    9 1    
    18    9   10 1    
    19    9   42 1    
    20    9   43 1    
    21   10   11 1    
    22   10   44 1    
    23   10   45 1    
    24   11   12 1    
    25   11   14 1    
    26   12   13 1    
    27   12   46 1    
    28   12   47 1    
    29   13   48 1    
    30   13   49 1    
    31   14   19 ar   
    32   14   15 ar   
    33   15   16 ar   
    34   15   50 1    
    35   16   17 ar   
    36   16   51 1    
    37   17   18 ar   
    38   17   23 1    
    39   18   19 ar   
    40   18   52 1    
    41   19   20 1    
    42   20   21 2    
    43   20   22 1    
    44   23   24 1    
    45   23   53 1    
    46   24   25 2    
    47   24   26 2    
    48   24   27 1    
    49   27   32 ar   
    50   27   28 ar   
    51   28   29 ar   
    52   28   54 1    
    53   29   30 ar   
    54   29   34 1    
    55   30   31 ar   
    56   30   55 1    
    57   31   32 ar   
    58   31   33 1    
    59   32   56 1    
    60   33   57 1    
    61   33   58 1    
    62   33   59 1    
    63   34   60 1    
    64   34   61 1    
    65   34   62 1    
    66   35   63 1    
    67   35   64 1    
    68   35   65 1    
@<TRIPOS>SUBSTRUCTURE
     1 UNK         1 GROUP             0       ****    0 ROOT    
