@<TRIPOS>MOLECULE
ZINC22635331_317
80   83    1
SMALL
USER_CHARGES


@<TRIPOS>ATOM
      1 C1          9.1131   56.8126   17.3163 C.3       1 UNK         0.0000 
      2 C2          8.1506   56.2705   18.3562 C.ar      1 UNK         0.0000 
      3 C3          8.5614   56.0964   19.6750 C.ar      1 UNK         0.0000 
      4 C4          7.6758   55.6217   20.6352 C.ar      1 UNK         0.0000 
      5 C5          6.3545   55.2961   20.2891 C.ar      1 UNK         0.0000 
      6 C6          5.9315   55.4871   18.9569 C.ar      1 UNK         0.0000 
      7 C7          6.8346   55.9726   18.0060 C.ar      1 UNK         0.0000 
      8 C8          4.5085   55.1976   18.4900 C.3       1 UNK         0.0000 
      9 N9          5.4270   54.7889   21.2210 N.am      1 UNK         0.0000 
     10 C10         5.6097   54.3130   22.4732 C.2       1 UNK         0.0000 
     11 O11         6.7037   54.1596   23.0138 O.2       1 UNK         0.0000 
     12 C12         4.3620   54.0587   23.1821 C.2       1 UNK         0.0000 
     13 C13         4.2149   54.0891   24.5991 C.2       1 UNK         0.0000 
     14 C14         2.8957   53.8217   25.0023 C.2       1 UNK         0.0000 
     15 S15         1.8294   53.5544   23.6791 S.3       1 UNK         0.0000 
     16 C16         3.1542   53.6436   22.5819 C.2       1 UNK         0.0000 
     17 N17         2.8573   53.2967   21.2818 N.am      1 UNK         0.0000 
     18 C18         3.2425   52.1379   20.7123 C.2       1 UNK         0.0000 
     19 O19         3.9679   51.2974   21.2508 O.2       1 UNK         0.0000 
     20 C20         2.6593   51.8933   19.3126 C.3       1 UNK         0.0000 
     21 N21         2.3045   50.3991   19.0812 N.4       1 UNK         0.0000 
     22 C22         1.1978   49.8923   20.0387 C.3       1 UNK         0.0000 
     23 C23         0.8814   48.4186   19.7147 C.3       1 UNK         0.0000 
     24 N24         0.4279   48.2590   18.3246 N.3       1 UNK         0.0000 
     25 C25         1.4324   48.7423   17.3632 C.3       1 UNK         0.0000 
     26 C26         1.8347   50.2153   17.6211 C.3       1 UNK         0.0000 
     27 C27         0.0277   46.8550   18.1225 C.3       1 UNK         0.0000 
     28 C28        -0.4113   46.4407   16.6995 C.3       1 UNK         0.0000 
     29 O29         0.6966   46.1627   15.8639 O.3       1 UNK         0.0000 
     30 C30         2.4247   53.6349   26.4328 C.3       1 UNK         0.0000 
     31 C31         3.4799   54.1795   27.4368 C.3       1 UNK         0.0000 
     32 H32         3.4089   55.2647   27.3380 H         1 UNK         0.0000 
     33 C33         4.8851   53.6961   26.9913 C.3       1 UNK         0.0000 
     34 C34         5.3155   54.3024   25.6421 C.3       1 UNK         0.0000 
     35 C35         3.0795   53.8431   28.9301 C.3       1 UNK         0.0000 
     36 C36         4.3045   53.9420   29.8591 C.3       1 UNK         0.0000 
     37 C37         2.5114   52.4112   29.1149 C.3       1 UNK         0.0000 
     38 C38         2.0181   54.8562   29.4280 C.3       1 UNK         0.0000 
     39 H39         9.9057   57.4018   17.7803 H         1 UNK         0.0000 
     40 H40         8.5947   57.4775   16.6221 H         1 UNK         0.0000 
     41 H41         9.5612   55.9966   16.7469 H         1 UNK         0.0000 
     42 H42         9.5671   56.3507   19.9671 H         1 UNK         0.0000 
     43 H43         8.0490   55.5242   21.6421 H         1 UNK         0.0000 
     44 H44         6.5124   56.1165   16.9850 H         1 UNK         0.0000 
     45 H45         3.7706   55.2959   19.2822 H         1 UNK         0.0000 
     46 H46         4.2087   55.9185   17.7271 H         1 UNK         0.0000 
     47 H47         4.4417   54.2018   18.0533 H         1 UNK         0.0000 
     48 H48         4.4733   54.7824   20.8957 H         1 UNK         0.0000 
     49 H49         2.1712   53.8752   20.8059 H         1 UNK         0.0000 
     50 H50         1.7548   52.4748   19.1149 H         1 UNK         0.0000 
     51 H51         3.4131   52.1248   18.5561 H         1 UNK         0.0000 
     52 H52         1.5953   49.9622   21.0529 H         1 UNK         0.0000 
     53 H53         0.3283   50.5442   19.9309 H         1 UNK         0.0000 
     54 H54         1.7891   47.8261   19.8512 H         1 UNK         0.0000 
     55 H55         0.1199   48.0602   20.4105 H         1 UNK         0.0000 
     56 H56         1.0668   48.6806   16.3384 H         1 UNK         0.0000 
     57 H57         2.3046   48.1046   17.4838 H         1 UNK         0.0000 
     58 H58         1.0049   50.9018   17.4457 H         1 UNK         0.0000 
     59 H59         2.6918   50.4977   17.0054 H         1 UNK         0.0000 
     60 H60         0.7265   46.1242   18.5339 H         1 UNK         0.0000 
     61 H61        -0.8681   46.7389   18.7355 H         1 UNK         0.0000 
     62 H62        -1.0146   45.5334   16.7555 H         1 UNK         0.0000 
     63 H63        -1.0481   47.2032   16.2481 H         1 UNK         0.0000 
     64 H64         1.1947   46.9716   15.7223 H         1 UNK         0.0000 
     65 H65         1.4539   54.0972   26.5937 H         1 UNK         0.0000 
     66 H66         2.2904   52.5612   26.5638 H         1 UNK         0.0000 
     67 H67         5.6473   54.0175   27.6998 H         1 UNK         0.0000 
     68 H68         4.9461   52.6073   27.0078 H         1 UNK         0.0000 
     69 H69         6.2533   53.8287   25.3572 H         1 UNK         0.0000 
     70 H70         5.5251   55.3679   25.7479 H         1 UNK         0.0000 
     71 H71         4.8156   54.9014   29.7756 H         1 UNK         0.0000 
     72 H72         4.0248   53.7965   30.8951 H         1 UNK         0.0000 
     73 H73         5.0259   53.1543   29.6404 H         1 UNK         0.0000 
     74 H74         1.5286   52.2950   28.6574 H         1 UNK         0.0000 
     75 H75         3.1721   51.6640   28.6763 H         1 UNK         0.0000 
     76 H76         2.3853   52.1558   30.1676 H         1 UNK         0.0000 
     77 H77         1.1211   54.8429   28.8078 H         1 UNK         0.0000 
     78 H78         1.7004   54.6444   30.4500 H         1 UNK         0.0000 
     79 H79         2.4018   55.8774   29.4188 H         1 UNK         0.0000 
     80 H80         3.1428   49.8423   19.2109 H         1 UNK         0.0000 
@<TRIPOS>BOND
     1    1    2 1    
     2    1   39 1    
     3    1   40 1    
     4    1   41 1    
     5    2    7 ar   
     6    2    3 ar   
     7    3    4 ar   
     8    3   42 1    
     9    4    5 ar   
    10    4   43 1    
    11    5    6 ar   
    12    5    9 1    
    13    6    7 ar   
    14    6    8 1    
    15    7   44 1    
    16    8   45 1    
    17    8   46 1    
    18    8   47 1    
    19    9   10 am   BACKBONE|DICT|INTERRES
    20    9   48 1    
    21   10   11 2    
    22   10   12 1    
    23   12   16 2    
    24   12   13 1    
    25   13   34 1    
    26   13   14 2    
    27   14   15 1    
    28   14   30 1    
    29   15   16 1    
    30   16   17 am   BACKBONE|DICT|INTERRES
    31   17   18 am   BACKBONE|DICT|INTERRES
    32   17   49 1    
    33   18   19 2    
    34   18   20 1    
    35   20   21 1    
    36   20   50 1    
    37   20   51 1    
    38   21   26 1    
    39   21   22 1    
    40   21   80 1    
    41   22   23 1    
    42   22   52 1    
    43   22   53 1    
    44   23   24 1    
    45   23   54 1    
    46   23   55 1    
    47   24   25 1    
    48   24   27 1    
    49   25   26 1    
    50   25   56 1    
    51   25   57 1    
    52   26   58 1    
    53   26   59 1    
    54   27   28 1    
    55   27   60 1    
    56   27   61 1    
    57   28   29 1    
    58   28   62 1    
    59   28   63 1    
    60   29   64 1    
    61   30   31 1    
    62   30   65 1    
    63   30   66 1    
    64   31   32 1    
    65   31   33 1    
    66   31   35 1    
    67   33   34 1    
    68   33   67 1    
    69   33   68 1    
    70   34   69 1    
    71   34   70 1    
    72   35   36 1    
    73   35   37 1    
    74   35   38 1    
    75   36   71 1    
    76   36   72 1    
    77   36   73 1    
    78   37   74 1    
    79   37   75 1    
    80   37   76 1    
    81   38   77 1    
    82   38   78 1    
    83   38   79 1    
@<TRIPOS>SUBSTRUCTURE
     1 UNK         1 GROUP             0       ****    0 ROOT    
