@<TRIPOS>MOLECULE
ZINC13073836_3375
68   71    1
SMALL
USER_CHARGES


@<TRIPOS>ATOM
      1 C1          5.2586   51.8560   14.5614 C.3       1 UNK         0.0000 
      2 C2          4.4001   52.6425   15.5658 C.3       1 UNK         0.0000 
      3 C3          4.8587   54.1052   15.8075 C.3       1 UNK         0.0000 
      4 C4          6.2958   54.2359   16.3785 C.3       1 UNK         0.0000 
      5 C5          6.3737   53.6850   17.8193 C.3       1 UNK         0.0000 
      6 C6          5.3882   54.4351   18.7662 C.3       1 UNK         0.0000 
      7 C7          3.9469   54.3440   18.1836 C.3       1 UNK         0.0000 
      8 C8          3.8854   54.8777   16.7337 C.3       1 UNK         0.0000 
      9 C9          5.4058   53.7756   20.1347 C.2       1 UNK         0.0000 
     10 O10         5.1045   52.6083   20.3981 O.2       1 UNK         0.0000 
     11 N11         5.8182   54.7360   20.9955 N.am      1 UNK         0.0000 
     12 C12         6.1100   55.9240   20.4026 C.2       1 UNK         0.0000 
     13 O13         6.7044   56.8903   20.8814 O.2       1 UNK         0.0000 
     14 N14         5.7931   55.7693   19.1129 N.am      1 UNK         0.0000 
     15 C15         5.8848   54.5345   22.4652 C.3       1 UNK         0.0000 
     16 C16         4.5021   54.3414   23.1290 C.2       1 UNK         0.0000 
     17 O17         3.4624   54.4592   22.4802 O.2       1 UNK         0.0000 
     18 N18         4.5481   54.0969   24.4540 N.am      1 UNK         0.0000 
     19 C19         3.4903   53.8027   25.3425 C.ar      1 UNK         0.0000 
     20 C20         2.2607   53.2755   24.9065 C.ar      1 UNK         0.0000 
     21 C21         1.2801   52.8967   25.8250 C.ar      1 UNK         0.0000 
     22 C22         1.5047   53.0715   27.1906 C.ar      1 UNK         0.0000 
     23 C23         2.7095   53.6125   27.6338 C.ar      1 UNK         0.0000 
     24 C24         3.7138   53.9615   26.7249 C.ar      1 UNK         0.0000 
     25 C25         5.0324   54.4965   27.2719 C.3       1 UNK         0.0000 
     26 S26        -0.2159   52.0969   25.2463 S.o2      1 UNK         0.0000 
     27 O27        -0.5202   52.6810   23.9340 O.2       1 UNK         0.0000 
     28 O28        -1.1802   52.1527   26.3517 O.2       1 UNK         0.0000 
     29 N29         0.3072   50.4171   25.0171 N.pl3     1 UNK         0.0000 
     30 C30         0.7495   49.9605   23.6804 C.3       1 UNK         0.0000 
     31 C31        -0.4112   49.2357   22.9662 C.3       1 UNK         0.0000 
     32 C32        -1.0302   48.1247   23.8533 C.3       1 UNK         0.0000 
     33 C33        -1.3705   48.6178   25.2814 C.3       1 UNK         0.0000 
     34 C34        -0.1755   49.3504   25.9222 C.3       1 UNK         0.0000 
     35 H35         4.8199   50.8764   14.3673 H         1 UNK         0.0000 
     36 H36         5.3356   52.3805   13.6088 H         1 UNK         0.0000 
     37 H37         6.2664   51.6858   14.9411 H         1 UNK         0.0000 
     38 H38         4.3669   52.0914   16.5054 H         1 UNK         0.0000 
     39 H39         3.3725   52.6502   15.2009 H         1 UNK         0.0000 
     40 H40         4.8502   54.6192   14.8444 H         1 UNK         0.0000 
     41 H41         6.6076   55.2820   16.3680 H         1 UNK         0.0000 
     42 H42         7.0106   53.7020   15.7516 H         1 UNK         0.0000 
     43 H43         7.3964   53.8279   18.1753 H         1 UNK         0.0000 
     44 H44         6.2384   52.6009   17.8586 H         1 UNK         0.0000 
     45 H45         3.5316   53.3389   18.2754 H         1 UNK         0.0000 
     46 H46         3.2753   54.9514   18.7911 H         1 UNK         0.0000 
     47 H47         4.1256   55.9422   16.7211 H         1 UNK         0.0000 
     48 H48         2.8639   54.7920   16.3600 H         1 UNK         0.0000 
     49 H49         5.5978   56.5461   18.4995 H         1 UNK         0.0000 
     50 H50         6.4051   55.3647   22.9479 H         1 UNK         0.0000 
     51 H51         6.4821   53.6458   22.6673 H         1 UNK         0.0000 
     52 H52         5.4551   54.1557   24.8897 H         1 UNK         0.0000 
     53 H53         2.0704   53.0943   23.8593 H         1 UNK         0.0000 
     54 H54         0.7579   52.7717   27.9108 H         1 UNK         0.0000 
     55 H55         2.8715   53.7289   28.6954 H         1 UNK         0.0000 
     56 H56         5.7957   53.7176   27.2530 H         1 UNK         0.0000 
     57 H57         5.3895   55.3339   26.6752 H         1 UNK         0.0000 
     58 H58         4.9296   54.8666   28.2925 H         1 UNK         0.0000 
     59 H59         1.6054   49.2974   23.8135 H         1 UNK         0.0000 
     60 H60         1.0925   50.8190   23.1017 H         1 UNK         0.0000 
     61 H61        -0.0626   48.8158   22.0219 H         1 UNK         0.0000 
     62 H62        -1.1811   49.9655   22.7052 H         1 UNK         0.0000 
     63 H63        -1.9226   47.7180   23.3757 H         1 UNK         0.0000 
     64 H64        -0.3245   47.2974   23.9333 H         1 UNK         0.0000 
     65 H65        -2.2313   49.2878   25.2520 H         1 UNK         0.0000 
     66 H66        -1.6650   47.7787   25.9141 H         1 UNK         0.0000 
     67 H67         0.6421   48.6501   26.1011 H         1 UNK         0.0000 
     68 H68        -0.4511   49.7829   26.8822 H         1 UNK         0.0000 
@<TRIPOS>BOND
     1    1    2 1    
     2    1   35 1    
     3    1   36 1    
     4    1   37 1    
     5    2    3 1    
     6    2   38 1    
     7    2   39 1    
     8    3    8 1    
     9    3    4 1    
    10    3   40 1    
    11    4    5 1    
    12    4   41 1    
    13    4   42 1    
    14    5    6 1    
    15    5   43 1    
    16    5   44 1    
    17    6   14 1    
    18    6    7 1    
    19    6    9 1    
    20    7    8 1    
    21    7   45 1    
    22    7   46 1    
    23    8   47 1    
    24    8   48 1    
    25    9   10 2    
    26    9   11 am   BACKBONE|DICT|INTERRES
    27   11   12 am   BACKBONE|DICT|INTERRES
    28   11   15 1    
    29   12   13 2    
    30   12   14 am   BACKBONE|DICT|INTERRES
    31   14   49 1    
    32   15   16 1    
    33   15   50 1    
    34   15   51 1    
    35   16   17 2    
    36   16   18 am   BACKBONE|DICT|INTERRES
    37   18   19 1    
    38   18   52 1    
    39   19   24 ar   
    40   19   20 ar   
    41   20   21 ar   
    42   20   53 1    
    43   21   22 ar   
    44   21   26 1    
    45   22   23 ar   
    46   22   54 1    
    47   23   24 ar   
    48   23   55 1    
    49   24   25 1    
    50   25   56 1    
    51   25   57 1    
    52   25   58 1    
    53   26   27 2    
    54   26   28 2    
    55   26   29 1    
    56   29   34 1    
    57   29   30 1    
    58   30   31 1    
    59   30   59 1    
    60   30   60 1    
    61   31   32 1    
    62   31   61 1    
    63   31   62 1    
    64   32   33 1    
    65   32   63 1    
    66   32   64 1    
    67   33   34 1    
    68   33   65 1    
    69   33   66 1    
    70   34   67 1    
    71   34   68 1    
@<TRIPOS>SUBSTRUCTURE
     1 UNK         1 GROUP             0       ****    0 ROOT    
