@<TRIPOS>MOLECULE
ZINC38547620_582
57   60    1
SMALL
USER_CHARGES


@<TRIPOS>ATOM
      1 C1          6.6320   54.8156   22.7827 C.3       1 UNK         0.0000 
      2 C2          5.5065   54.3018   21.9026 C.ar      1 UNK         0.0000 
      3 C3          5.5523   54.4685   20.5118 C.ar      1 UNK         0.0000 
      4 C4          4.5329   53.9304   19.7228 C.ar      1 UNK         0.0000 
      5 N5          3.5072   53.2970   20.3215 N.pl3     1 UNK         0.0000 
      6 C6          3.3966   53.1468   21.6584 C.ar      1 UNK         0.0000 
      7 C7          4.4187   53.6344   22.4749 C.ar      1 UNK         0.0000 
      8 N8          2.2561   52.5178   22.2298 N.pl3     1 UNK         0.0000 
      9 C9          1.0026   52.3060   21.4812 C.3       1 UNK         0.0000 
     10 H10         0.8163   53.2941   21.0574 H         1 UNK         0.0000 
     11 C11        -0.2051   52.0550   22.4036 C.ar      1 UNK         0.0000 
     12 C12        -1.2834   51.2628   21.9808 C.ar      1 UNK         0.0000 
     13 C13        -2.3943   51.0808   22.7995 C.ar      1 UNK         0.0000 
     14 C14        -2.4511   51.6886   24.0551 C.ar      1 UNK         0.0000 
     15 C15        -1.3814   52.4787   24.4852 C.ar      1 UNK         0.0000 
     16 C16        -0.2750   52.6667   23.6629 C.ar      1 UNK         0.0000 
     17 C17        -3.6802   51.4876   24.9402 C.3       1 UNK         0.0000 
     18 F18        -4.0880   50.2194   24.9036 F         1 UNK         0.0000 
     19 F19        -3.4430   51.8132   26.2135 F         1 UNK         0.0000 
     20 F20        -4.6639   52.2641   24.4895 F         1 UNK         0.0000 
     21 C21         1.1454   51.3062   20.3223 C.2       1 UNK         0.0000 
     22 C22         1.6610   49.9855   20.4316 C.2       1 UNK         0.0000 
     23 C23         1.6351   49.2767   19.2199 C.2       1 UNK         0.0000 
     24 S24         1.0703   50.2772   17.9226 S.3       1 UNK         0.0000 
     25 C25         0.7748   51.6012   19.0042 C.2       1 UNK         0.0000 
     26 N26         0.3052   52.8196   18.5272 N.am      1 UNK         0.0000 
     27 C27        -0.6874   52.9725   17.6214 C.2       1 UNK         0.0000 
     28 O28        -1.3561   52.0589   17.1358 O.2       1 UNK         0.0000 
     29 C29        -0.9512   54.3443   17.2824 C.2       1 UNK         0.0000 
     30 C30        -0.1308   55.4734   17.2510 C.2       1 UNK         0.0000 
     31 C31        -0.9112   56.5297   16.7859 C.2       1 UNK         0.0000 
     32 C32        -2.1551   55.9971   16.4933 C.2       1 UNK         0.0000 
     33 O33        -2.1739   54.6677   16.7768 O.3       1 UNK         0.0000 
     34 C34         2.0309   47.8450   18.9348 C.3       1 UNK         0.0000 
     35 C35         2.1448   49.3723   21.7338 C.3       1 UNK         0.0000 
     36 H36         7.5217   55.0612   22.2036 H         1 UNK         0.0000 
     37 H37         6.3150   55.6934   23.3463 H         1 UNK         0.0000 
     38 H38         6.9227   54.0485   23.5018 H         1 UNK         0.0000 
     39 H39         6.3837   54.9758   20.0455 H         1 UNK         0.0000 
     40 H40         4.5010   53.9841   18.6428 H         1 UNK         0.0000 
     41 H41         4.3629   53.5129   23.5482 H         1 UNK         0.0000 
     42 H42         2.2568   52.2930   23.2131 H         1 UNK         0.0000 
     43 H43        -1.2821   50.7899   21.0096 H         1 UNK         0.0000 
     44 H44        -3.2131   50.4693   22.4501 H         1 UNK         0.0000 
     45 H45        -1.4050   52.9523   25.4568 H         1 UNK         0.0000 
     46 H46         0.5234   53.3054   24.0135 H         1 UNK         0.0000 
     47 H47         0.6121   53.6561   19.0028 H         1 UNK         0.0000 
     48 H48         0.9073   55.5233   17.5493 H         1 UNK         0.0000 
     49 H49        -0.5964   57.5564   16.6525 H         1 UNK         0.0000 
     50 H50        -3.0672   56.4076   16.0886 H         1 UNK         0.0000 
     51 H51         3.1087   47.6994   19.0076 H         1 UNK         0.0000 
     52 H52         1.5594   47.1493   19.6268 H         1 UNK         0.0000 
     53 H53         1.7485   47.5321   17.9284 H         1 UNK         0.0000 
     54 H54         1.4098   49.4995   22.5322 H         1 UNK         0.0000 
     55 H55         2.3548   48.3053   21.6629 H         1 UNK         0.0000 
     56 H56         3.0528   49.8577   22.0952 H         1 UNK         0.0000 
     57 H57         2.7738   52.9164   19.7403 H         1 UNK         0.0000 
@<TRIPOS>BOND
     1    1    2 1    
     2    1   36 1    
     3    1   37 1    
     4    1   38 1    
     5    2    7 ar   
     6    2    3 ar   
     7    3    4 ar   
     8    3   39 1    
     9    4    5 ar   
    10    4   40 1    
    11    5    6 ar   
    12    5   57 1    
    13    6    7 ar   
    14    6    8 1    
    15    7   41 1    
    16    8    9 1    
    17    8   42 1    
    18    9   10 1    
    19    9   11 1    
    20    9   21 1    
    21   11   16 ar   
    22   11   12 ar   
    23   12   13 ar   
    24   12   43 1    
    25   13   14 ar   
    26   13   44 1    
    27   14   15 ar   
    28   14   17 1    
    29   15   16 ar   
    30   15   45 1    
    31   16   46 1    
    32   17   18 1    
    33   17   19 1    
    34   17   20 1    
    35   21   25 2    
    36   21   22 1    
    37   22   23 2    
    38   22   35 1    
    39   23   24 1    
    40   23   34 1    
    41   24   25 1    
    42   25   26 am   BACKBONE|DICT|INTERRES
    43   26   27 am   BACKBONE|DICT|INTERRES
    44   26   47 1    
    45   27   28 2    
    46   27   29 1    
    47   29   33 1    
    48   29   30 2    
    49   30   31 1    
    50   30   48 1    
    51   31   32 2    
    52   31   49 1    
    53   32   33 1    
    54   32   50 1    
    55   34   51 1    
    56   34   52 1    
    57   34   53 1    
    58   35   54 1    
    59   35   55 1    
    60   35   56 1    
@<TRIPOS>SUBSTRUCTURE
     1 UNK         1 GROUP             0       ****    0 ROOT    
