@<TRIPOS>MOLECULE
ZINC39637454_783
75   79    1
SMALL
USER_CHARGES


@<TRIPOS>ATOM
      1 C1          6.5636   57.4334   19.2824 C.3       1 UNK         0.0000 
      2 C2          5.8780   56.1279   18.8316 C.3       1 UNK         0.0000 
      3 H3          4.8015   56.2324   18.9848 H         1 UNK         0.0000 
      4 C4          6.0928   55.9208   17.3123 C.3       1 UNK         0.0000 
      5 C5          5.4638   54.6220   16.7900 C.3       1 UNK         0.0000 
      6 C6          6.0082   53.4200   17.5777 C.3       1 UNK         0.0000 
      7 C7          5.7414   53.5513   19.0925 C.3       1 UNK         0.0000 
      8 H8          6.3043   52.7227   19.5264 H         1 UNK         0.0000 
      9 C9          6.3326   54.8815   19.6598 C.3       1 UNK         0.0000 
     10 H10         7.4077   54.8218   19.4860 H         1 UNK         0.0000 
     11 C11         6.1005   55.0376   21.1811 C.3       1 UNK         0.0000 
     12 N12         4.3457   53.2982   19.4640 N.am      1 UNK         0.0000 
     13 C13         3.9120   52.4808   20.4429 C.2       1 UNK         0.0000 
     14 O14         4.6560   51.9382   21.2647 O.2       1 UNK         0.0000 
     15 C15         2.3809   52.3052   20.5037 C.3       1 UNK         0.0000 
     16 H16         1.9334   53.2172   20.1194 H         1 UNK         0.0000 
     17 C17         1.8887   52.0741   21.9386 C.3       1 UNK         0.0000 
     18 N18         0.6031   51.3849   21.7361 N.am      1 UNK         0.0000 
     19 C19         0.4052   51.0279   20.3213 C.3       1 UNK         0.0000 
     20 C20         1.8206   51.1102   19.7013 C.3       1 UNK         0.0000 
     21 C21         2.6112   49.7832   19.9247 C.3       1 UNK         0.0000 
     22 C22         1.9933   48.5806   19.1842 C.3       1 UNK         0.0000 
     23 N23         1.9044   48.9246   17.6822 N.4       1 UNK         0.0000 
     24 C24         1.1494   50.2380   17.3907 C.3       1 UNK         0.0000 
     25 C25         1.8556   51.3596   18.1710 C.3       1 UNK         0.0000 
     26 C26        -0.1955   50.8577   22.7048 C.2       1 UNK         0.0000 
     27 O27        -1.1418   50.1159   22.4274 O.2       1 UNK         0.0000 
     28 C28         0.0789   51.1501   24.1640 C.ar      1 UNK         0.0000 
     29 C29        -0.1409   50.1622   25.1370 C.ar      1 UNK         0.0000 
     30 C30         0.0924   50.4422   26.4855 C.ar      1 UNK         0.0000 
     31 C31         0.5599   51.7031   26.8453 C.ar      1 UNK         0.0000 
     32 N32         0.7393   52.6875   25.9190 N.ar      1 UNK         0.0000 
     33 C33         0.4774   52.4142   24.6183 C.ar      1 UNK         0.0000 
     34 O34         0.8390   51.9624   28.1774 O.3       1 UNK         0.0000 
     35 C35         1.3563   53.1704   28.5985 C.ar      1 UNK         0.0000 
     36 C36         2.5897   53.6350   28.1287 C.ar      1 UNK         0.0000 
     37 C37         3.0611   54.8839   28.5312 C.ar      1 UNK         0.0000 
     38 C38         2.3044   55.6530   29.4134 C.ar      1 UNK         0.0000 
     39 C39         1.1050   55.1676   29.9321 C.ar      1 UNK         0.0000 
     40 C40         0.6318   53.9223   29.5241 C.ar      1 UNK         0.0000 
     41 H41         7.6506   57.3560   19.2144 H         1 UNK         0.0000 
     42 H42         6.2533   58.2796   18.6660 H         1 UNK         0.0000 
     43 H43         6.3048   57.6840   20.3110 H         1 UNK         0.0000 
     44 H44         5.7098   56.7798   16.7599 H         1 UNK         0.0000 
     45 H45         7.1626   55.9074   17.1025 H         1 UNK         0.0000 
     46 H46         4.3777   54.6678   16.8753 H         1 UNK         0.0000 
     47 H47         5.6836   54.5029   15.7271 H         1 UNK         0.0000 
     48 H48         5.5630   52.4967   17.2030 H         1 UNK         0.0000 
     49 H49         7.0801   53.3210   17.3996 H         1 UNK         0.0000 
     50 H50         5.0630   55.2963   21.3961 H         1 UNK         0.0000 
     51 H51         6.7396   55.8064   21.6141 H         1 UNK         0.0000 
     52 H52         6.3045   54.1075   21.7136 H         1 UNK         0.0000 
     53 H53         3.6574   53.7348   18.8720 H         1 UNK         0.0000 
     54 H54         2.5425   51.3690   22.4566 H         1 UNK         0.0000 
     55 H55         1.8533   53.0224   22.4708 H         1 UNK         0.0000 
     56 H56        -0.1791   51.8223   19.8527 H         1 UNK         0.0000 
     57 H57        -0.0821   50.0731   20.1245 H         1 UNK         0.0000 
     58 H58         3.6505   49.8986   19.6281 H         1 UNK         0.0000 
     59 H59         2.6525   49.5444   20.9894 H         1 UNK         0.0000 
     60 H60         2.6304   47.6977   19.2520 H         1 UNK         0.0000 
     61 H61         0.9883   48.3196   19.5173 H         1 UNK         0.0000 
     62 H62         2.8606   49.0188   17.2954 H         1 UNK         0.0000 
     63 H63         1.2116   50.3848   16.3111 H         1 UNK         0.0000 
     64 H64         0.1055   50.0900   17.6778 H         1 UNK         0.0000 
     65 H65         1.3513   52.3002   17.9400 H         1 UNK         0.0000 
     66 H66         2.8821   51.4874   17.8182 H         1 UNK         0.0000 
     67 H67        -0.4866   49.1771   24.8626 H         1 UNK         0.0000 
     68 H68        -0.0945   49.6964   27.2456 H         1 UNK         0.0000 
     69 H69         0.5588   53.2624   23.9591 H         1 UNK         0.0000 
     70 H70         3.1610   53.0416   27.4292 H         1 UNK         0.0000 
     71 H71         4.0004   55.2544   28.1512 H         1 UNK         0.0000 
     72 H72         2.6623   56.6301   29.6994 H         1 UNK         0.0000 
     73 H73         0.5369   55.7629   30.6313 H         1 UNK         0.0000 
     74 H74        -0.3059   53.5453   29.9044 H         1 UNK         0.0000 
     75 H75         1.4842   48.1583   17.1733 H         1 UNK         0.0000 
@<TRIPOS>BOND
     1    1    2 1    
     2    1   41 1    
     3    1   42 1    
     4    1   43 1    
     5    2    3 1    
     6    2    9 1    
     7    2    4 1    
     8    4    5 1    
     9    4   44 1    
    10    4   45 1    
    11    5    6 1    
    12    5   46 1    
    13    5   47 1    
    14    6    7 1    
    15    6   48 1    
    16    6   49 1    
    17    7    8 1    
    18    7    9 1    
    19    7   12 1    
    20    9   10 1    
    21    9   11 1    
    22   11   50 1    
    23   11   51 1    
    24   11   52 1    
    25   12   13 am   BACKBONE|DICT|INTERRES
    26   12   53 1    
    27   13   14 2    
    28   13   15 1    
    29   15   16 1    
    30   15   20 1    
    31   15   17 1    
    32   17   18 1    
    33   17   54 1    
    34   17   55 1    
    35   18   19 1    
    36   18   26 am   BACKBONE|DICT|INTERRES
    37   19   20 1    
    38   19   56 1    
    39   19   57 1    
    40   20   25 1    
    41   20   21 1    
    42   21   22 1    
    43   21   58 1    
    44   21   59 1    
    45   22   23 1    
    46   22   60 1    
    47   22   61 1    
    48   23   24 1    
    49   23   62 1    
    50   23   75 1    
    51   24   25 1    
    52   24   63 1    
    53   24   64 1    
    54   25   65 1    
    55   25   66 1    
    56   26   27 2    
    57   26   28 1    
    58   28   33 ar   
    59   28   29 ar   
    60   29   30 ar   
    61   29   67 1    
    62   30   31 ar   
    63   30   68 1    
    64   31   32 ar   
    65   31   34 1    
    66   32   33 ar   
    67   33   69 1    
    68   34   35 1    
    69   35   40 ar   
    70   35   36 ar   
    71   36   37 ar   
    72   36   70 1    
    73   37   38 ar   
    74   37   71 1    
    75   38   39 ar   
    76   38   72 1    
    77   39   40 ar   
    78   39   73 1    
    79   40   74 1    
@<TRIPOS>SUBSTRUCTURE
     1 UNK         1 GROUP             0       ****    0 ROOT    
