@<TRIPOS>MOLECULE
ZINC59337003_1003
48   49    1
SMALL
USER_CHARGES


@<TRIPOS>ATOM
      1 C1          2.7994   58.4533   14.8627 C.3       1 UNK         0.0000 
      2 C2          3.3676   58.3121   16.2809 C.3       1 UNK         0.0000 
      3 C3          4.7680   57.6747   16.3082 C.3       1 UNK         0.0000 
      4 C4          5.3564   57.6281   17.7330 C.3       1 UNK         0.0000 
      5 C5          6.6980   56.8620   17.8572 C.3       1 UNK         0.0000 
      6 O6          6.5586   55.5366   17.3865 O.3       1 UNK         0.0000 
      7 C7          5.9774   54.5877   18.1845 C.2       1 UNK         0.0000 
      8 O8          5.6204   53.5689   17.5971 O.2       1 UNK         0.0000 
      9 C9          5.8643   54.8995   19.6199 C.2       1 UNK         0.0000 
     10 C10         5.1202   54.0628   20.3983 C.2       1 UNK         0.0000 
     11 C11         4.8290   54.0946   21.8520 C.ar      1 UNK         0.0000 
     12 C12         5.8204   54.1137   22.8413 C.ar      1 UNK         0.0000 
     13 C13         5.4829   54.1826   24.1989 C.ar      1 UNK         0.0000 
     14 C14         4.1262   54.2232   24.5809 C.ar      1 UNK         0.0000 
     15 C15         3.1393   54.1292   23.5936 C.ar      1 UNK         0.0000 
     16 C16         3.4921   54.0635   22.2485 C.ar      1 UNK         0.0000 
     17 I17         1.1056   54.0960   24.0815 I         1 UNK         0.0000 
     18 O18         3.7415   54.4110   25.8913 O.3       1 UNK         0.0000 
     19 C19         3.9039   53.2965   26.7699 C.3       1 UNK         0.0000 
     20 C20         3.6457   53.7250   28.2278 C.2       1 UNK         0.0000 
     21 O21         3.8265   52.8493   29.1049 O.co2     1 UNK         0.0000 
     22 O22         3.2749   54.8968   28.4690 O.co2     1 UNK         0.0000 
     23 O23         6.5047   54.1521   25.1195 O.3       1 UNK         0.0000 
     24 C24         6.6892   55.3348   25.8785 C.3       1 UNK         0.0000 
     25 C25         6.5548   56.0985   20.1300 C.2       1 UNK         0.0000 
     26 O26         6.7050   56.4811   21.2820 O.2       1 UNK         0.0000 
     27 O27         7.1266   56.9207   19.2015 O.3       1 UNK         0.0000 
     28 C28         7.8559   57.4488   17.0567 C.3       1 UNK         0.0000 
     29 H29         1.8122   58.9136   14.8875 H         1 UNK         0.0000 
     30 H30         3.4399   59.0788   14.2407 H         1 UNK         0.0000 
     31 H31         2.6996   57.4817   14.3783 H         1 UNK         0.0000 
     32 H32         2.6773   57.7200   16.8834 H         1 UNK         0.0000 
     33 H33         3.4071   59.2967   16.7483 H         1 UNK         0.0000 
     34 H34         5.4362   58.2425   15.6592 H         1 UNK         0.0000 
     35 H35         4.7098   56.6695   15.8897 H         1 UNK         0.0000 
     36 H36         4.6254   57.1847   18.4091 H         1 UNK         0.0000 
     37 H37         5.5299   58.6486   18.0835 H         1 UNK         0.0000 
     38 H38         4.6511   53.2118   19.9170 H         1 UNK         0.0000 
     39 H39         6.8637   54.0977   22.5614 H         1 UNK         0.0000 
     40 H40         2.7073   54.0103   21.5071 H         1 UNK         0.0000 
     41 H41         4.9122   52.8898   26.6955 H         1 UNK         0.0000 
     42 H42         3.1710   52.5322   26.5054 H         1 UNK         0.0000 
     43 H43         7.3904   55.1288   26.6861 H         1 UNK         0.0000 
     44 H44         7.1053   56.1256   25.2546 H         1 UNK         0.0000 
     45 H45         5.7716   55.6966   26.3407 H         1 UNK         0.0000 
     46 H46         8.7777   56.9025   17.2621 H         1 UNK         0.0000 
     47 H47         7.6486   57.3873   15.9880 H         1 UNK         0.0000 
     48 H48         8.0002   58.4956   17.3262 H         1 UNK         0.0000 
@<TRIPOS>BOND
     1    1    2 1    
     2    1   29 1    
     3    1   30 1    
     4    1   31 1    
     5    2    3 1    
     6    2   32 1    
     7    2   33 1    
     8    3    4 1    
     9    3   34 1    
    10    3   35 1    
    11    4    5 1    
    12    4   36 1    
    13    4   37 1    
    14    5   27 1    
    15    5    6 1    
    16    5   28 1    
    17    6    7 1    
    18    7    8 2    
    19    7    9 1    
    20    9   10 2    
    21    9   25 1    
    22   10   11 1    
    23   10   38 1    
    24   11   16 ar   
    25   11   12 ar   
    26   12   13 ar   
    27   12   39 1    
    28   13   14 ar   
    29   13   23 1    
    30   14   15 ar   
    31   14   18 1    
    32   15   16 ar   
    33   15   17 1    
    34   16   40 1    
    35   18   19 1    
    36   19   20 1    
    37   19   41 1    
    38   19   42 1    
    39   20   21 2    
    40   20   22 1    
    41   23   24 1    
    42   24   43 1    
    43   24   44 1    
    44   24   45 1    
    45   25   26 2    
    46   25   27 1    
    47   28   46 1    
    48   28   47 1    
    49   28   48 1    
@<TRIPOS>SUBSTRUCTURE
     1 UNK         1 GROUP             0       ****    0 ROOT    
