@<TRIPOS>MOLECULE
ZINC20799769_1430
49   51    1
SMALL
USER_CHARGES


@<TRIPOS>ATOM
      1 C1          3.5722   52.2806   21.7398 C.3       1 UNK         0.0000 
      2 C2          4.4603   53.1873   20.8987 C.ar      1 UNK         0.0000 
      3 C3          4.3431   53.1024   19.5103 C.ar      1 UNK         0.0000 
      4 C4          5.1114   53.9124   18.6804 C.ar      1 UNK         0.0000 
      5 C5          6.0112   54.8309   19.2177 C.ar      1 UNK         0.0000 
      6 C6          6.1379   54.9100   20.6119 C.ar      1 UNK         0.0000 
      7 C7          5.3742   54.0952   21.4702 C.ar      1 UNK         0.0000 
      8 N8          5.4913   54.1152   22.8812 N.am      1 UNK         0.0000 
      9 C9          6.2748   54.8816   23.6868 C.2       1 UNK         0.0000 
     10 O10         7.1038   55.6963   23.2893 O.2       1 UNK         0.0000 
     11 C11         6.0782   54.6817   25.1535 C.2       1 UNK         0.0000 
     12 O12         7.0018   54.8953   25.9452 O.2       1 UNK         0.0000 
     13 N13         4.8222   54.3197   25.5247 N.am      1 UNK         0.0000 
     14 C14         4.3758   53.9276   26.7994 C.ar      1 UNK         0.0000 
     15 C15         5.2241   53.3699   27.7612 C.ar      1 UNK         0.0000 
     16 C16         4.7041   52.9331   28.9727 C.ar      1 UNK         0.0000 
     17 C17         3.3393   53.0531   29.2561 C.ar      1 UNK         0.0000 
     18 C18         2.4984   53.6087   28.2926 C.ar      1 UNK         0.0000 
     19 C19         3.0097   54.0359   27.0677 C.ar      1 UNK         0.0000 
     20 O20         2.7598   52.6417   30.4434 O.3       1 UNK         0.0000 
     21 C21         3.5886   52.1211   31.4816 C.3       1 UNK         0.0000 
     22 N22         6.7778   55.6077   18.3224 N.pl3     1 UNK         0.0000 
     23 C23         7.3794   56.8669   18.7522 C.3       1 UNK         0.0000 
     24 C24         8.8284   56.5877   19.2205 C.3       1 UNK         0.0000 
     25 C25         9.3335   55.2842   18.5735 C.3       1 UNK         0.0000 
     26 S26         8.0210   54.8309   17.3213 S.o2      1 UNK         0.0000 
     27 O27         7.8606   53.3743   17.2577 O.2       1 UNK         0.0000 
     28 O28         8.3121   55.6201   16.1209 O.2       1 UNK         0.0000 
     29 H29         3.1680   52.8068   22.6045 H         1 UNK         0.0000 
     30 H30         2.7103   51.9277   21.1723 H         1 UNK         0.0000 
     31 H31         4.1382   51.4136   22.0805 H         1 UNK         0.0000 
     32 H32         3.6649   52.3925   19.0581 H         1 UNK         0.0000 
     33 H33         5.0107   53.8069   17.6102 H         1 UNK         0.0000 
     34 H34         6.8586   55.5994   21.0114 H         1 UNK         0.0000 
     35 H35         4.8955   53.4423   23.3362 H         1 UNK         0.0000 
     36 H36         4.1052   54.3383   24.8175 H         1 UNK         0.0000 
     37 H37         6.2784   53.2300   27.5762 H         1 UNK         0.0000 
     38 H38         5.3841   52.4944   29.6800 H         1 UNK         0.0000 
     39 H39         1.4403   53.6958   28.4943 H         1 UNK         0.0000 
     40 H40         2.3322   54.4424   26.3328 H         1 UNK         0.0000 
     41 H41         2.9621   51.7582   32.2971 H         1 UNK         0.0000 
     42 H42         4.2078   51.2960   31.1411 H         1 UNK         0.0000 
     43 H43         4.2479   52.8959   31.8823 H         1 UNK         0.0000 
     44 H44         6.8228   57.2759   19.5951 H         1 UNK         0.0000 
     45 H45         7.2964   57.6582   18.0044 H         1 UNK         0.0000 
     46 H46         9.4714   57.4364   18.9746 H         1 UNK         0.0000 
     47 H47         8.8788   56.4958   20.3074 H         1 UNK         0.0000 
     48 H48        10.2868   55.4082   18.0644 H         1 UNK         0.0000 
     49 H49         9.4251   54.4667   19.2823 H         1 UNK         0.0000 
@<TRIPOS>BOND
     1    1    2 1    
     2    1   29 1    
     3    1   30 1    
     4    1   31 1    
     5    2    7 ar   
     6    2    3 ar   
     7    3    4 ar   
     8    3   32 1    
     9    4    5 ar   
    10    4   33 1    
    11    5    6 ar   
    12    5   22 1    
    13    6    7 ar   
    14    6   34 1    
    15    7    8 1    
    16    8    9 am   BACKBONE|DICT|INTERRES
    17    8   35 1    
    18    9   10 2    
    19    9   11 1    
    20   11   12 2    
    21   11   13 am   BACKBONE|DICT|INTERRES
    22   13   14 1    
    23   13   36 1    
    24   14   19 ar   
    25   14   15 ar   
    26   15   16 ar   
    27   15   37 1    
    28   16   17 ar   
    29   16   38 1    
    30   17   18 ar   
    31   17   20 1    
    32   18   19 ar   
    33   18   39 1    
    34   19   40 1    
    35   20   21 1    
    36   21   41 1    
    37   21   42 1    
    38   21   43 1    
    39   22   26 1    
    40   22   23 1    
    41   23   24 1    
    42   23   44 1    
    43   23   45 1    
    44   24   25 1    
    45   24   46 1    
    46   24   47 1    
    47   25   26 1    
    48   25   48 1    
    49   25   49 1    
    50   26   27 2    
    51   26   28 2    
@<TRIPOS>SUBSTRUCTURE
     1 UNK         1 GROUP             0       ****    0 ROOT    
