@<TRIPOS>MOLECULE
ZINC25460073_23
52   56    1
SMALL
USER_CHARGES


@<TRIPOS>ATOM
      1 C1          6.9010   55.8147   20.2303 C.3       1 UNK         0.0000 
      2 C2          5.7964   55.6574   19.2105 C.2       1 UNK         0.0000 
      3 C3          4.7191   54.7766   19.0627 C.2       1 UNK         0.0000 
      4 C4          4.0578   55.1950   17.9004 C.2       1 UNK         0.0000 
      5 C5          4.7379   56.2930   17.4086 C.2       1 UNK         0.0000 
      6 O6          5.7927   56.5751   18.2086 O.3       1 UNK         0.0000 
      7 C7          4.3252   53.6867   19.9632 C.ar      1 UNK         0.0000 
      8 N8          4.6777   53.6423   21.2244 N.2       1 UNK         0.0000 
      9 N9          4.1250   52.4943   21.7686 N.2       1 UNK         0.0000 
     10 C10         3.4233   51.8999   20.8374 C.ar      1 UNK         0.0000 
     11 N11         3.5754   52.5690   19.6431 N.pl3     1 UNK         0.0000 
     12 N12         3.1044   52.1648   18.4057 N.3       1 UNK         0.0000 
     13 S13         2.4745   50.4179   21.0564 S.3       1 UNK         0.0000 
     14 C14         1.9494   50.5649   22.8033 C.3       1 UNK         0.0000 
     15 C15         0.5009   51.0584   23.0254 C.2       1 UNK         0.0000 
     16 O16        -0.3890   50.5121   22.3663 O.2       1 UNK         0.0000 
     17 N17         0.2341   52.0034   23.9840 N.am      1 UNK         0.0000 
     18 C18         1.2381   52.8409   24.5084 C.ar      1 UNK         0.0000 
     19 C19         1.9165   53.7478   23.6805 C.ar      1 UNK         0.0000 
     20 C20         2.9875   54.4962   24.1517 C.ar      1 UNK         0.0000 
     21 C21         3.3834   54.3806   25.4772 C.ar      1 UNK         0.0000 
     22 C22         2.6746   53.5437   26.3332 C.ar      1 UNK         0.0000 
     23 C23         1.5969   52.7675   25.8816 C.ar      1 UNK         0.0000 
     24 C24         0.8719   51.8996   26.9279 C.3       1 UNK         0.0000 
     25 C25        -0.2739   50.9495   26.5159 C.3       1 UNK         0.0000 
     26 C26        -1.3856   51.6197   25.7148 C.ar      1 UNK         0.0000 
     27 C27        -1.0801   52.1806   24.4581 C.ar      1 UNK         0.0000 
     28 C28        -2.0808   52.8624   23.7537 C.ar      1 UNK         0.0000 
     29 C29        -3.3661   52.9831   24.2758 C.ar      1 UNK         0.0000 
     30 C30        -3.6684   52.4210   25.5126 C.ar      1 UNK         0.0000 
     31 C31        -2.6820   51.7447   26.2267 C.ar      1 UNK         0.0000 
     32 H32         7.0731   54.8975   20.7924 H         1 UNK         0.0000 
     33 H33         7.8497   56.0789   19.7618 H         1 UNK         0.0000 
     34 H34         6.6610   56.5937   20.9531 H         1 UNK         0.0000 
     35 H35         3.1667   54.7554   17.4778 H         1 UNK         0.0000 
     36 H36         4.5942   56.9439   16.5583 H         1 UNK         0.0000 
     37 H37         3.6476   51.3671   18.0804 H         1 UNK         0.0000 
     38 H38         2.1160   51.9650   18.4297 H         1 UNK         0.0000 
     39 H39         2.6885   51.1121   23.3751 H         1 UNK         0.0000 
     40 H40         1.9765   49.5534   23.2096 H         1 UNK         0.0000 
     41 H41         1.6443   53.8361   22.6376 H         1 UNK         0.0000 
     42 H42         3.5140   55.1534   23.4771 H         1 UNK         0.0000 
     43 H43         4.2191   54.9570   25.8459 H         1 UNK         0.0000 
     44 H44         2.9745   53.4899   27.3696 H         1 UNK         0.0000 
     45 H45         0.4632   52.5898   27.6673 H         1 UNK         0.0000 
     46 H46         1.6226   51.3076   27.4530 H         1 UNK         0.0000 
     47 H47        -0.7002   50.5054   27.4179 H         1 UNK         0.0000 
     48 H48         0.1089   50.0969   25.9525 H         1 UNK         0.0000 
     49 H49        -1.8575   53.2957   22.7926 H         1 UNK         0.0000 
     50 H50        -4.1273   53.5102   23.7210 H         1 UNK         0.0000 
     51 H51        -4.6647   52.5093   25.9198 H         1 UNK         0.0000 
     52 H52        -2.9217   51.3192   27.1913 H         1 UNK         0.0000 
@<TRIPOS>BOND
     1    1    2 1    
     2    1   32 1    
     3    1   33 1    
     4    1   34 1    
     5    2    6 1    
     6    2    3 2    
     7    3    4 1    
     8    3    7 1    
     9    4    5 2    
    10    4   35 1    
    11    5    6 1    
    12    5   36 1    
    13    7   11 ar   
    14    7    8 ar   
    15    8    9 ar   
    16    9   10 ar   
    17   10   11 ar   
    18   10   13 1    
    19   11   12 1    
    20   12   37 1    
    21   12   38 1    
    22   13   14 1    
    23   14   15 1    
    24   14   39 1    
    25   14   40 1    
    26   15   16 2    
    27   15   17 am   BACKBONE|DICT|INTERRES
    28   17   27 1    
    29   17   18 1    
    30   18   23 ar   
    31   18   19 ar   
    32   19   20 ar   
    33   19   41 1    
    34   20   21 ar   
    35   20   42 1    
    36   21   22 ar   
    37   21   43 1    
    38   22   23 ar   
    39   22   44 1    
    40   23   24 1    
    41   24   25 1    
    42   24   45 1    
    43   24   46 1    
    44   25   26 1    
    45   25   47 1    
    46   25   48 1    
    47   26   31 ar   
    48   26   27 ar   
    49   27   28 ar   
    50   28   29 ar   
    51   28   49 1    
    52   29   30 ar   
    53   29   50 1    
    54   30   31 ar   
    55   30   51 1    
    56   31   52 1    
@<TRIPOS>SUBSTRUCTURE
     1 UNK         1 GROUP             0       ****    0 ROOT    
