@<TRIPOS>MOLECULE
ZINC32534144_1672
35   37    1
SMALL
USER_CHARGES


@<TRIPOS>ATOM
      1 C1          1.5044   55.6767   30.2935 C.3       1 UNK         0.0000 
      2 C2          0.8464   54.3161   30.2142 C.ar      1 UNK         0.0000 
      3 C3          0.7045   53.4880   29.0881 C.ar      1 UNK         0.0000 
      4 C4         -0.0094   52.4101   29.5513 C.ar      1 UNK         0.0000 
      5 N5         -0.2032   52.5950   30.8817 N.pl3     1 UNK         0.0000 
      6 H6         -0.7385   51.9933   31.5071 H         1 UNK         0.0000 
      7 N7          0.3044   53.7671   31.2880 N.2       1 UNK         0.0000 
      8 O8         -0.5240   51.3613   28.8358 O.3       1 UNK         0.0000 
      9 C9         -0.3678   51.5027   27.4859 C.2       1 UNK         0.0000 
     10 C10         0.3473   52.4688   26.8522 C.2       1 UNK         0.0000 
     11 C11         1.1059   53.5754   27.6229 C.3       1 UNK         0.0000 
     12 H12         0.7701   54.5517   27.2986 H         1 UNK         0.0000 
     13 C13         2.6007   53.6833   27.3237 C.ar      1 UNK         0.0000 
     14 C14         3.5799   53.4436   28.2954 C.ar      1 UNK         0.0000 
     15 C15         4.9223   53.6590   27.9972 C.ar      1 UNK         0.0000 
     16 C16         5.2992   54.0967   26.7290 C.ar      1 UNK         0.0000 
     17 C17         4.3203   54.3030   25.7487 C.ar      1 UNK         0.0000 
     18 C18         2.9864   54.0967   26.0475 C.ar      1 UNK         0.0000 
     19 O19         6.6413   54.3089   26.5156 O.3       1 UNK         0.0000 
     20 C20         7.0434   54.7463   25.2290 C.3       1 UNK         0.0000 
     21 C21         0.3597   52.4966   25.4238 C.1       1 UNK         0.0000 
     22 N22         0.3387   52.5368   24.2674 N.1       1 UNK         0.0000 
     23 N23        -1.0690   50.4967   26.8817 N.pl3     1 UNK         0.0000 
     24 H24         1.1043   56.3598   29.5447 H         1 UNK         0.0000 
     25 H25         1.3761   56.1599   31.2636 H         1 UNK         0.0000 
     26 H26         2.5745   55.6101   30.0994 H         1 UNK         0.0000 
     27 H27         3.3109   53.1117   29.2866 H         1 UNK         0.0000 
     28 H28         5.6770   53.4917   28.7515 H         1 UNK         0.0000 
     29 H29         4.5663   54.6337   24.7518 H         1 UNK         0.0000 
     30 H30         2.2511   54.2931   25.2817 H         1 UNK         0.0000 
     31 H31         8.1042   54.8967   25.2780 H         1 UNK         0.0000 
     32 H32         6.5924   55.7006   24.9512 H         1 UNK         0.0000 
     33 H33         6.8437   53.9998   24.4583 H         1 UNK         0.0000 
     34 H34        -1.0831   50.4106   25.8773 H         1 UNK         0.0000 
     35 H35        -1.2956   49.6493   27.4175 H         1 UNK         0.0000 
@<TRIPOS>BOND
     1    1    2 1    
     2    1   24 1    
     3    1   25 1    
     4    1   26 1    
     5    2    7 ar   
     6    2    3 ar   
     7    3   11 1    
     8    3    4 ar   
     9    4    5 ar   
    10    4    8 1    
    11    5    6 1    
    12    5    7 ar   
    13    8    9 1    
    14    9   10 2    
    15    9   23 1    
    16   10   11 1    
    17   10   21 1    
    18   11   12 1    
    19   11   13 1    
    20   13   18 ar   
    21   13   14 ar   
    22   14   15 ar   
    23   14   27 1    
    24   15   16 ar   
    25   15   28 1    
    26   16   17 ar   
    27   16   19 1    
    28   17   18 ar   
    29   17   29 1    
    30   18   30 1    
    31   19   20 1    
    32   20   31 1    
    33   20   32 1    
    34   20   33 1    
    35   21   22 3    
    36   23   34 1    
    37   23   35 1    
@<TRIPOS>SUBSTRUCTURE
     1 UNK         1 GROUP             0       ****    0 ROOT    
