@<TRIPOS>MOLECULE
ZINC00869707_5021
63   67    1
SMALL
USER_CHARGES


@<TRIPOS>ATOM
      1 C1          6.7156   54.6964   23.3525 C.3       1 UNK         0.0000 
      2 O2          7.1038   54.1998   24.6284 O.3       1 UNK         0.0000 
      3 C3          6.2099   54.2683   25.6773 C.ar      1 UNK         0.0000 
      4 C4          6.6196   53.7058   26.8835 C.ar      1 UNK         0.0000 
      5 C5          5.7720   53.6915   27.9829 C.ar      1 UNK         0.0000 
      6 C6          4.4965   54.2450   27.8973 C.ar      1 UNK         0.0000 
      7 C7          4.0900   54.8375   26.6986 C.ar      1 UNK         0.0000 
      8 C8          4.9371   54.8473   25.5944 C.ar      1 UNK         0.0000 
      9 N9          3.6797   54.1557   29.0348 N.pl3     1 UNK         0.0000 
     10 S10         1.9541   54.5641   29.0952 S.o2      1 UNK         0.0000 
     11 O11         1.7602   55.8770   28.4797 O.2       1 UNK         0.0000 
     12 O12         1.5470   54.3567   30.4817 O.2       1 UNK         0.0000 
     13 C13         1.1165   53.2984   28.1446 C.ar      1 UNK         0.0000 
     14 C14         0.4470   52.2885   28.8289 C.ar      1 UNK         0.0000 
     15 C15        -0.2003   51.2958   28.1159 C.ar      1 UNK         0.0000 
     16 C16        -0.1605   51.2606   26.7255 C.ar      1 UNK         0.0000 
     17 C17         0.4385   52.3105   26.0090 C.ar      1 UNK         0.0000 
     18 C18         1.1046   53.2966   26.7470 C.ar      1 UNK         0.0000 
     19 C19         0.3202   52.4069   24.4845 C.3       1 UNK         0.0000 
     20 H20        -0.2759   53.2959   24.2704 H         1 UNK         0.0000 
     21 C21         1.6494   52.4564   23.7526 C.2       1 UNK         0.0000 
     22 C22         1.9041   51.3002   23.1140 C.2       1 UNK         0.0000 
     23 C23         0.7913   50.2997   23.3217 C.3       1 UNK         0.0000 
     24 C24        -0.3500   51.1760   23.8529 C.3       1 UNK         0.0000 
     25 H25        -0.8945   51.5262   22.9730 H         1 UNK         0.0000 
     26 C26        -1.4027   50.4807   24.7589 C.3       1 UNK         0.0000 
     27 H27        -2.2142   51.1882   24.9362 H         1 UNK         0.0000 
     28 N28        -0.8399   50.2152   26.0818 N.pl3     1 UNK         0.0000 
     29 C29        -2.0438   49.2733   24.0675 C.ar      1 UNK         0.0000 
     30 C30        -1.5375   47.9817   24.2732 C.ar      1 UNK         0.0000 
     31 C31        -2.0976   46.8895   23.6160 C.ar      1 UNK         0.0000 
     32 C32        -3.1653   47.0750   22.7412 C.ar      1 UNK         0.0000 
     33 C33        -3.6782   48.3530   22.5189 C.ar      1 UNK         0.0000 
     34 C34        -3.1310   49.4567   23.1977 C.ar      1 UNK         0.0000 
     35 O35        -3.6387   50.7217   23.0064 O.3       1 UNK         0.0000 
     36 C36        -4.8813   50.9533   23.6588 C.3       1 UNK         0.0000 
     37 O37        -4.7320   48.4885   21.6483 O.3       1 UNK         0.0000 
     38 C38        -4.3942   49.0829   20.3994 C.3       1 UNK         0.0000 
     39 H39         7.5047   54.4978   22.6287 H         1 UNK         0.0000 
     40 H40         5.8092   54.2108   22.9884 H         1 UNK         0.0000 
     41 H41         6.5620   55.7750   23.3812 H         1 UNK         0.0000 
     42 H42         7.5874   53.2402   26.9627 H         1 UNK         0.0000 
     43 H43         6.1138   53.2277   28.8929 H         1 UNK         0.0000 
     44 H44         3.1210   55.2977   26.6061 H         1 UNK         0.0000 
     45 H45         4.5820   55.2967   24.6819 H         1 UNK         0.0000 
     46 H46         4.0078   53.5590   29.7777 H         1 UNK         0.0000 
     47 H47         0.4133   52.2593   29.9090 H         1 UNK         0.0000 
     48 H48        -0.7181   50.5162   28.6538 H         1 UNK         0.0000 
     49 H49         1.5553   54.0970   26.1936 H         1 UNK         0.0000 
     50 H50         2.2913   53.3237   23.7772 H         1 UNK         0.0000 
     51 H51         2.7795   51.0681   22.5257 H         1 UNK         0.0000 
     52 H52         1.0849   49.5179   24.0250 H         1 UNK         0.0000 
     53 H53         0.5075   49.8071   22.3907 H         1 UNK         0.0000 
     54 H54        -1.3201   49.5148   26.6404 H         1 UNK         0.0000 
     55 H55        -0.7037   47.8221   24.9444 H         1 UNK         0.0000 
     56 H56        -1.6957   45.9023   23.7783 H         1 UNK         0.0000 
     57 H57        -3.5946   46.2302   22.2244 H         1 UNK         0.0000 
     58 H58        -5.0862   52.0252   23.6812 H         1 UNK         0.0000 
     59 H59        -5.7016   50.4688   23.1242 H         1 UNK         0.0000 
     60 H60        -4.8811   50.5981   24.6926 H         1 UNK         0.0000 
     61 H61        -5.2720   49.0860   19.7548 H         1 UNK         0.0000 
     62 H62        -4.0664   50.1169   20.5146 H         1 UNK         0.0000 
     63 H63        -3.6103   48.5205   19.8866 H         1 UNK         0.0000 
@<TRIPOS>BOND
     1    1    2 1    
     2    1   39 1    
     3    1   40 1    
     4    1   41 1    
     5    2    3 1    
     6    3    8 ar   
     7    3    4 ar   
     8    4    5 ar   
     9    4   42 1    
    10    5    6 ar   
    11    5   43 1    
    12    6    7 ar   
    13    6    9 1    
    14    7    8 ar   
    15    7   44 1    
    16    8   45 1    
    17    9   10 1    
    18    9   46 1    
    19   10   11 2    
    20   10   12 2    
    21   10   13 1    
    22   13   18 ar   
    23   13   14 ar   
    24   14   15 ar   
    25   14   47 1    
    26   15   16 ar   
    27   15   48 1    
    28   16   28 1    
    29   16   17 ar   
    30   17   18 ar   
    31   17   19 1    
    32   18   49 1    
    33   19   20 1    
    34   19   24 1    
    35   19   21 1    
    36   21   22 2    
    37   21   50 1    
    38   22   23 1    
    39   22   51 1    
    40   23   24 1    
    41   23   52 1    
    42   23   53 1    
    43   24   25 1    
    44   24   26 1    
    45   26   27 1    
    46   26   28 1    
    47   26   29 1    
    48   28   54 1    
    49   29   34 ar   
    50   29   30 ar   
    51   30   31 ar   
    52   30   55 1    
    53   31   32 ar   
    54   31   56 1    
    55   32   33 ar   
    56   32   57 1    
    57   33   34 ar   
    58   33   37 1    
    59   34   35 1    
    60   35   36 1    
    61   36   58 1    
    62   36   59 1    
    63   36   60 1    
    64   37   38 1    
    65   38   61 1    
    66   38   62 1    
    67   38   63 1    
@<TRIPOS>SUBSTRUCTURE
     1 UNK         1 GROUP             0       ****    0 ROOT    
