@<TRIPOS>MOLECULE
ZINC17122330_2059
60   63    1
SMALL
USER_CHARGES


@<TRIPOS>ATOM
      1 C1          1.2837   52.9850   27.9247 C.3       1 UNK         0.0000 
      2 C2          2.6522   53.4818   27.4716 C.ar      1 UNK         0.0000 
      3 C3          3.6163   53.7109   28.4587 C.ar      1 UNK         0.0000 
      4 C4          4.8987   54.1458   28.1477 C.ar      1 UNK         0.0000 
      5 C5          5.2009   54.3607   26.8019 C.ar      1 UNK         0.0000 
      6 C6          4.2403   54.1444   25.7774 C.ar      1 UNK         0.0000 
      7 C7          2.9414   53.6949   26.1039 C.ar      1 UNK         0.0000 
      8 C8          1.8876   53.4038   25.0374 C.3       1 UNK         0.0000 
      9 N9          4.6987   54.4087   24.5176 N.2       1 UNK         0.0000 
     10 C10         5.9470   54.7992   24.5259 C.2       1 UNK         0.0000 
     11 S11         6.7044   54.8956   26.0882 S.3       1 UNK         0.0000 
     12 N12         6.7031   55.1638   23.4275 N.pl3     1 UNK         0.0000 
     13 N13         6.1619   54.8965   22.1518 N.am      1 UNK         0.0000 
     14 C14         6.6446   55.5037   21.0501 C.2       1 UNK         0.0000 
     15 O15         7.7243   56.0956   21.0221 O.2       1 UNK         0.0000 
     16 C16         5.7696   55.4547   19.8167 C.ar      1 UNK         0.0000 
     17 C17         4.8122   54.4440   19.6288 C.ar      1 UNK         0.0000 
     18 C18         4.0206   54.4217   18.4818 C.ar      1 UNK         0.0000 
     19 C19         4.1833   55.4019   17.5022 C.ar      1 UNK         0.0000 
     20 C20         5.1248   56.4156   17.6794 C.ar      1 UNK         0.0000 
     21 C21         5.9120   56.4410   18.8277 C.ar      1 UNK         0.0000 
     22 S22         3.2575   55.3124   15.9652 S.o2      1 UNK         0.0000 
     23 O23         4.2038   55.6811   14.9079 O.2       1 UNK         0.0000 
     24 O24         2.5770   54.0112   15.9473 O.2       1 UNK         0.0000 
     25 N25         2.0185   56.5760   16.0453 N.pl3     1 UNK         0.0000 
     26 C26         0.7165   56.3412   16.7098 C.3       1 UNK         0.0000 
     27 C27        -0.4028   56.9597   15.8375 C.3       1 UNK         0.0000 
     28 H28        -0.3882   56.4370   14.8793 H         1 UNK         0.0000 
     29 C29        -0.0959   58.4560   15.5491 C.3       1 UNK         0.0000 
     30 C30         1.3364   58.6992   14.9964 C.3       1 UNK         0.0000 
     31 H31         1.3939   58.2221   14.0152 H         1 UNK         0.0000 
     32 C32         2.3860   58.0004   15.8923 C.3       1 UNK         0.0000 
     33 C33         1.6488   60.1953   14.8351 C.3       1 UNK         0.0000 
     34 C34        -1.7882   56.7690   16.4779 C.3       1 UNK         0.0000 
     35 H35         1.2415   52.8011   28.9994 H         1 UNK         0.0000 
     36 H36         0.5061   53.7085   27.6790 H         1 UNK         0.0000 
     37 H37         1.0345   52.0444   27.4305 H         1 UNK         0.0000 
     38 H38         3.3689   53.5391   29.4971 H         1 UNK         0.0000 
     39 H39         5.6362   54.3162   28.9213 H         1 UNK         0.0000 
     40 H40         2.3202   53.3658   24.0379 H         1 UNK         0.0000 
     41 H41         1.1076   54.1616   25.0451 H         1 UNK         0.0000 
     42 H42         1.4170   52.4352   25.2080 H         1 UNK         0.0000 
     43 H43         7.6820   54.8957   23.4283 H         1 UNK         0.0000 
     44 H44         5.2560   54.4529   22.1941 H         1 UNK         0.0000 
     45 H45         4.6743   53.6544   20.3573 H         1 UNK         0.0000 
     46 H46         3.3022   53.6225   18.3480 H         1 UNK         0.0000 
     47 H47         5.2676   57.1704   16.9194 H         1 UNK         0.0000 
     48 H48         6.6398   57.2324   18.9366 H         1 UNK         0.0000 
     49 H49         0.5696   55.2746   16.8802 H         1 UNK         0.0000 
     50 H50         0.7343   56.8379   17.6800 H         1 UNK         0.0000 
     51 H51        -0.8510   58.9055   14.9038 H         1 UNK         0.0000 
     52 H52        -0.1993   59.0067   16.4815 H         1 UNK         0.0000 
     53 H53         2.3819   58.4557   16.8817 H         1 UNK         0.0000 
     54 H54         3.3972   58.0845   15.4906 H         1 UNK         0.0000 
     55 H55         1.6095   60.7151   15.7946 H         1 UNK         0.0000 
     56 H56         2.6471   60.3517   14.4249 H         1 UNK         0.0000 
     57 H57         0.9385   60.6792   14.1652 H         1 UNK         0.0000 
     58 H58        -1.8471   57.2642   17.4492 H         1 UNK         0.0000 
     59 H59        -2.5749   57.1837   15.8450 H         1 UNK         0.0000 
     60 H60        -2.0113   55.7133   16.6260 H         1 UNK         0.0000 
@<TRIPOS>BOND
     1    1    2 1    
     2    1   35 1    
     3    1   36 1    
     4    1   37 1    
     5    2    7 ar   
     6    2    3 ar   
     7    3    4 ar   
     8    3   38 1    
     9    4    5 ar   
    10    4   39 1    
    11    5   11 1    
    12    5    6 ar   
    13    6    7 ar   
    14    6    9 1    
    15    7    8 1    
    16    8   40 1    
    17    8   41 1    
    18    8   42 1    
    19    9   10 2    
    20   10   11 1    
    21   10   12 1    
    22   12   13 1    
    23   12   43 1    
    24   13   14 am   BACKBONE|DICT|INTERRES
    25   13   44 1    
    26   14   15 2    
    27   14   16 1    
    28   16   21 ar   
    29   16   17 ar   
    30   17   18 ar   
    31   17   45 1    
    32   18   19 ar   
    33   18   46 1    
    34   19   20 ar   
    35   19   22 1    
    36   20   21 ar   
    37   20   47 1    
    38   21   48 1    
    39   22   23 2    
    40   22   24 2    
    41   22   25 1    
    42   25   32 1    
    43   25   26 1    
    44   26   27 1    
    45   26   49 1    
    46   26   50 1    
    47   27   28 1    
    48   27   29 1    
    49   27   34 1    
    50   29   30 1    
    51   29   51 1    
    52   29   52 1    
    53   30   31 1    
    54   30   32 1    
    55   30   33 1    
    56   32   53 1    
    57   32   54 1    
    58   33   55 1    
    59   33   56 1    
    60   33   57 1    
    61   34   58 1    
    62   34   59 1    
    63   34   60 1    
@<TRIPOS>SUBSTRUCTURE
     1 UNK         1 GROUP             0       ****    0 ROOT    
