@<TRIPOS>MOLECULE
ZINC34906388_4496
72   77    1
SMALL
USER_CHARGES


@<TRIPOS>ATOM
      1 C1          0.5163   51.6911   28.4599 C.ar      1 UNK         0.0000 
      2 C2         -0.4269   52.3956   29.2026 C.ar      1 UNK         0.0000 
      3 C3         -0.0955   53.6378   29.7395 C.ar      1 UNK         0.0000 
      4 C4          1.1791   54.1682   29.5529 C.ar      1 UNK         0.0000 
      5 C5          2.1459   53.4517   28.8398 C.ar      1 UNK         0.0000 
      6 C6          1.7951   52.2122   28.2795 C.ar      1 UNK         0.0000 
      7 O7          3.3921   54.0306   28.7316 O.3       1 UNK         0.0000 
      8 C8          4.5331   53.2387   28.4250 C.3       1 UNK         0.0000 
      9 C9          5.2127   53.8024   27.2086 C.2       1 UNK         0.0000 
     10 N10         4.6910   53.7946   26.0053 N.2       1 UNK         0.0000 
     11 C11         5.5031   54.3008   25.0830 C.2       1 UNK         0.0000 
     12 C12         6.7044   54.7916   25.5787 C.2       1 UNK         0.0000 
     13 S13         6.7881   54.4970   27.2803 S.3       1 UNK         0.0000 
     14 C14         5.1573   54.3409   23.6772 C.2       1 UNK         0.0000 
     15 O15         5.9037   54.8959   22.8621 O.2       1 UNK         0.0000 
     16 N16         3.9980   53.7464   23.3445 N.am      1 UNK         0.0000 
     17 C17         3.3892   53.6970   22.0183 C.3       1 UNK         0.0000 
     18 H18         3.2782   54.7454   21.7241 H         1 UNK         0.0000 
     19 C19         1.9698   53.0775   22.0819 C.3       1 UNK         0.0000 
     20 C20         1.9890   51.5533   22.3122 C.3       1 UNK         0.0000 
     21 C21         2.8900   50.8377   21.2862 C.3       1 UNK         0.0000 
     22 C22         4.2939   51.4768   21.1831 C.3       1 UNK         0.0000 
     23 C23         4.2558   52.9936   20.9219 C.3       1 UNK         0.0000 
     24 H24         5.2829   53.3553   20.9933 H         1 UNK         0.0000 
     25 N25         3.7678   53.2968   19.5761 N.am      1 UNK         0.0000 
     26 C26         4.4227   54.0200   18.6582 C.2       1 UNK         0.0000 
     27 O27         5.6397   54.2068   18.6650 O.2       1 UNK         0.0000 
     28 N28         3.5712   54.5951   17.7949 N.am      1 UNK         0.0000 
     29 C29         3.8509   55.6797   16.8455 C.3       1 UNK         0.0000 
     30 C30         2.5000   56.1669   16.2277 C.3       1 UNK         0.0000 
     31 C31         2.7216   57.3080   15.2032 C.3       1 UNK         0.0000 
     32 C32         3.3969   58.5027   15.9144 C.3       1 UNK         0.0000 
     33 C33         4.7614   58.0624   16.4963 C.3       1 UNK         0.0000 
     34 C34         4.5324   56.9226   17.5167 C.3       1 UNK         0.0000 
     35 C35         5.6750   57.5478   15.3554 C.3       1 UNK         0.0000 
     36 C36         4.9985   56.3499   14.6426 C.3       1 UNK         0.0000 
     37 C37         3.6353   56.8006   14.0575 C.3       1 UNK         0.0000 
     38 C38         4.7630   55.2068   15.6663 C.3       1 UNK         0.0000 
     39 F39         1.4721   55.3802   30.0840 F         1 UNK         0.0000 
     40 H40         0.2465   50.7337   28.0296 H         1 UNK         0.0000 
     41 H41        -1.4157   51.9797   29.3536 H         1 UNK         0.0000 
     42 H42        -0.8232   54.2038   30.2969 H         1 UNK         0.0000 
     43 H43         2.4875   51.6433   27.6819 H         1 UNK         0.0000 
     44 H44         5.1959   53.3110   29.2814 H         1 UNK         0.0000 
     45 H45         4.3727   52.1665   28.3352 H         1 UNK         0.0000 
     46 H46         7.5047   55.2493   25.0147 H         1 UNK         0.0000 
     47 H47         3.5045   53.2489   24.0689 H         1 UNK         0.0000 
     48 H48         1.3886   53.5641   22.8645 H         1 UNK         0.0000 
     49 H49         1.4359   53.2950   21.1581 H         1 UNK         0.0000 
     50 H50         0.9738   51.1600   22.2488 H         1 UNK         0.0000 
     51 H51         2.3229   51.3379   23.3260 H         1 UNK         0.0000 
     52 H52         2.4137   50.8646   20.3057 H         1 UNK         0.0000 
     53 H53         2.9819   49.7816   21.5467 H         1 UNK         0.0000 
     54 H54         4.8563   50.9834   20.3902 H         1 UNK         0.0000 
     55 H55         4.8739   51.2975   22.0816 H         1 UNK         0.0000 
     56 H56         2.8358   52.9786   19.3566 H         1 UNK         0.0000 
     57 H57         2.6068   54.3037   17.8361 H         1 UNK         0.0000 
     58 H58         1.9868   55.3341   15.7429 H         1 UNK         0.0000 
     59 H59         1.8276   56.5091   17.0154 H         1 UNK         0.0000 
     60 H60         1.7608   57.6227   14.7911 H         1 UNK         0.0000 
     61 H61         2.7541   58.8873   16.7085 H         1 UNK         0.0000 
     62 H62         3.5379   59.3324   15.2184 H         1 UNK         0.0000 
     63 H63         5.2341   58.9118   16.9902 H         1 UNK         0.0000 
     64 H64         3.9258   57.2910   18.3421 H         1 UNK         0.0000 
     65 H65         5.4910   56.6472   17.9577 H         1 UNK         0.0000 
     66 H66         5.8737   58.3485   14.6421 H         1 UNK         0.0000 
     67 H67         6.6461   57.2507   15.7548 H         1 UNK         0.0000 
     68 H68         5.6404   55.9895   13.8386 H         1 UNK         0.0000 
     69 H69         3.1580   55.9749   13.5256 H         1 UNK         0.0000 
     70 H70         3.7875   57.5901   13.3187 H         1 UNK         0.0000 
     71 H71         5.7233   54.8549   16.0477 H         1 UNK         0.0000 
     72 H72         4.3133   54.3474   15.1648 H         1 UNK         0.0000 
@<TRIPOS>BOND
     1    1    6 ar   
     2    1    2 ar   
     3    1   40 1    
     4    2    3 ar   
     5    2   41 1    
     6    3    4 ar   
     7    3   42 1    
     8    4    5 ar   
     9    4   39 1    
    10    5    6 ar   
    11    5    7 1    
    12    6   43 1    
    13    7    8 1    
    14    8    9 1    
    15    8   44 1    
    16    8   45 1    
    17    9   13 1    
    18    9   10 2    
    19   10   11 1    
    20   11   12 2    
    21   11   14 1    
    22   12   13 1    
    23   12   46 1    
    24   14   15 2    
    25   14   16 am   BACKBONE|DICT|INTERRES
    26   16   17 1    
    27   16   47 1    
    28   17   18 1    
    29   17   23 1    
    30   17   19 1    
    31   19   20 1    
    32   19   48 1    
    33   19   49 1    
    34   20   21 1    
    35   20   50 1    
    36   20   51 1    
    37   21   22 1    
    38   21   52 1    
    39   21   53 1    
    40   22   23 1    
    41   22   54 1    
    42   22   55 1    
    43   23   24 1    
    44   23   25 1    
    45   25   26 am   BACKBONE|DICT|INTERRES
    46   25   56 1    
    47   26   27 2    
    48   26   28 am   BACKBONE|DICT|INTERRES
    49   28   29 1    
    50   28   57 1    
    51   29   34 1    
    52   29   38 1    
    53   29   30 1    
    54   30   31 1    
    55   30   58 1    
    56   30   59 1    
    57   31   37 1    
    58   31   32 1    
    59   31   60 1    
    60   32   33 1    
    61   32   61 1    
    62   32   62 1    
    63   33   34 1    
    64   33   35 1    
    65   33   63 1    
    66   34   64 1    
    67   34   65 1    
    68   35   36 1    
    69   35   66 1    
    70   35   67 1    
    71   36   37 1    
    72   36   38 1    
    73   36   68 1    
    74   37   69 1    
    75   37   70 1    
    76   38   71 1    
    77   38   72 1    
@<TRIPOS>SUBSTRUCTURE
     1 UNK         1 GROUP             0       ****    0 ROOT    
