ZINC13415967_5819
                    3D
 Schrodinger Suite 2024-2.
 52 56  0  0  1  0            999 V2000
    0.6352   54.8258   30.4580 C   0  0  0  0  0  0
    0.0790   53.4157   30.7290 C   0  0  0  0  0  0
    0.9267   52.2280   30.2100 C   0  0  0  0  0  0
    1.5584   52.4645   28.8880 N   0  0  0  0  0  0
    2.9046   52.8269   28.9458 C   0  0  0  0  0  0
    3.5877   52.7764   29.9744 O   0  0  0  0  0  0
    3.3721   53.2968   27.6488 C   0  0  0  0  0  0
    4.6526   53.7262   27.2729 C   0  0  0  0  0  0
    4.7202   54.1231   25.9540 C   0  0  0  0  0  0
    3.2083   53.9654   25.1200 S   0  0  0  0  0  0
    2.4866   53.3338   26.5737 C   0  0  0  0  0  0
    1.2017   52.8964   26.6172 N   0  0  0  0  0  0
    0.7619   52.4226   27.7323 C   0  0  0  0  0  0
   -0.9138   51.7114   27.7696 S   0  0  0  0  0  0
   -1.5000   51.7862   26.0416 C   0  0  0  0  0  0
   -1.0125   50.6396   25.1658 C   0  0  0  0  0  0
    0.0608   50.8503   24.3553 C   0  0  0  0  0  0
    0.6625   49.8754   23.4675 C   0  0  0  0  0  0
    1.6938   50.0718   22.8296 O   0  0  0  0  0  0
   -0.0048   48.7026   23.4126 N   0  0  0  0  0  0
    0.4070   48.0248   22.7913 H   0  0  0  0  0  0
   -1.1264   48.4165   24.1716 C   0  0  0  0  0  0
   -1.7097   49.3186   25.0661 C   0  0  0  0  0  0
   -2.8784   48.7749   25.6806 C   0  0  0  0  0  0
   -3.1233   47.4459   25.2376 C   0  0  0  0  0  0
   -1.9203   46.9000   24.0973 S   0  0  0  0  0  0
   -4.2130   46.4962   25.5600 C   0  0  0  0  0  0
   -5.2169   46.9506   26.1502 O   0  0  0  0  0  0
   -4.0955   45.2972   25.1909 O   0  5  0  0  0  0
   -3.6977   49.4734   26.7543 C   0  0  0  0  0  0
    6.0973   54.5719   25.5561 C   0  0  0  0  0  0
    6.7889   54.6739   26.9283 C   0  0  0  0  0  0
    6.0099   53.7975   27.9189 C   0  0  0  0  0  0
   -0.0146   55.5876   30.8818 H   0  0  0  0  0  0
    1.6257   54.9631   30.8800 H   0  0  0  0  0  0
    0.7050   55.0317   29.3890 H   0  0  0  0  0  0
   -0.8952   53.3489   30.2518 H   0  0  0  0  0  0
   -0.1148   53.2798   31.7958 H   0  0  0  0  0  0
    0.2844   51.3503   30.1179 H   0  0  0  0  0  0
    1.6558   51.9556   30.9770 H   0  0  0  0  0  0
   -2.5877   51.8135   26.0275 H   0  0  0  0  0  0
   -1.2059   52.7431   25.6101 H   0  0  0  0  0  0
    0.5522   51.8113   24.3715 H   0  0  0  0  0  0
   -4.1763   48.7770   27.4399 H   0  0  0  0  0  0
   -3.0880   50.0780   27.4186 H   0  0  0  0  0  0
   -4.4673   50.1162   26.3313 H   0  0  0  0  0  0
    6.1093   55.5350   25.0433 H   0  0  0  0  0  0
    6.5926   53.8435   24.9112 H   0  0  0  0  0  0
    6.7366   55.7003   27.2815 H   0  0  0  0  0  0
    7.8428   54.4064   26.8840 H   0  0  0  0  0  0
    6.4684   52.8104   27.9911 H   0  0  0  0  0  0
    5.9994   54.2303   28.9195 H   0  0  0  0  0  0
  1  2  1  0  0  0
  1 34  1  0  0  0
  1 35  1  0  0  0
  1 36  1  0  0  0
  2  3  1  0  0  0
  2 37  1  0  0  0
  2 38  1  0  0  0
  3  4  1  0  0  0
  3 39  1  0  0  0
  3 40  1  0  0  0
  4 13  1  0  0  0
  4  5  1  0  0  0
  5  6  2  0  0  0
  5  7  1  0  0  0
  7 11  2  0  0  0
  7  8  1  0  0  0
  8 33  1  0  0  0
  8  9  2  0  0  0
  9 10  1  0  0  0
  9 31  1  0  0  0
 10 11  1  0  0  0
 11 12  1  0  0  0
 12 13  2  0  0  0
 13 14  1  0  0  0
 14 15  1  0  0  0
 15 16  1  0  0  0
 15 41  1  0  0  0
 15 42  1  0  0  0
 16 23  1  0  0  0
 16 17  2  0  0  0
 17 18  1  0  0  0
 17 43  1  0  0  0
 18 19  2  0  0  0
 18 20  1  0  0  0
 20 21  1  0  0  0
 20 22  1  0  0  0
 22 26  1  0  0  0
 22 23  2  0  0  0
 23 24  1  0  0  0
 24 25  2  0  0  0
 24 30  1  0  0  0
 25 26  1  0  0  0
 25 27  1  0  0  0
 27 28  2  0  0  0
 27 29  1  0  0  0
 30 44  1  0  0  0
 30 45  1  0  0  0
 30 46  1  0  0  0
 31 32  1  0  0  0
 31 47  1  0  0  0
 31 48  1  0  0  0
 32 33  1  0  0  0
 32 49  1  0  0  0
 32 50  1  0  0  0
 33 51  1  0  0  0
 33 52  1  0  0  0
M  CHG  1  29  -1
M  END
> <i_i_glide_confnum>
12

> <i_i_glide_lignum>
5820

> <i_i_glide_posenum>
213

> <i_i_glide_rotatable_bonds>
6

> <i_m_Source_File_Index>
3623

> <b_m_subgroup_collapsed>
0

> <r_i_docking_score>
-5.73559

> <r_i_glide_ecoul>
-2.93003

> <r_i_glide_eff_state_penalty>
0

> <r_i_glide_einternal>
2.9003

> <r_i_glide_emodel>
-68.2478

> <r_i_glide_energy>
-49.9676

> <r_i_glide_erotb>
0.343317

> <r_i_glide_esite>
-0.0472565

> <r_i_glide_evdw>
-47.0376

> <r_i_glide_gscore>
-5.73559

> <r_i_glide_hbond>
-0.2

> <r_i_glide_ligand_efficiency>
-0.179237

> <r_i_glide_ligand_efficiency_ln>
-1.28435

> <r_i_glide_ligand_efficiency_sa>
-0.569042

> <r_i_glide_lipo>
-2.49721

> <r_i_glide_metal>
0

> <r_i_glide_rewards>
-0.54306

> <s_i_glide_gridfile>
wee1_glide-grid

> <s_m_Source_File>
wee1_decoys_glide_SP.sdf

> <s_m_Source_Path>
/Users/zhangxujun/Desktop

> <s_m_entry_id>
3898

> <s_m_entry_name>
wee1_decoys_glide_SP.3623

> <s_m_subgroup_title>
wee1_decoys_glide_SP

> <s_m_subgroupid>
wee1_decoys_glide_SP


$$$$
