ZINC58940622_98
                    3D
 Schrodinger Suite 2024-2.
 52 55  0  0  1  0            999 V2000
   -0.2545   49.9235   20.2685 C   0  0  0  0  0  0
   -0.2253   51.2311   20.7475 C   0  0  0  0  0  0
    0.9910   51.8981   20.8631 C   0  0  0  0  0  0
    2.1867   51.2562   20.5010 C   0  0  0  0  0  0
    2.1397   49.9397   20.0214 C   0  0  0  0  0  0
    0.9228   49.2759   19.9044 C   0  0  0  0  0  0
    3.5226   51.9482   20.6305 C   0  0  0  0  0  0
    4.5387   51.2966   20.8816 O   0  0  0  0  0  0
    3.5050   53.2952   20.5226 N   0  0  0  0  0  0
    4.7213   53.9791   20.4271 N   0  0  0  0  0  0
    5.1943   54.6430   21.6234 C   0  0  2  0  0  0
    4.4038   55.2963   21.9879 H   0  0  0  0  0  0
    6.3258   55.4651   21.0450 C   0  0  0  0  0  0
    7.1626   56.0968   21.6859 O   0  0  0  0  0  0
    6.2075   55.3331   19.7090 N   0  0  0  0  0  0
    5.2390   54.4664   19.2568 C   0  0  0  0  0  0
    4.7913   54.0994   17.6803 S   0  0  0  0  0  0
    7.0558   56.0931   18.8753 C   0  0  0  0  0  0
    6.6071   57.3156   18.3605 C   0  0  0  0  0  0
    7.4670   58.1021   17.6010 C   0  0  0  0  0  0
    8.7687   57.6647   17.3602 C   0  0  0  0  0  0
    9.2198   56.4486   17.8710 C   0  0  0  0  0  0
    8.3638   55.6579   18.6307 C   0  0  0  0  0  0
    5.7084   53.7143   22.7644 C   0  0  0  0  0  0
    5.7194   54.3407   24.1673 C   0  0  0  0  0  0
    6.7030   54.9693   24.5592 O   0  0  0  0  0  0
    4.6118   54.0969   24.8934 N   0  0  0  0  0  0
    4.4029   54.2204   26.2744 C   0  0  0  0  0  0
    3.1081   53.9408   26.7177 C   0  0  0  0  0  0
    2.8259   53.9146   28.0788 C   0  0  0  0  0  0
    3.8403   54.1715   28.9949 C   0  0  0  0  0  0
    5.1263   54.4847   28.5657 C   0  0  0  0  0  0
    5.4161   54.4963   27.2055 C   0  0  0  0  0  0
    3.5757   54.0968   30.3150 F   0  0  0  0  0  0
   -1.1997   49.4081   20.1773 H   0  0  0  0  0  0
   -1.1434   51.7232   21.0315 H   0  0  0  0  0  0
    0.9914   52.9098   21.2427 H   0  0  0  0  0  0
    3.0452   49.4266   19.7269 H   0  0  0  0  0  0
    0.8967   48.2635   19.5274 H   0  0  0  0  0  0
    2.7349   53.8183   20.1253 H   0  0  0  0  0  0
    5.6020   57.6612   18.5549 H   0  0  0  0  0  0
    7.1258   59.0512   17.2092 H   0  0  0  0  0  0
    9.4368   58.2777   16.7741 H   0  0  0  0  0  0
   10.2347   56.1241   17.6901 H   0  0  0  0  0  0
    8.7218   54.7248   19.0409 H   0  0  0  0  0  0
    6.7042   53.3304   22.5608 H   0  0  0  0  0  0
    5.0905   52.8219   22.8203 H   0  0  0  0  0  0
    3.8424   53.6820   24.3927 H   0  0  0  0  0  0
    2.3198   53.7115   26.0155 H   0  0  0  0  0  0
    1.8327   53.6738   28.4273 H   0  0  0  0  0  0
    5.9069   54.6886   29.2822 H   0  0  0  0  0  0
    6.4341   54.6944   26.9083 H   0  0  0  0  0  0
  1  6  2  0  0  0
  1  2  1  0  0  0
  1 35  1  0  0  0
  2  3  2  0  0  0
  2 36  1  0  0  0
  3  4  1  0  0  0
  3 37  1  0  0  0
  4  5  2  0  0  0
  4  7  1  0  0  0
  5  6  1  0  0  0
  5 38  1  0  0  0
  6 39  1  0  0  0
  7  8  2  0  0  0
  7  9  1  0  0  0
  9 10  1  0  0  0
  9 40  1  0  0  0
 10 16  1  0  0  0
 10 11  1  0  0  0
 11 12  1  0  0  0
 11 13  1  0  0  0
 11 24  1  0  0  0
 13 14  2  0  0  0
 13 15  1  0  0  0
 15 16  1  0  0  0
 15 18  1  0  0  0
 16 17  2  0  0  0
 18 23  2  0  0  0
 18 19  1  0  0  0
 19 20  2  0  0  0
 19 41  1  0  0  0
 20 21  1  0  0  0
 20 42  1  0  0  0
 21 22  2  0  0  0
 21 43  1  0  0  0
 22 23  1  0  0  0
 22 44  1  0  0  0
 23 45  1  0  0  0
 24 25  1  0  0  0
 24 46  1  0  0  0
 24 47  1  0  0  0
 25 26  2  0  0  0
 25 27  1  0  0  0
 27 28  1  0  0  0
 27 48  1  0  0  0
 28 33  2  0  0  0
 28 29  1  0  0  0
 29 30  2  0  0  0
 29 49  1  0  0  0
 30 31  1  0  0  0
 30 50  1  0  0  0
 31 32  2  0  0  0
 31 34  1  0  0  0
 32 33  1  0  0  0
 32 51  1  0  0  0
 33 52  1  0  0  0
M  END
> <i_i_glide_confnum>
192

> <i_i_glide_lignum>
99

> <i_i_glide_posenum>
317

> <i_i_glide_rotatable_bonds>
8

> <i_m_Source_File_Index>
1581

> <b_m_subgroup_collapsed>
0

> <r_i_docking_score>
-6.44316

> <r_i_glide_ecoul>
-7.52821

> <r_i_glide_eff_state_penalty>
0

> <r_i_glide_einternal>
11.8258

> <r_i_glide_emodel>
-68.772

> <r_i_glide_energy>
-54.9591

> <r_i_glide_erotb>
0.659227

> <r_i_glide_esite>
-0.100366

> <r_i_glide_evdw>
-47.4309

> <r_i_glide_gscore>
-6.44316

> <r_i_glide_hbond>
-0.36235

> <r_i_glide_ligand_efficiency>
-0.195247

> <r_i_glide_ligand_efficiency_ln>
-1.43292

> <r_i_glide_ligand_efficiency_sa>
-0.626262

> <r_i_glide_lipo>
-1.95242

> <r_i_glide_metal>
0

> <r_i_glide_rewards>
-1.18647

> <s_i_glide_gridfile>
wee1_glide-grid

> <s_m_Source_File>
wee1_decoys_glide_SP.sdf

> <s_m_Source_Path>
/Users/zhangxujun/Desktop

> <s_m_entry_id>
1856

> <s_m_entry_name>
wee1_decoys_glide_SP.1581

> <s_m_subgroup_title>
wee1_decoys_glide_SP

> <s_m_subgroupid>
wee1_decoys_glide_SP


$$$$
