ZINC46809215_5359
                    3D
 Schrodinger Suite 2024-2.
 69 72  0  0  1  0            999 V2000
    0.7367   52.4718   26.3382 C   0  0  0  0  0  0
    0.5237   51.2275   25.4515 C   0  0  1  0  0  0
    1.3947   51.0169   24.8323 H   0  0  0  0  0  0
    0.1920   50.0016   26.3348 C   0  0  0  0  0  0
   -0.3351   48.7858   25.5626 C   0  0  0  0  0  0
   -1.5277   49.1740   24.6860 C   0  0  0  0  0  0
   -1.1313   50.2731   23.6933 C   0  0  0  0  0  0
   -0.6505   51.5277   24.4686 N   0  3  2  0  0  0
   -0.3451   52.6763   23.4627 C   0  0  0  0  0  0
    0.9860   52.5773   22.7167 C   0  0  0  0  0  0
    1.1228   51.7163   21.6261 C   0  0  0  0  0  0
    2.3587   51.5719   20.9988 C   0  0  0  0  0  0
    3.4508   52.3213   21.4383 C   0  0  0  0  0  0
    3.2985   53.2339   22.4829 C   0  0  0  0  0  0
    2.0666   53.3686   23.1142 C   0  0  0  0  0  0
    4.8294   52.0786   20.8380 C   0  0  0  0  0  0
    5.1066   52.8975   19.6620 N   0  0  0  0  0  0
    5.3606   54.2164   19.6903 C   0  0  0  0  0  0
    5.5060   54.8413   20.7447 O   0  0  0  0  0  0
    5.4214   54.9474   18.3343 C   0  0  2  0  0  0
    5.6690   54.1985   17.5783 H   0  0  0  0  0  0
    6.4981   56.0741   18.3579 C   0  0  0  0  0  0
    6.4631   56.8667   17.0229 C   0  0  0  0  0  0
    5.0479   57.3912   16.6850 C   0  0  0  0  0  0
    4.0440   56.3075   16.8170 N   0  0  0  0  0  0
    4.0269   55.5672   18.0963 C   0  0  0  0  0  0
    3.0479   55.7664   15.4598 S   0  0  0  0  0  0
    3.3185   54.3382   15.2514 O   0  0  0  0  0  0
    3.1995   56.7187   14.3544 O   0  0  0  0  0  0
    1.3723   55.9150   16.0699 C   0  0  0  0  0  0
    0.7092   54.7901   16.5653 C   0  0  0  0  0  0
   -0.5714   54.9214   17.0950 C   0  0  0  0  0  0
   -1.1743   56.1763   17.1354 C   0  0  0  0  0  0
   -0.5206   57.2966   16.6288 C   0  0  0  0  0  0
    0.7576   57.1668   16.0897 C   0  0  0  0  0  0
   -2.4037   56.3049   17.6814 F   0  0  0  0  0  0
    1.4883   52.2739   27.1044 H   0  0  0  0  0  0
    1.0907   53.3333   25.7794 H   0  0  0  0  0  0
   -0.1791   52.7633   26.8573 H   0  0  0  0  0  0
   -0.5480   50.2691   27.0943 H   0  0  0  0  0  0
    1.0850   49.6968   26.8817 H   0  0  0  0  0  0
   -0.6378   48.0109   26.2661 H   0  0  0  0  0  0
    0.4639   48.3516   24.9583 H   0  0  0  0  0  0
   -2.3599   49.5041   25.3128 H   0  0  0  0  0  0
   -1.8875   48.2973   24.1450 H   0  0  0  0  0  0
   -2.0043   50.5691   23.1100 H   0  0  0  0  0  0
   -0.3322   49.9449   23.0354 H   0  0  0  0  0  0
   -0.4006   53.5871   24.0576 H   0  0  0  0  0  0
   -1.1809   52.6984   22.7655 H   0  0  0  0  0  0
    0.2882   51.1283   21.2741 H   0  0  0  0  0  0
    2.4702   50.8728   20.1810 H   0  0  0  0  0  0
    4.1407   53.8255   22.8169 H   0  0  0  0  0  0
    1.9731   54.0747   23.9253 H   0  0  0  0  0  0
    4.9103   51.0309   20.5506 H   0  0  0  0  0  0
    5.5858   52.2341   21.6076 H   0  0  0  0  0  0
    5.0668   52.4040   18.7754 H   0  0  0  0  0  0
    7.5032   55.6641   18.4632 H   0  0  0  0  0  0
    6.2849   56.8105   19.1348 H   0  0  0  0  0  0
    6.8104   56.2258   16.2118 H   0  0  0  0  0  0
    7.1613   57.7023   17.0646 H   0  0  0  0  0  0
    5.0226   57.7818   15.6683 H   0  0  0  0  0  0
    4.7507   58.2163   17.3348 H   0  0  0  0  0  0
    3.7473   56.2907   18.8597 H   0  0  0  0  0  0
    3.2576   54.7959   18.0245 H   0  0  0  0  0  0
    1.1838   53.8180   16.5534 H   0  0  0  0  0  0
   -1.0870   54.0564   17.4885 H   0  0  0  0  0  0
   -0.9945   58.2672   16.6697 H   0  0  0  0  0  0
    1.2734   58.0415   15.7178 H   0  0  0  0  0  0
   -1.4305   51.8103   25.0435 H   0  0  0  0  0  0
  1  2  1  0  0  0
  1 37  1  0  0  0
  1 38  1  0  0  0
  1 39  1  0  0  0
  2  3  1  0  0  0
  2  8  1  0  0  0
  2  4  1  0  0  0
  4  5  1  0  0  0
  4 40  1  0  0  0
  4 41  1  0  0  0
  5  6  1  0  0  0
  5 42  1  0  0  0
  5 43  1  0  0  0
  6  7  1  0  0  0
  6 44  1  0  0  0
  6 45  1  0  0  0
  7  8  1  0  0  0
  7 46  1  0  0  0
  7 47  1  0  0  0
  8  9  1  0  0  0
  8 69  1  0  0  0
  9 10  1  0  0  0
  9 48  1  0  0  0
  9 49  1  0  0  0
 10 15  2  0  0  0
 10 11  1  0  0  0
 11 12  2  0  0  0
 11 50  1  0  0  0
 12 13  1  0  0  0
 12 51  1  0  0  0
 13 14  2  0  0  0
 13 16  1  0  0  0
 14 15  1  0  0  0
 14 52  1  0  0  0
 15 53  1  0  0  0
 16 17  1  0  0  0
 16 54  1  0  0  0
 16 55  1  0  0  0
 17 18  1  0  0  0
 17 56  1  0  0  0
 18 19  2  0  0  0
 18 20  1  0  0  0
 20 21  1  0  0  0
 20 26  1  0  0  0
 20 22  1  0  0  0
 22 23  1  0  0  0
 22 57  1  0  0  0
 22 58  1  0  0  0
 23 24  1  0  0  0
 23 59  1  0  0  0
 23 60  1  0  0  0
 24 25  1  0  0  0
 24 61  1  0  0  0
 24 62  1  0  0  0
 25 26  1  0  0  0
 25 27  1  0  0  0
 26 63  1  0  0  0
 26 64  1  0  0  0
 27 28  2  0  0  0
 27 29  2  0  0  0
 27 30  1  0  0  0
 30 35  2  0  0  0
 30 31  1  0  0  0
 31 32  2  0  0  0
 31 65  1  0  0  0
 32 33  1  0  0  0
 32 66  1  0  0  0
 33 34  2  0  0  0
 33 36  1  0  0  0
 34 35  1  0  0  0
 34 67  1  0  0  0
 35 68  1  0  0  0
M  CHG  1   8   1
M  END
> <i_i_glide_confnum>
187

> <i_i_glide_lignum>
5360

> <i_i_glide_posenum>
396

> <i_i_glide_rotatable_bonds>
8

> <i_m_Source_File_Index>
2579

> <b_m_subgroup_collapsed>
0

> <r_i_docking_score>
-2.37131

> <r_i_glide_ecoul>
-3.5953

> <r_i_glide_eff_state_penalty>
0

> <r_i_glide_einternal>
7.27419

> <r_i_glide_emodel>
-37.6093

> <r_i_glide_energy>
-36.0084

> <r_i_glide_erotb>
0.681427

> <r_i_glide_esite>
-0.151251

> <r_i_glide_evdw>
-32.4131

> <r_i_glide_gscore>
-2.37131

> <r_i_glide_hbond>
-0.0777907

> <r_i_glide_ligand_efficiency>
-0.0697445

> <r_i_glide_ligand_efficiency_ln>
-0.523889

> <r_i_glide_ligand_efficiency_sa>
-0.225945

> <r_i_glide_lipo>
-0.756143

> <r_i_glide_metal>
0

> <r_i_glide_rewards>
0.0923948

> <s_i_glide_gridfile>
wee1_glide-grid

> <s_m_Source_File>
wee1_decoys_glide_SP.sdf

> <s_m_Source_Path>
/Users/zhangxujun/Desktop

> <s_m_entry_id>
2854

> <s_m_entry_name>
wee1_decoys_glide_SP.2579

> <s_m_subgroup_title>
wee1_decoys_glide_SP

> <s_m_subgroupid>
wee1_decoys_glide_SP


$$$$
