ZINC01380905_5480
                    3D
 Schrodinger Suite 2024-2.
 61 66  0  0  1  0            999 V2000
    7.0313   55.5384   22.0797 C   0  0  0  0  0  0
    6.1930   54.5627   22.6060 C   0  0  0  0  0  0
    5.3618   53.8440   21.7557 C   0  0  0  0  0  0
    5.3701   54.0970   20.3763 C   0  0  0  0  0  0
    6.2140   55.0854   19.8635 C   0  0  0  0  0  0
    7.0525   55.7999   20.7124 C   0  0  0  0  0  0
    4.4786   53.3232   19.4028 C   0  0  0  0  0  0
    3.1993   52.8567   19.9371 N   0  0  0  0  0  0
    3.0025   51.7186   20.6268 C   0  0  0  0  0  0
    3.9009   50.9133   20.8801 O   0  0  0  0  0  0
    1.5578   51.4966   21.1270 C   0  0  2  0  0  0
    0.8958   51.8402   20.3318 H   0  0  0  0  0  0
    1.2743   52.2432   22.4264 C   0  0  1  0  0  0
    1.8262   53.6214   22.7391 C   0  0  0  0  0  0
    1.0072   54.0965   23.6814 C   0  0  0  0  0  0
   -0.0840   53.0414   23.8692 C   0  0  1  0  0  0
   -1.0596   53.4084   24.1918 H   0  0  0  0  0  0
   -0.1130   52.4970   22.5662 O   0  0  0  0  0  0
    0.4296   51.7617   24.5900 C   0  0  1  0  0  0
   -0.3918   51.0629   24.7673 H   0  0  0  0  0  0
    1.4284   51.2203   23.5285 C   0  0  1  0  0  0
    2.4414   51.1254   23.9042 H   0  0  0  0  0  0
    1.0560   49.9031   22.8409 C   0  0  0  0  0  0
    0.6948   48.8865   23.4207 O   0  0  0  0  0  0
    1.2494   50.1029   21.5096 N   0  0  0  0  0  0
    1.2866   48.9868   20.5552 C   0  0  0  0  0  0
    0.6321   49.3339   19.2353 C   0  0  0  0  0  0
    1.2133   49.4114   17.9705 C   0  0  0  0  0  0
    0.3251   49.7538   16.9492 C   0  0  0  0  0  0
   -0.9668   49.9290   17.4110 C   0  0  0  0  0  0
   -1.0745   49.6696   19.1188 S   0  0  0  0  0  0
    1.0847   52.1067   25.9535 C   0  0  0  0  0  0
    2.0531   52.8706   26.0097 O   0  0  0  0  0  0
    0.4912   51.5805   27.0418 N   0  0  0  0  0  0
    0.7977   51.8645   28.3816 C   0  0  0  0  0  0
    2.1032   52.1043   28.8440 C   0  0  0  0  0  0
    2.3253   52.4257   30.1835 C   0  0  0  0  0  0
    1.2476   52.5161   31.0640 C   0  0  0  0  0  0
   -0.0483   52.2959   30.6021 C   0  0  0  0  0  0
   -0.2746   51.9465   29.2745 C   0  0  0  0  0  0
   -1.5394   51.6968   28.8606 F   0  0  0  0  0  0
    7.6653   56.0950   22.7496 H   0  0  0  0  0  0
    6.1896   54.3592   23.6667 H   0  0  0  0  0  0
    4.7430   53.0725   22.1830 H   0  0  0  0  0  0
    6.2363   55.2900   18.8030 H   0  0  0  0  0  0
    7.7215   56.5402   20.3031 H   0  0  0  0  0  0
    5.0628   52.4968   18.9966 H   0  0  0  0  0  0
    4.2384   53.9681   18.5565 H   0  0  0  0  0  0
    2.4287   53.5090   19.8544 H   0  0  0  0  0  0
    2.7310   54.0580   22.3514 H   0  0  0  0  0  0
    1.1048   54.9993   24.2516 H   0  0  0  0  0  0
    2.3355   48.7381   20.3783 H   0  0  0  0  0  0
    0.8247   48.0969   20.9799 H   0  0  0  0  0  0
    2.2674   49.2387   17.7954 H   0  0  0  0  0  0
    0.6224   49.8672   15.9161 H   0  0  0  0  0  0
   -1.8432   50.1928   16.8383 H   0  0  0  0  0  0
   -0.3484   51.0356   26.9017 H   0  0  0  0  0  0
    2.9502   52.0398   28.1757 H   0  0  0  0  0  0
    3.3314   52.5969   30.5371 H   0  0  0  0  0  0
    1.4079   52.7554   32.1057 H   0  0  0  0  0  0
   -0.8831   52.3644   31.2811 H   0  0  0  0  0  0
  1  6  2  0  0  0
  1  2  1  0  0  0
  1 42  1  0  0  0
  2  3  2  0  0  0
  2 43  1  0  0  0
  3  4  1  0  0  0
  3 44  1  0  0  0
  4  5  2  0  0  0
  4  7  1  0  0  0
  5  6  1  0  0  0
  5 45  1  0  0  0
  6 46  1  0  0  0
  7  8  1  0  0  0
  7 47  1  0  0  0
  7 48  1  0  0  0
  8  9  1  0  0  0
  8 49  1  0  0  0
  9 10  2  0  0  0
  9 11  1  0  0  0
 11 12  1  0  0  0
 11 25  1  0  0  0
 11 13  1  0  0  0
 13 18  1  0  0  0
 13 21  1  0  0  0
 13 14  1  0  0  0
 14 15  2  0  0  0
 14 50  1  0  0  0
 15 16  1  0  0  0
 15 51  1  0  0  0
 16 17  1  0  0  0
 16 18  1  0  0  0
 16 19  1  0  0  0
 19 20  1  0  0  0
 19 21  1  0  0  0
 19 32  1  0  0  0
 21 22  1  0  0  0
 21 23  1  0  0  0
 23 24  2  0  0  0
 23 25  1  0  0  0
 25 26  1  0  0  0
 26 27  1  0  0  0
 26 52  1  0  0  0
 26 53  1  0  0  0
 27 31  1  0  0  0
 27 28  2  0  0  0
 28 29  1  0  0  0
 28 54  1  0  0  0
 29 30  2  0  0  0
 29 55  1  0  0  0
 30 31  1  0  0  0
 30 56  1  0  0  0
 32 33  2  0  0  0
 32 34  1  0  0  0
 34 35  1  0  0  0
 34 57  1  0  0  0
 35 40  2  0  0  0
 35 36  1  0  0  0
 36 37  2  0  0  0
 36 58  1  0  0  0
 37 38  1  0  0  0
 37 59  1  0  0  0
 38 39  2  0  0  0
 38 60  1  0  0  0
 39 40  1  0  0  0
 39 61  1  0  0  0
 40 41  1  0  0  0
M  END
> <i_i_glide_confnum>
76

> <i_i_glide_lignum>
5481

> <i_i_glide_posenum>
39

> <i_i_glide_rotatable_bonds>
9

> <i_m_Source_File_Index>
54

> <b_m_subgroup_collapsed>
0

> <r_i_docking_score>
-4.89814

> <r_i_glide_ecoul>
-5.60339

> <r_i_glide_eff_state_penalty>
0

> <r_i_glide_einternal>
2.20987

> <r_i_glide_emodel>
-59.4785

> <r_i_glide_energy>
-45.5934

> <r_i_glide_erotb>
0.613193

> <r_i_glide_esite>
-0.0984912

> <r_i_glide_evdw>
-39.9901

> <r_i_glide_gscore>
-4.89814

> <r_i_glide_hbond>
-0.349703

> <r_i_glide_ligand_efficiency>
-0.132382

> <r_i_glide_ligand_efficiency_ln>
-1.06229

> <r_i_glide_ligand_efficiency_sa>
-0.441126

> <r_i_glide_lipo>
-1.90754

> <r_i_glide_metal>
0

> <r_i_glide_rewards>
-0.315585

> <s_i_glide_gridfile>
wee1_glide-grid

> <s_m_Source_File>
wee1_decoys_glide_SP.sdf

> <s_m_Source_Path>
/Users/zhangxujun/Desktop

> <s_m_entry_id>
329

> <s_m_entry_name>
wee1_decoys_glide_SP.54

> <s_m_subgroup_title>
wee1_decoys_glide_SP

> <s_m_subgroupid>
wee1_decoys_glide_SP


$$$$
