@<TRIPOS>MOLECULE
ZINC02452980_4025
46   49    1
SMALL
USER_CHARGES


@<TRIPOS>ATOM
      1 C1          5.2982   54.5089   28.4109 C.3       1 UNK         0.0000 
      2 C2          5.1348   54.4331   26.9046 C.ar      1 UNK         0.0000 
      3 C3          6.2464   54.2080   26.0956 C.ar      1 UNK         0.0000 
      4 C4          6.0885   54.0937   24.7175 C.ar      1 UNK         0.0000 
      5 C5          4.8172   54.2003   24.1345 C.ar      1 UNK         0.0000 
      6 C6          3.7195   54.4966   24.9496 C.ar      1 UNK         0.0000 
      7 C7          3.8757   54.5961   26.3295 C.ar      1 UNK         0.0000 
      8 N8          4.6456   53.9766   22.7376 N.pl3     1 UNK         0.0000 
      9 C9          3.6093   53.3231   22.0655 C.ar      1 UNK         0.0000 
     10 N10         3.8432   53.2941   20.7790 N.2       1 UNK         0.0000 
     11 N11         5.0402   53.9394   20.5515 N.2       1 UNK         0.0000 
     12 C12         5.4945   54.3639   21.7021 C.ar      1 UNK         0.0000 
     13 S13         6.9696   55.3378   21.8557 S.3       1 UNK         0.0000 
     14 C14         7.5004   55.4736   20.1142 C.3       1 UNK         0.0000 
     15 C15         6.7244   56.5396   19.3351 C.2       1 UNK         0.0000 
     16 O16         6.7044   57.6971   19.7560 O.2       1 UNK         0.0000 
     17 N17         6.0798   56.1256   18.2248 N.am      1 UNK         0.0000 
     18 C18         5.3323   56.9410   17.3558 C.ar      1 UNK         0.0000 
     19 C19         5.8719   58.1087   16.7829 C.ar      1 UNK         0.0000 
     20 C20         5.1025   58.8791   15.9124 C.ar      1 UNK         0.0000 
     21 C21         3.8018   58.4962   15.5970 C.ar      1 UNK         0.0000 
     22 C22         3.2699   57.3311   16.1412 C.ar      1 UNK         0.0000 
     23 C23         4.0295   56.5464   17.0084 C.ar      1 UNK         0.0000 
     24 Br24        3.2493   54.9424   17.6817 Br        1 UNK         0.0000 
     25 F25         3.0592   59.2428   14.7498 F         1 UNK         0.0000 
     26 F26         7.1459   58.4918   17.0360 F         1 UNK         0.0000 
     27 C27         2.3580   52.7484   22.5849 C.2       1 UNK         0.0000 
     28 C28         1.1331   52.4975   21.9766 C.2       1 UNK         0.0000 
     29 C29         0.3031   51.9037   22.9278 C.2       1 UNK         0.0000 
     30 C30         1.0616   51.7938   24.0782 C.2       1 UNK         0.0000 
     31 O31         2.3044   52.2948   23.8652 O.3       1 UNK         0.0000 
     32 H32         6.2831   54.8942   28.6724 H         1 UNK         0.0000 
     33 H33         4.5672   55.1850   28.8553 H         1 UNK         0.0000 
     34 H34         5.1816   53.5217   28.8590 H         1 UNK         0.0000 
     35 H35         7.2235   54.0806   26.5376 H         1 UNK         0.0000 
     36 H36         6.9582   53.8528   24.1244 H         1 UNK         0.0000 
     37 H37         2.7351   54.6332   24.5265 H         1 UNK         0.0000 
     38 H38         3.0140   54.7919   26.9504 H         1 UNK         0.0000 
     39 H39         7.4699   54.4992   19.6251 H         1 UNK         0.0000 
     40 H40         8.5478   55.7762   20.1149 H         1 UNK         0.0000 
     41 H41         6.0097   55.1311   18.0660 H         1 UNK         0.0000 
     42 H42         5.5066   59.7917   15.4990 H         1 UNK         0.0000 
     43 H43         2.2646   57.0350   15.8825 H         1 UNK         0.0000 
     44 H44         0.8811   52.7311   20.9518 H         1 UNK         0.0000 
     45 H45        -0.7188   51.5829   22.7913 H         1 UNK         0.0000 
     46 H46         0.8692   51.3965   25.0645 H         1 UNK         0.0000 
@<TRIPOS>BOND
     1    1    2 1    
     2    1   32 1    
     3    1   33 1    
     4    1   34 1    
     5    2    7 ar   
     6    2    3 ar   
     7    3    4 ar   
     8    3   35 1    
     9    4    5 ar   
    10    4   36 1    
    11    5    6 ar   
    12    5    8 1    
    13    6    7 ar   
    14    6   37 1    
    15    7   38 1    
    16    8   12 ar   
    17    8    9 ar   
    18    9   10 ar   
    19    9   27 1    
    20   10   11 ar   
    21   11   12 ar   
    22   12   13 1    
    23   13   14 1    
    24   14   15 1    
    25   14   39 1    
    26   14   40 1    
    27   15   16 2    
    28   15   17 am   BACKBONE|DICT|INTERRES
    29   17   18 1    
    30   17   41 1    
    31   18   23 ar   
    32   18   19 ar   
    33   19   20 ar   
    34   19   26 1    
    35   20   21 ar   
    36   20   42 1    
    37   21   22 ar   
    38   21   25 1    
    39   22   23 ar   
    40   22   43 1    
    41   23   24 1    
    42   27   31 1    
    43   27   28 2    
    44   28   29 1    
    45   28   44 1    
    46   29   30 2    
    47   29   45 1    
    48   30   31 1    
    49   30   46 1    
@<TRIPOS>SUBSTRUCTURE
     1 UNK         1 GROUP             0       ****    0 ROOT    
