ZINC38932073_5858
                    3D
 Schrodinger Suite 2024-2.
 45 48  0  0  1  0            999 V2000
   -0.0385   53.5547   31.5395 C   0  0  0  0  0  0
    0.8757   53.7925   30.3512 C   0  0  0  0  0  0
    1.3692   55.0717   30.0814 C   0  0  0  0  0  0
    2.2030   55.2786   28.9844 C   0  0  0  0  0  0
    2.5299   54.2078   28.1507 C   0  0  0  0  0  0
    2.0419   52.9272   28.4239 C   0  0  0  0  0  0
    1.2116   52.7221   29.5224 C   0  0  0  0  0  0
    3.5491   54.4923   26.7284 S   0  0  0  0  0  0
    2.7287   53.5697   25.3850 C   0  0  0  0  0  0
    3.2650   53.6968   23.9661 C   0  0  0  0  0  0
    2.6766   53.4124   22.7990 C   0  0  0  0  0  0
    1.3387   52.8300   22.3509 C   0  0  1  0  0  0
    0.7113   53.6459   22.0040 H   0  0  0  0  0  0
    1.5981   51.9744   21.1048 C   0  0  0  0  0  0
    2.8058   51.9176   20.4946 C   0  0  0  0  0  0
    3.9297   52.5947   20.8749 O   0  0  0  0  0  0
    3.6923   53.7189   21.7447 C   0  0  2  0  0  0
    3.4098   54.5577   21.1064 H   0  0  0  0  0  0
    4.8389   54.0975   22.5107 N   0  0  0  0  0  0
    4.5443   54.0961   23.7558 N   0  0  0  0  0  0
    3.1043   51.1813   19.3786 N   0  0  0  0  0  0
    0.5028   51.2223   20.5781 C   0  0  0  0  0  0
   -0.4021   50.6436   20.1484 N   0  0  0  0  0  0
    0.5736   52.1172   23.4712 C   0  0  0  0  0  0
   -0.5331   52.7248   24.0781 C   0  0  0  0  0  0
   -1.2062   52.0885   25.1229 C   0  0  0  0  0  0
   -0.7838   50.8334   25.5617 C   0  0  0  0  0  0
    0.3035   50.2126   24.9517 C   0  0  0  0  0  0
    0.9797   50.8500   23.9113 C   0  0  0  0  0  0
    0.7043   48.9925   25.3704 F   0  0  0  0  0  0
    0.5017   53.0646   32.3515 H   0  0  0  0  0  0
   -0.4866   54.4774   31.9081 H   0  0  0  0  0  0
   -0.8608   52.8962   31.2543 H   0  0  0  0  0  0
    1.1122   55.9049   30.7206 H   0  0  0  0  0  0
    2.5854   56.2683   28.7799 H   0  0  0  0  0  0
    2.2936   52.0899   27.7927 H   0  0  0  0  0  0
    0.8262   51.7330   29.7271 H   0  0  0  0  0  0
    2.7387   52.5099   25.6334 H   0  0  0  0  0  0
    1.6816   53.8743   25.3797 H   0  0  0  0  0  0
    2.3942   50.6483   18.8981 H   0  0  0  0  0  0
    4.0616   51.0417   19.0519 H   0  0  0  0  0  0
   -0.8672   53.6999   23.7555 H   0  0  0  0  0  0
   -2.0539   52.5640   25.5946 H   0  0  0  0  0  0
   -1.3006   50.3328   26.3699 H   0  0  0  0  0  0
    1.8270   50.3570   23.4573 H   0  0  0  0  0  0
  1  2  1  0  0  0
  1 31  1  0  0  0
  1 32  1  0  0  0
  1 33  1  0  0  0
  2  7  2  0  0  0
  2  3  1  0  0  0
  3  4  2  0  0  0
  3 34  1  0  0  0
  4  5  1  0  0  0
  4 35  1  0  0  0
  5  6  2  0  0  0
  5  8  1  0  0  0
  6  7  1  0  0  0
  6 36  1  0  0  0
  7 37  1  0  0  0
  8  9  1  0  0  0
  9 10  1  0  0  0
  9 38  1  0  0  0
  9 39  1  0  0  0
 10 20  1  0  0  0
 10 11  2  0  0  0
 11 17  1  0  0  0
 11 12  1  0  0  0
 12 13  1  0  0  0
 12 14  1  0  0  0
 12 24  1  0  0  0
 14 15  2  0  0  0
 14 22  1  0  0  0
 15 16  1  0  0  0
 15 21  1  0  0  0
 16 17  1  0  0  0
 17 18  1  0  0  0
 17 19  1  0  0  0
 19 20  2  0  0  0
 21 40  1  0  0  0
 21 41  1  0  0  0
 22 23  3  0  0  0
 24 29  2  0  0  0
 24 25  1  0  0  0
 25 26  2  0  0  0
 25 42  1  0  0  0
 26 27  1  0  0  0
 26 43  1  0  0  0
 27 28  2  0  0  0
 27 44  1  0  0  0
 28 29  1  0  0  0
 28 30  1  0  0  0
 29 45  1  0  0  0
M  END
> <i_i_glide_confnum>
29

> <i_i_glide_lignum>
5859

> <i_i_glide_posenum>
211

> <i_i_glide_rotatable_bonds>
5

> <i_m_Source_File_Index>
1589

> <b_m_subgroup_collapsed>
0

> <r_i_docking_score>
-5.7445

> <r_i_glide_ecoul>
-4.43601

> <r_i_glide_eff_state_penalty>
0

> <r_i_glide_einternal>
4.19217

> <r_i_glide_emodel>
-56.9523

> <r_i_glide_energy>
-42.484

> <r_i_glide_erotb>
0.507083

> <r_i_glide_esite>
-0.159411

> <r_i_glide_evdw>
-38.048

> <r_i_glide_gscore>
-5.7445

> <r_i_glide_hbond>
-0.16

> <r_i_glide_ligand_efficiency>
-0.205161

> <r_i_glide_ligand_efficiency_ln>
-1.326

> <r_i_glide_ligand_efficiency_sa>
-0.622989

> <r_i_glide_lipo>
-2.46803

> <r_i_glide_metal>
0

> <r_i_glide_rewards>
-0.896343

> <s_i_glide_gridfile>
wee1_glide-grid

> <s_m_Source_File>
wee1_decoys_glide_SP.sdf

> <s_m_Source_Path>
/Users/zhangxujun/Desktop

> <s_m_entry_id>
1864

> <s_m_entry_name>
wee1_decoys_glide_SP.1589

> <s_m_subgroup_title>
wee1_decoys_glide_SP

> <s_m_subgroupid>
wee1_decoys_glide_SP


$$$$
