@<TRIPOS>MOLECULE
ZINC38547922_171
57   61    1
SMALL
USER_CHARGES


@<TRIPOS>ATOM
      1 C1          0.8455   51.2528   20.2558 C.3       1 UNK         0.0000 
      2 C2         -0.0168   52.3592   20.8838 C.3       1 UNK         0.0000 
      3 C3         -0.4308   52.0557   22.3083 C.2       1 UNK         0.0000 
      4 C4          0.3254   51.5075   23.3381 C.2       1 UNK         0.0000 
      5 C5         -0.3657   51.2494   24.5285 C.2       1 UNK         0.0000 
      6 C6         -1.6711   51.7302   24.4649 C.2       1 UNK         0.0000 
      7 S7         -2.0286   52.4120   22.9027 S.3       1 UNK         0.0000 
      8 N8         -2.5909   51.6141   25.5016 N.am      1 UNK         0.0000 
      9 C9         -3.8326   52.1294   25.5985 C.2       1 UNK         0.0000 
     10 O10        -4.3742   52.8620   24.7700 O.2       1 UNK         0.0000 
     11 C11        -4.5095   51.7398   26.8132 C.2       1 UNK         0.0000 
     12 C12        -4.1466   50.8914   27.8645 C.2       1 UNK         0.0000 
     13 C13        -5.2141   50.8739   28.7655 C.2       1 UNK         0.0000 
     14 C14        -6.1886   51.6975   28.2255 C.2       1 UNK         0.0000 
     15 O15        -5.7595   52.2248   27.0488 O.3       1 UNK         0.0000 
     16 C16         0.2323   50.4747   25.6936 C.3       1 UNK         0.0000 
     17 H17         1.1362   49.9898   25.3394 H         1 UNK         0.0000 
     18 C18         0.5920   51.4310   26.8478 C.ar      1 UNK         0.0000 
     19 C19         0.0144   51.2971   28.1313 C.ar      1 UNK         0.0000 
     20 C20         0.3255   52.1838   29.1729 C.ar      1 UNK         0.0000 
     21 C21         1.2158   53.2125   28.8962 C.ar      1 UNK         0.0000 
     22 C22         1.7779   53.3619   27.6602 C.ar      1 UNK         0.0000 
     23 C23         1.4961   52.4909   26.6137 C.ar      1 UNK         0.0000 
     24 O24         2.6210   54.4285   27.6748 O.3       1 UNK         0.0000 
     25 C25         2.4116   55.0642   28.9097 C.3       1 UNK         0.0000 
     26 O26         1.6923   54.1787   29.7277 O.3       1 UNK         0.0000 
     27 N27        -0.5743   49.2990   26.0817 N.pl3     1 UNK         0.0000 
     28 C28        -1.1686   48.3720   25.1793 C.ar      1 UNK         0.0000 
     29 C29        -0.8976   48.2878   23.8057 C.ar      1 UNK         0.0000 
     30 C30        -1.6387   47.4138   23.0078 C.ar      1 UNK         0.0000 
     31 C31        -2.6318   46.6204   23.5896 C.ar      1 UNK         0.0000 
     32 C32        -2.8514   46.7048   24.9690 C.ar      1 UNK         0.0000 
     33 N33        -2.1080   47.5627   25.6921 N.pl3     1 UNK         0.0000 
     34 C34        -3.9168   45.9024   25.6927 C.3       1 UNK         0.0000 
     35 H35         1.0972   51.4990   19.2241 H         1 UNK         0.0000 
     36 H36         1.7844   51.1132   20.7943 H         1 UNK         0.0000 
     37 H37         0.3248   50.2935   20.2498 H         1 UNK         0.0000 
     38 H38        -0.8957   52.4954   20.2558 H         1 UNK         0.0000 
     39 H39         0.5447   53.2937   20.8491 H         1 UNK         0.0000 
     40 H40         1.3569   51.2138   23.1910 H         1 UNK         0.0000 
     41 H41        -2.2533   51.1065   26.3072 H         1 UNK         0.0000 
     42 H42        -3.2204   50.3417   27.9714 H         1 UNK         0.0000 
     43 H43        -5.2705   50.3183   29.6906 H         1 UNK         0.0000 
     44 H44        -7.1808   51.9825   28.5451 H         1 UNK         0.0000 
     45 H45        -0.6844   50.5032   28.3424 H         1 UNK         0.0000 
     46 H46        -0.1173   52.0598   30.1512 H         1 UNK         0.0000 
     47 H47         1.9557   52.6246   25.6452 H         1 UNK         0.0000 
     48 H48         1.8246   55.9711   28.7546 H         1 UNK         0.0000 
     49 H49         3.3689   55.3212   29.3653 H         1 UNK         0.0000 
     50 H50        -0.8230   49.1816   27.0665 H         1 UNK         0.0000 
     51 H51        -0.1348   48.8962   23.3532 H         1 UNK         0.0000 
     52 H52        -1.4429   47.3601   21.9442 H         1 UNK         0.0000 
     53 H53        -3.2215   45.9632   22.9670 H         1 UNK         0.0000 
     54 H54        -4.4813   45.2636   25.0130 H         1 UNK         0.0000 
     55 H55        -3.4773   45.2820   26.4774 H         1 UNK         0.0000 
     56 H56        -4.6288   46.5780   26.1666 H         1 UNK         0.0000 
     57 H57        -2.2606   47.6254   26.6950 H         1 UNK         0.0000 
@<TRIPOS>BOND
     1    1    2 1    
     2    1   35 1    
     3    1   36 1    
     4    1   37 1    
     5    2    3 1    
     6    2   38 1    
     7    2   39 1    
     8    3    7 1    
     9    3    4 2    
    10    4    5 1    
    11    4   40 1    
    12    5    6 2    
    13    5   16 1    
    14    6    7 1    
    15    6    8 am   BACKBONE|DICT|INTERRES
    16    8    9 am   BACKBONE|DICT|INTERRES
    17    8   41 1    
    18    9   10 2    
    19    9   11 1    
    20   11   15 1    
    21   11   12 2    
    22   12   13 1    
    23   12   42 1    
    24   13   14 2    
    25   13   43 1    
    26   14   15 1    
    27   14   44 1    
    28   16   17 1    
    29   16   18 1    
    30   16   27 1    
    31   18   23 ar   
    32   18   19 ar   
    33   19   20 ar   
    34   19   45 1    
    35   20   21 ar   
    36   20   46 1    
    37   21   26 1    
    38   21   22 ar   
    39   22   23 ar   
    40   22   24 1    
    41   23   47 1    
    42   24   25 1    
    43   25   26 1    
    44   25   48 1    
    45   25   49 1    
    46   27   28 1    
    47   27   50 1    
    48   28   33 ar   
    49   28   29 ar   
    50   29   30 ar   
    51   29   51 1    
    52   30   31 ar   
    53   30   52 1    
    54   31   32 ar   
    55   31   53 1    
    56   32   33 ar   
    57   32   34 1    
    58   33   57 1    
    59   34   54 1    
    60   34   55 1    
    61   34   56 1    
@<TRIPOS>SUBSTRUCTURE
     1 UNK         1 GROUP             0       ****    0 ROOT    
