ZINC15067906_5231
                    3D
 Schrodinger Suite 2024-2.
 65 69  0  0  1  0            999 V2000
   -0.1851   52.7457   23.8210 C   0  0  0  0  0  0
    1.1342   52.1077   23.6728 N   0  0  0  0  0  0
    2.3043   53.0274   23.5233 C   0  0  2  0  0  0
    3.1658   52.4966   23.8939 H   0  0  0  0  0  0
    2.2707   54.2616   24.4814 C   0  0  0  0  0  0
    3.1598   54.0968   25.7129 C   0  0  0  0  0  0
    4.4616   54.6117   25.7134 C   0  0  0  0  0  0
    5.2766   54.4700   26.8370 C   0  0  0  0  0  0
    4.7964   53.8140   27.9695 C   0  0  0  0  0  0
    3.5007   53.2968   27.9763 C   0  0  0  0  0  0
    2.6845   53.4338   26.8527 C   0  0  0  0  0  0
    1.4317   52.9233   26.8768 F   0  0  0  0  0  0
    2.7186   53.3654   22.0470 C   0  0  2  0  0  0
    2.6873   52.1624   21.0604 C   0  0  0  0  0  0
    3.0909   52.5142   19.6212 C   0  0  0  0  0  0
    4.5606   54.3701   20.5257 C   0  0  0  0  0  0
    4.1351   53.9975   21.9600 C   0  0  0  0  0  0
    5.1156   53.4042   18.2331 C   0  0  0  0  0  0
    4.0627   53.8332   17.2313 C   0  0  0  0  0  0
    3.5780   55.0813   16.8865 C   0  0  0  0  0  0
    2.5784   54.9029   15.8768 C   0  0  0  0  0  0
    1.7363   55.7707   15.1645 C   0  0  0  0  0  0
    0.8599   55.2351   14.2209 C   0  0  0  0  0  0
    0.8110   53.8638   13.9794 C   0  0  0  0  0  0
    1.6300   52.9647   14.6651 C   0  0  0  0  0  0
    2.5079   53.5035   15.6116 C   0  0  0  0  0  0
    3.4293   52.9006   16.4414 N   0  0  0  0  0  0
    3.6398   51.9115   16.5030 H   0  0  0  0  0  0
    1.2714   50.7488   23.6136 C   0  0  0  0  0  0
    2.3044   50.1739   23.2817 O   0  0  0  0  0  0
    0.1590   49.9375   23.9988 C   0  0  0  0  0  0
   -0.8261   49.3833   23.1864 C   0  0  0  0  0  0
   -1.7673   48.6503   23.9182 C   0  0  0  0  0  0
   -1.5025   48.6621   25.2819 C   0  0  0  0  0  0
   -0.0956   49.5958   25.6800 S   0  0  0  0  0  0
   -1.0042   52.1324   23.4452 H   0  0  0  0  0  0
   -0.3808   52.9570   24.8727 H   0  0  0  0  0  0
   -0.2150   53.6898   23.2816 H   0  0  0  0  0  0
    1.2677   54.4961   24.8278 H   0  0  0  0  0  0
    2.5660   55.1728   23.9653 H   0  0  0  0  0  0
    4.8482   55.1268   24.8465 H   0  0  0  0  0  0
    6.2801   54.8699   26.8335 H   0  0  0  0  0  0
    5.4289   53.7064   28.8383 H   0  0  0  0  0  0
    3.1261   52.7834   28.8490 H   0  0  0  0  0  0
    2.0065   54.0967   21.6822 H   0  0  0  0  0  0
    3.3537   51.3767   21.4166 H   0  0  0  0  0  0
    1.6956   51.7118   21.0400 H   0  0  0  0  0  0
    2.4136   53.2432   19.1722 H   0  0  0  0  0  0
    3.1423   51.6120   19.0074 H   0  0  0  0  0  0
    3.9042   55.0853   20.0336 H   0  0  0  0  0  0
    5.5883   54.7369   20.5317 H   0  0  0  0  0  0
    4.2016   54.8928   22.5744 H   0  0  0  0  0  0
    4.8674   53.3139   22.3928 H   0  0  0  0  0  0
    5.8807   54.1683   18.3776 H   0  0  0  0  0  0
    5.6403   52.4967   17.9392 H   0  0  0  0  0  0
    3.8991   56.0143   17.3250 H   0  0  0  0  0  0
    1.7667   56.8361   15.3422 H   0  0  0  0  0  0
    0.2089   55.8944   13.6644 H   0  0  0  0  0  0
    0.1200   53.4874   13.2388 H   0  0  0  0  0  0
    1.5853   51.9031   14.4692 H   0  0  0  0  0  0
   -0.8553   49.4951   22.1123 H   0  0  0  0  0  0
   -2.6061   48.1345   23.4742 H   0  0  0  0  0  0
   -2.0530   48.1834   26.0813 H   0  0  0  0  0  0
    4.5234   53.1044   19.6441 N   0  3  2  0  0  0
    5.1244   52.4022   20.0534 H   0  0  0  0  0  0
  1  2  1  0  0  0
  1 36  1  0  0  0
  1 37  1  0  0  0
  1 38  1  0  0  0
  2  3  1  0  0  0
  2 29  1  0  0  0
  3  4  1  0  0  0
  3  5  1  0  0  0
  3 13  1  0  0  0
  5  6  1  0  0  0
  5 39  1  0  0  0
  5 40  1  0  0  0
  6 11  2  0  0  0
  6  7  1  0  0  0
  7  8  2  0  0  0
  7 41  1  0  0  0
  8  9  1  0  0  0
  8 42  1  0  0  0
  9 10  2  0  0  0
  9 43  1  0  0  0
 10 11  1  0  0  0
 10 44  1  0  0  0
 11 12  1  0  0  0
 13 17  1  0  0  0
 13 14  1  0  0  0
 13 45  1  0  0  0
 14 15  1  0  0  0
 14 46  1  0  0  0
 14 47  1  0  0  0
 15 48  1  0  0  0
 15 49  1  0  0  0
 15 64  1  0  0  0
 16 17  1  0  0  0
 16 50  1  0  0  0
 16 51  1  0  0  0
 16 64  1  0  0  0
 17 52  1  0  0  0
 17 53  1  0  0  0
 18 19  1  0  0  0
 18 54  1  0  0  0
 18 55  1  0  0  0
 18 64  1  0  0  0
 19 27  1  0  0  0
 19 20  2  0  0  0
 20 21  1  0  0  0
 20 56  1  0  0  0
 21 26  2  0  0  0
 21 22  1  0  0  0
 22 23  2  0  0  0
 22 57  1  0  0  0
 23 24  1  0  0  0
 23 58  1  0  0  0
 24 25  2  0  0  0
 24 59  1  0  0  0
 25 26  1  0  0  0
 25 60  1  0  0  0
 26 27  1  0  0  0
 27 28  1  0  0  0
 29 30  2  0  0  0
 29 31  1  0  0  0
 31 35  1  0  0  0
 31 32  2  0  0  0
 32 33  1  0  0  0
 32 61  1  0  0  0
 33 34  2  0  0  0
 33 62  1  0  0  0
 34 35  1  0  0  0
 34 63  1  0  0  0
 64 65  1  0  0  0
M  CHG  1  64   1
M  END
> <i_i_glide_confnum>
149

> <i_i_glide_lignum>
5232

> <i_i_glide_posenum>
300

> <i_i_glide_rotatable_bonds>
8

> <i_m_Source_File_Index>
5590

> <b_m_subgroup_collapsed>
0

> <r_i_docking_score>
-3.97888

> <r_i_glide_ecoul>
-1.10316

> <r_i_glide_eff_state_penalty>
0

> <r_i_glide_einternal>
19.1916

> <r_i_glide_emodel>
-35.0422

> <r_i_glide_energy>
-33.9005

> <r_i_glide_erotb>
0.624002

> <r_i_glide_esite>
-0.0802203

> <r_i_glide_evdw>
-32.7973

> <r_i_glide_gscore>
-3.97888

> <r_i_glide_hbond>
0

> <r_i_glide_ligand_efficiency>
-0.117026

> <r_i_glide_ligand_efficiency_ln>
-0.879046

> <r_i_glide_ligand_efficiency_sa>
-0.379118

> <r_i_glide_lipo>
-2.17909

> <r_i_glide_metal>
0

> <r_i_glide_rewards>
-0.538232

> <s_i_glide_gridfile>
wee1_glide-grid

> <s_m_Source_File>
wee1_decoys_glide_SP.sdf

> <s_m_Source_Path>
/Users/zhangxujun/Desktop

> <s_m_entry_id>
5865

> <s_m_entry_name>
wee1_decoys_glide_SP.5590

> <s_m_subgroup_title>
wee1_decoys_glide_SP

> <s_m_subgroupid>
wee1_decoys_glide_SP


$$$$
