@<TRIPOS>MOLECULE
ZINC39657758_335
79   82    1
SMALL
USER_CHARGES


@<TRIPOS>ATOM
      1 C1         -5.9832   51.6275   18.3122 C.3       1 UNK         0.0000 
      2 C2         -6.8197   50.3488   18.1727 C.3       1 UNK         0.0000 
      3 C3         -5.9975   49.0473   18.2068 C.3       1 UNK         0.0000 
      4 C4         -5.3402   48.7495   19.5759 C.3       1 UNK         0.0000 
      5 C5         -4.5905   47.3926   19.6887 C.3       1 UNK         0.0000 
      6 H6         -4.1833   47.3282   20.6960 H         1 UNK         0.0000 
      7 C7         -5.5582   46.1859   19.5914 C.3       1 UNK         0.0000 
      8 C8         -3.4014   47.2903   18.6924 C.2       1 UNK         0.0000 
      9 O9         -3.5394   46.6203   17.6648 O.2       1 UNK         0.0000 
     10 N10        -2.2474   47.9576   18.9477 N.am      1 UNK         0.0000 
     11 C11        -1.9062   48.6252   20.2019 C.3       1 UNK         0.0000 
     12 C12        -0.3662   48.5115   20.2464 C.3       1 UNK         0.0000 
     13 H13        -0.0956   47.5297   20.6370 H         1 UNK         0.0000 
     14 C14         0.0709   48.6077   18.7502 C.3       1 UNK         0.0000 
     15 C15        -1.0921   47.8647   18.0518 C.3       1 UNK         0.0000 
     16 C16         0.1553   50.0425   18.1284 C.3       1 UNK         0.0000 
     17 C17         1.3905   50.8834   18.5582 C.3       1 UNK         0.0000 
     18 N18         2.6904   50.0503   18.4834 N.4       1 UNK         0.0000 
     19 C19         2.6339   48.5811   18.9553 C.3       1 UNK         0.0000 
     20 C20         1.3952   47.9111   18.3552 C.3       1 UNK         0.0000 
     21 C21         0.1747   49.6000   21.1989 C.2       1 UNK         0.0000 
     22 O22        -0.3931   50.6867   21.3159 O.2       1 UNK         0.0000 
     23 N23         1.2587   49.2541   21.9137 N.am      1 UNK         0.0000 
     24 C24         2.0357   50.1001   22.8139 C.3       1 UNK         0.0000 
     25 C25         1.2077   50.7516   23.9104 C.ar      1 UNK         0.0000 
     26 C26         0.7033   49.9380   24.9336 C.ar      1 UNK         0.0000 
     27 C27        -0.0945   50.4792   25.9394 C.ar      1 UNK         0.0000 
     28 C28        -0.3987   51.8379   25.9233 C.ar      1 UNK         0.0000 
     29 C29         0.1061   52.6511   24.9080 C.ar      1 UNK         0.0000 
     30 C30         0.9295   52.1285   23.9152 C.ar      1 UNK         0.0000 
     31 S31         1.5043   53.2193   22.6327 S.3       1 UNK         0.0000 
     32 C32         3.1516   53.6706   23.1203 C.ar      1 UNK         0.0000 
     33 C33         3.3727   54.0921   24.4368 C.ar      1 UNK         0.0000 
     34 C34         4.6409   54.4968   24.8507 C.ar      1 UNK         0.0000 
     35 C35         5.6990   54.4941   23.9452 C.ar      1 UNK         0.0000 
     36 C36         5.4861   54.0852   22.6291 C.ar      1 UNK         0.0000 
     37 C37         4.2197   53.6668   22.1978 C.ar      1 UNK         0.0000 
     38 C38         4.0668   53.2347   20.7339 C.3       1 UNK         0.0000 
     39 O39         4.5568   51.9249   20.4835 O.3       1 UNK         0.0000 
     40 H40        -6.6203   52.5068   18.2190 H         1 UNK         0.0000 
     41 H41        -5.2174   51.6903   17.5395 H         1 UNK         0.0000 
     42 H42        -5.4905   51.6848   19.2820 H         1 UNK         0.0000 
     43 H43        -7.5825   50.3224   18.9519 H         1 UNK         0.0000 
     44 H44        -7.3629   50.3916   17.2283 H         1 UNK         0.0000 
     45 H45        -6.6603   48.2237   17.9395 H         1 UNK         0.0000 
     46 H46        -5.2389   49.0790   17.4240 H         1 UNK         0.0000 
     47 H47        -4.6513   49.5561   19.8264 H         1 UNK         0.0000 
     48 H48        -6.1061   48.7872   20.3521 H         1 UNK         0.0000 
     49 H49        -5.0397   45.2449   19.7837 H         1 UNK         0.0000 
     50 H50        -6.3669   46.2654   20.3200 H         1 UNK         0.0000 
     51 H51        -6.0159   46.0990   18.6048 H         1 UNK         0.0000 
     52 H52        -2.1951   49.6700   20.0764 H         1 UNK         0.0000 
     53 H53        -2.3236   48.1896   21.1093 H         1 UNK         0.0000 
     54 H54        -0.8340   46.8034   18.0329 H         1 UNK         0.0000 
     55 H55        -1.2565   48.1505   17.0118 H         1 UNK         0.0000 
     56 H56         0.1840   49.9678   17.0401 H         1 UNK         0.0000 
     57 H57        -0.7603   50.5986   18.3364 H         1 UNK         0.0000 
     58 H58         1.5495   51.7399   17.9016 H         1 UNK         0.0000 
     59 H59         1.3517   51.2694   19.5746 H         1 UNK         0.0000 
     60 H60         3.0173   49.9795   17.5167 H         1 UNK         0.0000 
     61 H61         3.5389   48.1038   18.5768 H         1 UNK         0.0000 
     62 H62         2.6854   48.5710   20.0363 H         1 UNK         0.0000 
     63 H63         1.3781   46.8676   18.6725 H         1 UNK         0.0000 
     64 H64         1.4999   47.8676   17.2682 H         1 UNK         0.0000 
     65 H65         1.6337   48.3298   21.7740 H         1 UNK         0.0000 
     66 H66         2.7962   49.4752   23.2823 H         1 UNK         0.0000 
     67 H67         2.6081   50.8164   22.2261 H         1 UNK         0.0000 
     68 H68         0.9201   48.8787   24.9466 H         1 UNK         0.0000 
     69 H69        -0.4855   49.8407   26.7219 H         1 UNK         0.0000 
     70 H70        -1.0315   52.2563   26.6916 H         1 UNK         0.0000 
     71 H71        -0.1428   53.6965   24.8817 H         1 UNK         0.0000 
     72 H72         2.5581   54.1102   25.1459 H         1 UNK         0.0000 
     73 H73         4.8003   54.8164   25.8699 H         1 UNK         0.0000 
     74 H74         6.6834   54.8141   24.2572 H         1 UNK         0.0000 
     75 H75         6.3124   54.0963   21.9354 H         1 UNK         0.0000 
     76 H76         3.0338   53.2969   20.3947 H         1 UNK         0.0000 
     77 H77         4.6170   53.9346   20.1034 H         1 UNK         0.0000 
     78 H78         4.9313   51.8805   19.5937 H         1 UNK         0.0000 
     79 H79         3.4569   50.5217   18.9460 H         1 UNK         0.0000 
@<TRIPOS>BOND
     1    1    2 1    
     2    1   40 1    
     3    1   41 1    
     4    1   42 1    
     5    2    3 1    
     6    2   43 1    
     7    2   44 1    
     8    3    4 1    
     9    3   45 1    
    10    3   46 1    
    11    4    5 1    
    12    4   47 1    
    13    4   48 1    
    14    5    6 1    
    15    5    7 1    
    16    5    8 1    
    17    7   49 1    
    18    7   50 1    
    19    7   51 1    
    20    8    9 2    
    21    8   10 am   BACKBONE|DICT|INTERRES
    22   10   15 1    
    23   10   11 1    
    24   11   12 1    
    25   11   52 1    
    26   11   53 1    
    27   12   13 1    
    28   12   14 1    
    29   12   21 1    
    30   14   20 1    
    31   14   15 1    
    32   14   16 1    
    33   15   54 1    
    34   15   55 1    
    35   16   17 1    
    36   16   56 1    
    37   16   57 1    
    38   17   18 1    
    39   17   58 1    
    40   17   59 1    
    41   18   19 1    
    42   18   60 1    
    43   18   79 1    
    44   19   20 1    
    45   19   61 1    
    46   19   62 1    
    47   20   63 1    
    48   20   64 1    
    49   21   22 2    
    50   21   23 am   BACKBONE|DICT|INTERRES
    51   23   24 1    
    52   23   65 1    
    53   24   25 1    
    54   24   66 1    
    55   24   67 1    
    56   25   30 ar   
    57   25   26 ar   
    58   26   27 ar   
    59   26   68 1    
    60   27   28 ar   
    61   27   69 1    
    62   28   29 ar   
    63   28   70 1    
    64   29   30 ar   
    65   29   71 1    
    66   30   31 1    
    67   31   32 1    
    68   32   37 ar   
    69   32   33 ar   
    70   33   34 ar   
    71   33   72 1    
    72   34   35 ar   
    73   34   73 1    
    74   35   36 ar   
    75   35   74 1    
    76   36   37 ar   
    77   36   75 1    
    78   37   38 1    
    79   38   39 1    
    80   38   76 1    
    81   38   77 1    
    82   39   78 1    
@<TRIPOS>SUBSTRUCTURE
     1 UNK         1 GROUP             0       ****    0 ROOT    
