@<TRIPOS>MOLECULE
ZINC27107188_2718
51   54    1
SMALL
USER_CHARGES


@<TRIPOS>ATOM
      1 C1          0.8389   52.8078   24.8139 C.3       1 UNK         0.0000 
      2 C2          1.8806   53.2142   25.8508 C.ar      1 UNK         0.0000 
      3 C3          3.1335   53.7694   25.5093 C.ar      1 UNK         0.0000 
      4 C4          4.0284   54.0829   26.5486 C.ar      1 UNK         0.0000 
      5 C5          3.6352   53.8256   27.8651 C.ar      1 UNK         0.0000 
      6 C6          4.1929   53.9806   29.1634 C.ar      1 UNK         0.0000 
      7 N7          3.3558   53.5765   30.0816 N.2       1 UNK         0.0000 
      8 N8          2.2298   53.1492   29.4654 N.pl3     1 UNK         0.0000 
      9 C9          2.3550   53.2767   28.0872 C.ar      1 UNK         0.0000 
     10 N10         1.4772   52.9740   27.1291 N.ar      1 UNK         0.0000 
     11 C11         1.0910   52.7445   30.3085 C.3       1 UNK         0.0000 
     12 C12         0.1698   51.7205   29.6178 C.3       1 UNK         0.0000 
     13 C13         0.3174   53.9903   30.7801 C.3       1 UNK         0.0000 
     14 C14         3.5150   54.1030   24.0852 C.2       1 UNK         0.0000 
     15 O15         2.6634   54.4967   23.2860 O.2       1 UNK         0.0000 
     16 N16         4.8330   53.9799   23.7988 N.am      1 UNK         0.0000 
     17 N17         5.3640   54.4924   22.6124 N.am      1 UNK         0.0000 
     18 C18         5.1042   53.9541   21.4027 C.2       1 UNK         0.0000 
     19 O19         4.5122   52.8896   21.2090 O.2       1 UNK         0.0000 
     20 C20         5.5938   54.7597   20.3143 C.2       1 UNK         0.0000 
     21 C21         5.0631   54.8628   19.0329 C.2       1 UNK         0.0000 
     22 C22         5.7620   55.7692   18.2257 C.2       1 UNK         0.0000 
     23 C23         6.8854   56.3114   18.8447 C.2       1 UNK         0.0000 
     24 S24         7.0611   55.6973   20.4609 S.3       1 UNK         0.0000 
     25 C25         7.8644   57.3159   18.3463 C.ar      1 UNK         0.0000 
     26 C26         7.3986   58.4893   17.7497 C.ar      1 UNK         0.0000 
     27 C27         8.3046   59.4582   17.3265 C.ar      1 UNK         0.0000 
     28 C28         9.6717   59.2516   17.4915 C.ar      1 UNK         0.0000 
     29 C29        10.1426   58.0716   18.0609 C.ar      1 UNK         0.0000 
     30 C30         9.2395   57.0982   18.4830 C.ar      1 UNK         0.0000 
     31 F31        10.5459   60.2071   17.1027 F         1 UNK         0.0000 
     32 H32         1.3041   52.2520   23.9986 H         1 UNK         0.0000 
     33 H33         0.0574   52.1693   25.2312 H         1 UNK         0.0000 
     34 H34         0.3621   53.6937   24.3942 H         1 UNK         0.0000 
     35 H35         4.9926   54.5307   26.3550 H         1 UNK         0.0000 
     36 H36         5.1627   54.3794   29.4264 H         1 UNK         0.0000 
     37 H37         1.5079   52.2569   31.1952 H         1 UNK         0.0000 
     38 H38        -0.5457   51.3011   30.3276 H         1 UNK         0.0000 
     39 H39         0.7406   50.8966   29.1917 H         1 UNK         0.0000 
     40 H40        -0.4116   52.1750   28.8144 H         1 UNK         0.0000 
     41 H41        -0.4540   53.7112   31.4998 H         1 UNK         0.0000 
     42 H42         0.9683   54.7137   31.2720 H         1 UNK         0.0000 
     43 H43        -0.1673   54.4952   29.9445 H         1 UNK         0.0000 
     44 H44         5.4373   53.3077   24.2436 H         1 UNK         0.0000 
     45 H45         5.7647   55.4142   22.7285 H         1 UNK         0.0000 
     46 H46         4.1747   54.3398   18.7074 H         1 UNK         0.0000 
     47 H47         5.4706   56.0137   17.2143 H         1 UNK         0.0000 
     48 H48         6.3395   58.6753   17.6403 H         1 UNK         0.0000 
     49 H49         7.9376   60.3741   16.8845 H         1 UNK         0.0000 
     50 H50        11.2036   57.9130   18.1811 H         1 UNK         0.0000 
     51 H51         9.6139   56.1881   18.9294 H         1 UNK         0.0000 
@<TRIPOS>BOND
     1    1    2 1    
     2    1   32 1    
     3    1   33 1    
     4    1   34 1    
     5    2   10 ar   
     6    2    3 ar   
     7    3    4 ar   
     8    3   14 1    
     9    4    5 ar   
    10    4   35 1    
    11    5    9 ar   
    12    5    6 ar   
    13    6    7 ar   
    14    6   36 1    
    15    7    8 ar   
    16    8    9 ar   
    17    8   11 1    
    18    9   10 ar   
    19   11   12 1    
    20   11   13 1    
    21   11   37 1    
    22   12   38 1    
    23   12   39 1    
    24   12   40 1    
    25   13   41 1    
    26   13   42 1    
    27   13   43 1    
    28   14   15 2    
    29   14   16 am   BACKBONE|DICT|INTERRES
    30   16   17 1    
    31   16   44 1    
    32   17   18 am   BACKBONE|DICT|INTERRES
    33   17   45 1    
    34   18   19 2    
    35   18   20 1    
    36   20   24 1    
    37   20   21 2    
    38   21   22 1    
    39   21   46 1    
    40   22   23 2    
    41   22   47 1    
    42   23   24 1    
    43   23   25 1    
    44   25   30 ar   
    45   25   26 ar   
    46   26   27 ar   
    47   26   48 1    
    48   27   28 ar   
    49   27   49 1    
    50   28   29 ar   
    51   28   31 1    
    52   29   30 ar   
    53   29   50 1    
    54   30   51 1    
@<TRIPOS>SUBSTRUCTURE
     1 UNK         1 GROUP             0       ****    0 ROOT    
