@<TRIPOS>MOLECULE
ZINC08451820_4616
62   65    1
SMALL
USER_CHARGES


@<TRIPOS>ATOM
      1 C1          1.9368   53.8884   27.7825 C.3       1 UNK         0.0000 
      2 C2          3.4260   54.0958   27.5751 C.ar      1 UNK         0.0000 
      3 C3          4.2737   54.2114   28.6760 C.ar      1 UNK         0.0000 
      4 C4          5.6419   54.3898   28.4814 C.ar      1 UNK         0.0000 
      5 C5          6.1725   54.4534   27.1961 C.ar      1 UNK         0.0000 
      6 C6          5.3384   54.3463   26.0823 C.ar      1 UNK         0.0000 
      7 C7          3.9566   54.1576   26.2831 C.ar      1 UNK         0.0000 
      8 N8          5.9739   54.4381   24.8301 N.am      1 UNK         0.0000 
      9 C9          5.4257   54.4947   23.6017 C.2       1 UNK         0.0000 
     10 O10         4.2143   54.4769   23.3729 O.2       1 UNK         0.0000 
     11 C11         6.4515   54.6349   22.4552 C.3       1 UNK         0.0000 
     12 N12         5.8300   54.6411   21.1049 N.am      1 UNK         0.0000 
     13 C13         5.1042   53.6278   20.5828 C.2       1 UNK         0.0000 
     14 O14         4.9677   52.5026   21.0685 O.2       1 UNK         0.0000 
     15 C15         4.5197   54.2197   19.4115 C.2       1 UNK         0.0000 
     16 C16         3.5259   53.7054   18.6412 C.2       1 UNK         0.0000 
     17 C17         2.6894   52.4958   18.8154 C.ar      1 UNK         0.0000 
     18 C18         2.3052   51.7616   17.6917 C.ar      1 UNK         0.0000 
     19 C19         1.5303   50.6093   17.8230 C.ar      1 UNK         0.0000 
     20 C20         1.1430   50.1506   19.0914 C.ar      1 UNK         0.0000 
     21 C21         1.5082   50.8859   20.2273 C.ar      1 UNK         0.0000 
     22 C22         2.2458   52.0706   20.0704 C.ar      1 UNK         0.0000 
     23 O23         1.1318   50.3867   21.4625 O.3       1 UNK         0.0000 
     24 C24         1.7899   50.8815   22.6220 C.3       1 UNK         0.0000 
     25 O25         0.4233   48.9908   19.3039 O.3       1 UNK         0.0000 
     26 C26         0.0932   48.1419   18.2122 C.3       1 UNK         0.0000 
     27 C27        -0.5898   46.9093   18.7803 C.ar      1 UNK         0.0000 
     28 C28        -1.8894   47.0087   19.2822 C.ar      1 UNK         0.0000 
     29 C29        -2.5015   45.9030   19.8670 C.ar      1 UNK         0.0000 
     30 C30        -1.8166   44.6922   19.9538 C.ar      1 UNK         0.0000 
     31 C31        -0.5149   44.5683   19.4441 C.ar      1 UNK         0.0000 
     32 C32         0.0878   45.6876   18.8500 C.ar      1 UNK         0.0000 
     33 C33         0.2232   43.2718   19.5508 C.2       1 UNK         0.0000 
     34 O34         1.1039   43.0160   18.7027 O.co2     1 UNK         0.0000 
     35 N35         5.1579   55.3813   19.2321 N.am      1 UNK         0.0000 
     36 C36         5.9329   55.6995   20.2733 C.2       1 UNK         0.0000 
     37 O37         6.6534   56.6944   20.3854 O.2       1 UNK         0.0000 
     38 H38         1.7595   53.1764   28.5901 H         1 UNK         0.0000 
     39 H39         1.4593   53.4774   26.8911 H         1 UNK         0.0000 
     40 H40         1.4532   54.8296   28.0453 H         1 UNK         0.0000 
     41 H41         3.8768   54.1690   29.6807 H         1 UNK         0.0000 
     42 H42         6.3033   54.4970   29.3269 H         1 UNK         0.0000 
     43 H43         7.2375   54.5913   27.0826 H         1 UNK         0.0000 
     44 H44         3.2724   54.0561   25.4576 H         1 UNK         0.0000 
     45 H45         6.9794   54.4814   24.8657 H         1 UNK         0.0000 
     46 H46         6.9998   55.5639   22.6251 H         1 UNK         0.0000 
     47 H47         7.2008   53.8481   22.5161 H         1 UNK         0.0000 
     48 H48         3.2488   54.2911   17.7755 H         1 UNK         0.0000 
     49 H49         2.6334   52.0610   16.7069 H         1 UNK         0.0000 
     50 H50         1.2792   50.0632   16.9281 H         1 UNK         0.0000 
     51 H51         2.4876   52.6704   20.9336 H         1 UNK         0.0000 
     52 H52         1.5431   50.2522   23.4783 H         1 UNK         0.0000 
     53 H53         2.8716   50.8563   22.4860 H         1 UNK         0.0000 
     54 H54         1.4813   51.9015   22.8552 H         1 UNK         0.0000 
     55 H55        -0.5799   48.6519   17.5207 H         1 UNK         0.0000 
     56 H56         0.9871   47.8556   17.6547 H         1 UNK         0.0000 
     57 H57        -2.4187   47.9508   19.2380 H         1 UNK         0.0000 
     58 H58        -3.5027   45.9897   20.2632 H         1 UNK         0.0000 
     59 H59        -2.3072   43.8484   20.4192 H         1 UNK         0.0000 
     60 H60         1.0967   45.6155   18.4671 H         1 UNK         0.0000 
     61 H61         5.0876   55.9388   18.3937 H         1 UNK         0.0000 
     62 O62        -0.0956   42.4968   20.4821 O.co2     1 UNK         0.0000 
@<TRIPOS>BOND
     1    1    2 1    
     2    1   38 1    
     3    1   39 1    
     4    1   40 1    
     5    2    7 ar   
     6    2    3 ar   
     7    3    4 ar   
     8    3   41 1    
     9    4    5 ar   
    10    4   42 1    
    11    5    6 ar   
    12    5   43 1    
    13    6    7 ar   
    14    6    8 1    
    15    7   44 1    
    16    8    9 am   BACKBONE|DICT|INTERRES
    17    8   45 1    
    18    9   10 2    
    19    9   11 1    
    20   11   12 1    
    21   11   46 1    
    22   11   47 1    
    23   12   36 am   BACKBONE|DICT|INTERRES
    24   12   13 am   BACKBONE|DICT|INTERRES
    25   13   14 2    
    26   13   15 1    
    27   15   16 2    
    28   15   35 1    
    29   16   17 1    
    30   16   48 1    
    31   17   22 ar   
    32   17   18 ar   
    33   18   19 ar   
    34   18   49 1    
    35   19   20 ar   
    36   19   50 1    
    37   20   21 ar   
    38   20   25 1    
    39   21   22 ar   
    40   21   23 1    
    41   22   51 1    
    42   23   24 1    
    43   24   52 1    
    44   24   53 1    
    45   24   54 1    
    46   25   26 1    
    47   26   27 1    
    48   26   55 1    
    49   26   56 1    
    50   27   32 ar   
    51   27   28 ar   
    52   28   29 ar   
    53   28   57 1    
    54   29   30 ar   
    55   29   58 1    
    56   30   31 ar   
    57   30   59 1    
    58   31   32 ar   
    59   31   33 1    
    60   32   60 1    
    61   33   34 2    
    62   33   62 1    
    63   35   36 am   BACKBONE|DICT|INTERRES
    64   35   61 1    
    65   36   37 2    
@<TRIPOS>SUBSTRUCTURE
     1 UNK         1 GROUP             0       ****    0 ROOT    
