@<TRIPOS>MOLECULE
ZINC08242675_2650
40   42    1
SMALL
USER_CHARGES


@<TRIPOS>ATOM
      1 C1          6.3046   53.3431   18.4591 C.3       1 UNK         0.0000 
      2 C2          5.2008   54.3756   18.7253 C.3       1 UNK         0.0000 
      3 H3          4.2643   53.8769   18.4808 H         1 UNK         0.0000 
      4 C4          5.2169   54.8239   20.2041 C.2       1 UNK         0.0000 
      5 O5          5.9045   55.7882   20.5595 O.2       1 UNK         0.0000 
      6 N6          4.4476   54.0960   21.0473 N.am      1 UNK         0.0000 
      7 N7          4.3731   54.4162   22.4149 N.am      1 UNK         0.0000 
      8 C8          5.3239   53.9406   23.2547 C.2       1 UNK         0.0000 
      9 O9          6.3045   53.2972   22.8817 O.2       1 UNK         0.0000 
     10 C10         5.1560   54.2278   24.7283 C.ar      1 UNK         0.0000 
     11 C11         6.3032   54.3328   25.5499 C.ar      1 UNK         0.0000 
     12 C12         6.1968   54.4749   26.9405 C.ar      1 UNK         0.0000 
     13 C13         4.9193   54.4967   27.4851 C.ar      1 UNK         0.0000 
     14 C14         3.8032   54.4223   26.7031 C.ar      1 UNK         0.0000 
     15 C15         3.8777   54.2994   25.3196 C.ar      1 UNK         0.0000 
     16 O16         2.6973   54.4964   27.4878 O.3       1 UNK         0.0000 
     17 C17         3.1588   54.4512   28.8115 C.3       1 UNK         0.0000 
     18 O18         4.5518   54.6218   28.7875 O.3       1 UNK         0.0000 
     19 O19         5.5122   55.4884   17.8785 O.3       1 UNK         0.0000 
     20 C20         4.5265   56.2785   17.3181 C.ar      1 UNK         0.0000 
     21 C21         4.9514   57.4933   16.7756 C.ar      1 UNK         0.0000 
     22 C22         4.0472   58.3633   16.1684 C.ar      1 UNK         0.0000 
     23 C23         2.7008   58.0176   16.0824 C.ar      1 UNK         0.0000 
     24 C24         2.2609   56.8045   16.6092 C.ar      1 UNK         0.0000 
     25 C25         3.1648   55.9412   17.2313 C.ar      1 UNK         0.0000 
     26 Br26        0.4128   56.3524   16.5442 Br        1 UNK         0.0000 
     27 H27         6.1886   52.4625   19.0904 H         1 UNK         0.0000 
     28 H28         6.2749   53.0012   17.4238 H         1 UNK         0.0000 
     29 H29         7.2983   53.7568   18.6391 H         1 UNK         0.0000 
     30 H30         3.8840   53.3007   20.7819 H         1 UNK         0.0000 
     31 H31         3.4293   54.6239   22.7052 H         1 UNK         0.0000 
     32 H32         7.2884   54.2764   25.1078 H         1 UNK         0.0000 
     33 H33         7.0761   54.5453   27.5644 H         1 UNK         0.0000 
     34 H34         2.9726   54.2143   24.7364 H         1 UNK         0.0000 
     35 H35         2.9241   53.4727   29.2350 H         1 UNK         0.0000 
     36 H36         2.6907   55.2444   29.3955 H         1 UNK         0.0000 
     37 H37         5.9933   57.7705   16.8374 H         1 UNK         0.0000 
     38 H38         4.3897   59.3092   15.7750 H         1 UNK         0.0000 
     39 H39         1.9978   58.6995   15.6268 H         1 UNK         0.0000 
     40 H40         2.7752   55.0209   17.6335 H         1 UNK         0.0000 
@<TRIPOS>BOND
     1    1    2 1    
     2    1   27 1    
     3    1   28 1    
     4    1   29 1    
     5    2    3 1    
     6    2    4 1    
     7    2   19 1    
     8    4    5 2    
     9    4    6 am   BACKBONE|DICT|INTERRES
    10    6    7 1    
    11    6   30 1    
    12    7    8 am   BACKBONE|DICT|INTERRES
    13    7   31 1    
    14    8    9 2    
    15    8   10 1    
    16   10   15 ar   
    17   10   11 ar   
    18   11   12 ar   
    19   11   32 1    
    20   12   13 ar   
    21   12   33 1    
    22   13   18 1    
    23   13   14 ar   
    24   14   15 ar   
    25   14   16 1    
    26   15   34 1    
    27   16   17 1    
    28   17   18 1    
    29   17   35 1    
    30   17   36 1    
    31   19   20 1    
    32   20   25 ar   
    33   20   21 ar   
    34   21   22 ar   
    35   21   37 1    
    36   22   23 ar   
    37   22   38 1    
    38   23   24 ar   
    39   23   39 1    
    40   24   25 ar   
    41   24   26 1    
    42   25   40 1    
@<TRIPOS>SUBSTRUCTURE
     1 UNK         1 GROUP             0       ****    0 ROOT    
