ZINC40377042_1588
                    3D
 Schrodinger Suite 2024-2.
 35 35  0  0  1  0            999 V2000
    5.7936   54.4201   28.4817 C   0  0  0  0  0  0
    5.0466   54.3078   27.1677 C   0  0  0  0  0  0
    5.7957   54.2111   25.9901 C   0  0  0  0  0  0
    5.1647   54.0967   24.7549 C   0  0  0  0  0  0
    3.7768   54.0293   24.6897 C   0  0  0  0  0  0
    3.0217   54.1003   25.8583 C   0  0  0  0  0  0
    3.6396   54.3006   27.1001 C   0  0  0  0  0  0
    2.5894   54.6631   28.5293 S   0  0  0  0  0  0
    2.3044   56.0967   28.4860 O   0  0  0  0  0  0
    3.1887   54.0744   29.7324 O   0  0  0  0  0  0
    1.0392   53.9034   28.2061 N   0  0  0  0  0  0
    0.6186   52.5753   28.7209 C   0  0  0  0  0  0
   -0.4167   52.0570   27.6863 C   0  0  0  0  0  0
    1.8110   51.5879   28.7152 C   0  0  0  0  0  0
    0.0072   52.6902   30.1639 C   0  0  0  0  0  0
    0.3994   53.6626   30.8995 N   0  0  0  0  0  0
   -0.0956   53.6967   32.2260 O   0  0  0  0  0  0
   -0.8956   51.6967   30.4817 N   0  0  0  0  0  0
    5.9008   54.0279   23.6232 F   0  0  0  0  0  0
    6.8721   54.4967   28.3427 H   0  0  0  0  0  0
    5.4702   55.2967   29.0430 H   0  0  0  0  0  0
    5.5963   53.5388   29.0906 H   0  0  0  0  0  0
    6.8742   54.2259   26.0226 H   0  0  0  0  0  0
    3.2888   53.9229   23.7321 H   0  0  0  0  0  0
    1.9456   54.0740   25.7765 H   0  0  0  0  0  0
    0.2841   54.5442   27.9553 H   0  0  0  0  0  0
   -0.7612   51.0445   27.9065 H   0  0  0  0  0  0
   -1.2956   52.6979   27.6338 H   0  0  0  0  0  0
    0.0099   52.0206   26.6825 H   0  0  0  0  0  0
    1.4826   50.5622   28.8589 H   0  0  0  0  0  0
    2.3433   51.6150   27.7642 H   0  0  0  0  0  0
    2.5354   51.7788   29.5045 H   0  0  0  0  0  0
   -0.5947   52.8688   32.3363 H   0  0  0  0  0  0
   -1.2956   51.6335   31.4214 H   0  0  0  0  0  0
   -1.0676   50.9228   29.8544 H   0  0  0  0  0  0
  1  2  1  0  0  0
  1 20  1  0  0  0
  1 21  1  0  0  0
  1 22  1  0  0  0
  2  7  2  0  0  0
  2  3  1  0  0  0
  3  4  2  0  0  0
  3 23  1  0  0  0
  4  5  1  0  0  0
  4 19  1  0  0  0
  5  6  2  0  0  0
  5 24  1  0  0  0
  6  7  1  0  0  0
  6 25  1  0  0  0
  7  8  1  0  0  0
  8  9  2  0  0  0
  8 10  2  0  0  0
  8 11  1  0  0  0
 11 12  1  0  0  0
 11 26  1  0  0  0
 12 13  1  0  0  0
 12 14  1  0  0  0
 12 15  1  0  0  0
 13 27  1  0  0  0
 13 28  1  0  0  0
 13 29  1  0  0  0
 14 30  1  0  0  0
 14 31  1  0  0  0
 14 32  1  0  0  0
 15 16  2  0  0  0
 15 18  1  0  0  0
 16 17  1  0  0  0
 17 33  1  0  0  0
 18 34  1  0  0  0
 18 35  1  0  0  0
M  END
> <i_i_glide_confnum>
105

> <i_i_glide_lignum>
1589

> <i_i_glide_posenum>
373

> <i_i_glide_rotatable_bonds>
5

> <i_m_Source_File_Index>
2069

> <b_m_subgroup_collapsed>
0

> <r_i_docking_score>
-6.49193

> <r_i_glide_ecoul>
-11.5841

> <r_i_glide_eff_state_penalty>
0

> <r_i_glide_einternal>
6.69654

> <r_i_glide_emodel>
-56.3346

> <r_i_glide_energy>
-42.588

> <r_i_glide_erotb>
1.08751

> <r_i_glide_esite>
-0.23292

> <r_i_glide_evdw>
-31.0038

> <r_i_glide_gscore>
-6.49193

> <r_i_glide_hbond>
-0.304

> <r_i_glide_ligand_efficiency>
-0.34168

> <r_i_glide_ligand_efficiency_ln>
-1.64584

> <r_i_glide_ligand_efficiency_sa>
-0.911741

> <r_i_glide_lipo>
-1.92125

> <r_i_glide_metal>
0

> <r_i_glide_rewards>
-1.83345

> <s_i_glide_gridfile>
wee1_glide-grid

> <s_m_Source_File>
wee1_decoys_glide_SP.sdf

> <s_m_Source_Path>
/Users/zhangxujun/Desktop

> <s_m_entry_id>
2344

> <s_m_entry_name>
wee1_decoys_glide_SP.2069

> <s_m_subgroup_title>
wee1_decoys_glide_SP

> <s_m_subgroupid>
wee1_decoys_glide_SP


$$$$
