@<TRIPOS>MOLECULE
ZINC17244900_3264
59   62    1
SMALL
USER_CHARGES


@<TRIPOS>ATOM
      1 C1          7.3877   49.8842   12.0152 C.3       1 UNK         0.0000 
      2 C2          8.2459   50.7190   12.9791 C.3       1 UNK         0.0000 
      3 H3          8.8327   51.4353   12.3969 H         1 UNK         0.0000 
      4 C4          9.2418   49.8381   13.7740 C.3       1 UNK         0.0000 
      5 C5         10.1262   50.6830   14.7228 C.3       1 UNK         0.0000 
      6 H6         10.6736   51.4065   14.1132 H         1 UNK         0.0000 
      7 C7          9.2129   51.4717   15.6877 C.3       1 UNK         0.0000 
      8 N8          8.2299   52.2713   14.9170 N.pl3     1 UNK         0.0000 
      9 C9          7.3696   51.5290   13.9641 C.3       1 UNK         0.0000 
     10 S10         8.2589   54.0397   14.9629 S.o2      1 UNK         0.0000 
     11 O11         7.2223   54.5511   14.0600 O.2       1 UNK         0.0000 
     12 O12         9.6540   54.4701   14.8184 O.2       1 UNK         0.0000 
     13 C13         7.7430   54.4416   16.6300 C.ar      1 UNK         0.0000 
     14 C14         6.4022   54.3004   16.9869 C.ar      1 UNK         0.0000 
     15 C15         5.9965   54.5820   18.2889 C.ar      1 UNK         0.0000 
     16 C16         6.9338   55.0121   19.2409 C.ar      1 UNK         0.0000 
     17 C17         8.2748   55.1675   18.8635 C.ar      1 UNK         0.0000 
     18 C18         8.6803   54.8738   17.5667 C.ar      1 UNK         0.0000 
     19 C19         6.5450   55.2972   20.6702 C.2       1 UNK         0.0000 
     20 O20         7.1038   56.2088   21.2817 O.2       1 UNK         0.0000 
     21 N21         5.5764   54.5121   21.1895 N.am      1 UNK         0.0000 
     22 C22         5.1966   54.4715   22.5203 C.2       1 UNK         0.0000 
     23 N23         3.9955   54.0964   22.8507 N.2       1 UNK         0.0000 
     24 C24         3.8402   54.0763   24.2011 C.ar      1 UNK         0.0000 
     25 C25         2.6563   53.7261   24.8628 C.ar      1 UNK         0.0000 
     26 C26         2.6563   53.6986   26.2577 C.ar      1 UNK         0.0000 
     27 C27         3.8098   53.9973   26.9995 C.ar      1 UNK         0.0000 
     28 C28         4.9861   54.3886   26.3543 C.ar      1 UNK         0.0000 
     29 C29         4.9952   54.4167   24.9535 C.ar      1 UNK         0.0000 
     30 S30         6.3050   54.8056   23.8535 S.3       1 UNK         0.0000 
     31 N31         3.8667   53.9652   28.4024 N.am      1 UNK         0.0000 
     32 C32         3.2289   53.1673   29.2828 C.2       1 UNK         0.0000 
     33 O33         3.4486   53.2969   30.4817 O.2       1 UNK         0.0000 
     34 C34         2.2646   52.0670   28.8441 C.3       1 UNK         0.0000 
     35 C35        11.1365   49.8110   15.4869 C.3       1 UNK         0.0000 
     36 H36         6.8019   49.1360   12.5504 H         1 UNK         0.0000 
     37 H37         6.6899   50.5111   11.4593 H         1 UNK         0.0000 
     38 H38         8.0076   49.3618   11.2881 H         1 UNK         0.0000 
     39 H39         9.8717   49.2658   13.0915 H         1 UNK         0.0000 
     40 H40         8.7044   49.0735   14.3400 H         1 UNK         0.0000 
     41 H41         9.8019   52.1420   16.3158 H         1 UNK         0.0000 
     42 H42         8.6561   50.8149   16.3564 H         1 UNK         0.0000 
     43 H43         6.7049   50.8968   14.5515 H         1 UNK         0.0000 
     44 H44         6.7366   52.2327   13.4238 H         1 UNK         0.0000 
     45 H45         5.6762   53.9631   16.2606 H         1 UNK         0.0000 
     46 H46         4.9532   54.4595   18.5408 H         1 UNK         0.0000 
     47 H47         9.0207   55.4915   19.5772 H         1 UNK         0.0000 
     48 H48         9.7225   54.9817   17.2995 H         1 UNK         0.0000 
     49 H49         4.9521   54.0536   20.5440 H         1 UNK         0.0000 
     50 H50         1.7654   53.4810   24.3047 H         1 UNK         0.0000 
     51 H51         1.7275   53.4592   26.7510 H         1 UNK         0.0000 
     52 H52         5.8778   54.6335   26.9148 H         1 UNK         0.0000 
     53 H53         4.5666   54.5603   28.8188 H         1 UNK         0.0000 
     54 H54         1.2653   52.4720   28.6804 H         1 UNK         0.0000 
     55 H55         2.1828   51.3052   29.6195 H         1 UNK         0.0000 
     56 H56         2.6043   51.5687   27.9386 H         1 UNK         0.0000 
     57 H57        10.6334   49.0815   16.1243 H         1 UNK         0.0000 
     58 H58        11.7799   49.2609   14.7999 H         1 UNK         0.0000 
     59 H59        11.7797   50.4169   16.1231 H         1 UNK         0.0000 
@<TRIPOS>BOND
     1    1    2 1    
     2    1   36 1    
     3    1   37 1    
     4    1   38 1    
     5    2    3 1    
     6    2    9 1    
     7    2    4 1    
     8    4    5 1    
     9    4   39 1    
    10    4   40 1    
    11    5    6 1    
    12    5    7 1    
    13    5   35 1    
    14    7    8 1    
    15    7   41 1    
    16    7   42 1    
    17    8    9 1    
    18    8   10 1    
    19    9   43 1    
    20    9   44 1    
    21   10   11 2    
    22   10   12 2    
    23   10   13 1    
    24   13   18 ar   
    25   13   14 ar   
    26   14   15 ar   
    27   14   45 1    
    28   15   16 ar   
    29   15   46 1    
    30   16   17 ar   
    31   16   19 1    
    32   17   18 ar   
    33   17   47 1    
    34   18   48 1    
    35   19   20 2    
    36   19   21 am   BACKBONE|DICT|INTERRES
    37   21   22 am   BACKBONE|DICT|INTERRES
    38   21   49 1    
    39   22   30 1    
    40   22   23 2    
    41   23   24 1    
    42   24   29 ar   
    43   24   25 ar   
    44   25   26 ar   
    45   25   50 1    
    46   26   27 ar   
    47   26   51 1    
    48   27   28 ar   
    49   27   31 1    
    50   28   29 ar   
    51   28   52 1    
    52   29   30 1    
    53   31   32 am   BACKBONE|DICT|INTERRES
    54   31   53 1    
    55   32   33 2    
    56   32   34 1    
    57   34   54 1    
    58   34   55 1    
    59   34   56 1    
    60   35   57 1    
    61   35   58 1    
    62   35   59 1    
@<TRIPOS>SUBSTRUCTURE
     1 UNK         1 GROUP             0       ****    0 ROOT    
