@<TRIPOS>MOLECULE
ZINC08299339_712
70   74    1
SMALL
USER_CHARGES


@<TRIPOS>ATOM
      1 C1          2.8699   55.0524   29.4378 C.3       1 UNK         0.0000 
      2 C2          2.7471   53.7217   28.6553 C.3       1 UNK         0.0000 
      3 C3          3.4593   52.5921   29.4369 C.3       1 UNK         0.0000 
      4 C4          1.2373   53.3665   28.5949 C.3       1 UNK         0.0000 
      5 C5          3.3999   53.8780   27.2584 C.ar      1 UNK         0.0000 
      6 C6          2.6777   53.6969   26.0693 C.ar      1 UNK         0.0000 
      7 C7          3.2851   53.8880   24.8316 C.ar      1 UNK         0.0000 
      8 C8          4.6332   54.2460   24.7494 C.ar      1 UNK         0.0000 
      9 C9          5.3657   54.4050   25.9300 C.ar      1 UNK         0.0000 
     10 C10         4.7557   54.2229   27.1678 C.ar      1 UNK         0.0000 
     11 C11         5.2537   54.4937   23.4074 C.ar      1 UNK         0.0000 
     12 C12         4.6600   54.4238   22.1468 C.ar      1 UNK         0.0000 
     13 N13         5.6040   54.8970   21.2744 N.pl3     1 UNK         0.0000 
     14 N14         6.7386   55.1725   21.9260 N.2       1 UNK         0.0000 
     15 N15         6.5081   54.8967   23.2609 N.2       1 UNK         0.0000 
     16 C16         5.4591   55.1081   19.8342 C.3       1 UNK         0.0000 
     17 C17         6.3330   56.2760   19.2887 C.3       1 UNK         0.0000 
     18 H18         6.2341   57.1390   19.9525 H         1 UNK         0.0000 
     19 C19         7.8414   55.9219   19.0683 C.3       1 UNK         0.0000 
     20 C20         8.2807   56.1682   17.5961 C.3       1 UNK         0.0000 
     21 H21         9.3356   55.9137   17.4622 H         1 UNK         0.0000 
     22 C22         8.0400   57.6782   17.3195 C.3       1 UNK         0.0000 
     23 C23         6.5339   58.0556   17.4939 C.3       1 UNK         0.0000 
     24 C24         5.8585   55.7164   16.8321 C.3       1 UNK         0.0000 
     25 C25         7.3689   55.3830   16.5918 C.3       1 UNK         0.0000 
     26 H26         7.6295   55.6788   15.5723 H         1 UNK         0.0000 
     27 C27         7.5622   53.8470   16.6167 C.2       1 UNK         0.0000 
     28 O28         7.4968   53.2370   17.6809 O.2       1 UNK         0.0000 
     29 N29         7.7119   53.2174   15.4377 N.am      1 UNK         0.0000 
     30 C30         7.6872   51.7608   15.2654 C.3       1 UNK         0.0000 
     31 C31         9.0515   51.0816   15.2857 C.ar      1 UNK         0.0000 
     32 C32         9.5510   50.4796   14.1261 C.ar      1 UNK         0.0000 
     33 C33        10.7483   49.7715   14.1716 C.ar      1 UNK         0.0000 
     34 C34        11.4462   49.6646   15.3710 C.ar      1 UNK         0.0000 
     35 C35        10.9538   50.2579   16.5295 C.ar      1 UNK         0.0000 
     36 C36         9.7550   50.9622   16.4884 C.ar      1 UNK         0.0000 
     37 F37        12.6004   48.9639   15.4170 F         1 UNK         0.0000 
     38 H38         2.3331   55.0160   30.3860 H         1 UNK         0.0000 
     39 H39         2.4567   55.8887   28.8705 H         1 UNK         0.0000 
     40 H40         3.9078   55.2974   29.6651 H         1 UNK         0.0000 
     41 H41         3.4106   51.6519   28.8858 H         1 UNK         0.0000 
     42 H42         4.5144   52.8104   29.6102 H         1 UNK         0.0000 
     43 H43         3.0042   52.4280   30.4143 H         1 UNK         0.0000 
     44 H44         1.0644   52.4194   28.0817 H         1 UNK         0.0000 
     45 H45         0.8072   53.2629   29.5923 H         1 UNK         0.0000 
     46 H46         0.6601   54.1376   28.0818 H         1 UNK         0.0000 
     47 H47         1.6343   53.4235   26.0787 H         1 UNK         0.0000 
     48 H48         2.6948   53.7585   23.9368 H         1 UNK         0.0000 
     49 H49         6.4098   54.6807   25.8974 H         1 UNK         0.0000 
     50 H50         5.3471   54.3622   28.0600 H         1 UNK         0.0000 
     51 H51         3.6677   54.1571   21.8122 H         1 UNK         0.0000 
     52 H52         5.6946   54.1654   19.3401 H         1 UNK         0.0000 
     53 H53         4.4019   55.2965   19.6459 H         1 UNK         0.0000 
     54 H54         8.4611   56.5085   19.7471 H         1 UNK         0.0000 
     55 H55         8.0503   54.8953   19.3707 H         1 UNK         0.0000 
     56 H56         8.3677   57.9323   16.3097 H         1 UNK         0.0000 
     57 H57         8.6517   58.2873   17.9865 H         1 UNK         0.0000 
     58 H58         6.0813   58.4029   16.5623 H         1 UNK         0.0000 
     59 H59         6.3774   58.8287   18.2494 H         1 UNK         0.0000 
     60 H60         5.2328   54.8657   17.1129 H         1 UNK         0.0000 
     61 H61         5.3948   56.1303   15.9343 H         1 UNK         0.0000 
     62 H62         7.8607   53.7653   14.6047 H         1 UNK         0.0000 
     63 H63         7.0759   51.2969   16.0452 H         1 UNK         0.0000 
     64 H64         7.1727   51.5388   14.3278 H         1 UNK         0.0000 
     65 H65         9.0073   50.5425   13.1942 H         1 UNK         0.0000 
     66 H66        11.1351   49.2975   13.2819 H         1 UNK         0.0000 
     67 H67        11.4941   50.1632   17.4602 H         1 UNK         0.0000 
     68 H68         9.3661   51.3978   17.3979 H         1 UNK         0.0000 
     69 N69         5.7337   56.7962   17.9449 N.4       1 UNK         0.0000 
     70 H70         4.7608   57.0438   18.0738 H         1 UNK         0.0000 
@<TRIPOS>BOND
     1    1    2 1    
     2    1   38 1    
     3    1   39 1    
     4    1   40 1    
     5    2    3 1    
     6    2    4 1    
     7    2    5 1    
     8    3   41 1    
     9    3   42 1    
    10    3   43 1    
    11    4   44 1    
    12    4   45 1    
    13    4   46 1    
    14    5   10 ar   
    15    5    6 ar   
    16    6    7 ar   
    17    6   47 1    
    18    7    8 ar   
    19    7   48 1    
    20    8    9 ar   
    21    8   11 1    
    22    9   10 ar   
    23    9   49 1    
    24   10   50 1    
    25   11   15 ar   
    26   11   12 ar   
    27   12   13 ar   
    28   12   51 1    
    29   13   14 ar   
    30   13   16 1    
    31   14   15 ar   
    32   16   17 1    
    33   16   52 1    
    34   16   53 1    
    35   17   18 1    
    36   17   19 1    
    37   17   69 1    
    38   19   20 1    
    39   19   54 1    
    40   19   55 1    
    41   20   21 1    
    42   20   25 1    
    43   20   22 1    
    44   22   23 1    
    45   22   56 1    
    46   22   57 1    
    47   23   58 1    
    48   23   59 1    
    49   23   69 1    
    50   24   25 1    
    51   24   60 1    
    52   24   61 1    
    53   24   69 1    
    54   25   26 1    
    55   25   27 1    
    56   27   28 2    
    57   27   29 am   BACKBONE|DICT|INTERRES
    58   29   30 1    
    59   29   62 1    
    60   30   31 1    
    61   30   63 1    
    62   30   64 1    
    63   31   36 ar   
    64   31   32 ar   
    65   32   33 ar   
    66   32   65 1    
    67   33   34 ar   
    68   33   66 1    
    69   34   35 ar   
    70   34   37 1    
    71   35   36 ar   
    72   35   67 1    
    73   36   68 1    
    74   69   70 1    
@<TRIPOS>SUBSTRUCTURE
     1 UNK         1 GROUP             0       ****    0 ROOT    
