@<TRIPOS>MOLECULE
ZINC22826119_3972
66   69    1
SMALL
USER_CHARGES


@<TRIPOS>ATOM
      1 C1         -0.0957   52.6057   31.1039 C.3       1 UNK         0.0000 
      2 C2          1.1405   53.0713   30.3694 C.ar      1 UNK         0.0000 
      3 C3          2.3756   52.4967   30.6584 C.ar      1 UNK         0.0000 
      4 C4          3.5030   52.8940   29.9509 C.ar      1 UNK         0.0000 
      5 C5          3.4035   53.8733   28.9547 C.ar      1 UNK         0.0000 
      6 C6          2.1685   54.4883   28.7109 C.ar      1 UNK         0.0000 
      7 C7          1.0350   54.0658   29.3994 C.ar      1 UNK         0.0000 
      8 C8          4.6524   54.2598   28.1994 C.2       1 UNK         0.0000 
      9 O9          5.6535   54.4964   28.8765 O.2       1 UNK         0.0000 
     10 N10         4.6609   54.2804   26.8324 N.am      1 UNK         0.0000 
     11 C11         5.9805   54.4706   26.1944 C.3       1 UNK         0.0000 
     12 C12         5.8556   54.9410   24.7298 C.3       1 UNK         0.0000 
     13 N13         4.8440   54.2491   23.9204 N.pl3     1 UNK         0.0000 
     14 C14         3.5535   54.1952   24.6182 C.3       1 UNK         0.0000 
     15 C15         3.5922   53.6282   26.0521 C.3       1 UNK         0.0000 
     16 C16         4.9349   54.0960   22.5360 C.ar      1 UNK         0.0000 
     17 C17         4.1905   53.0948   21.8969 C.ar      1 UNK         0.0000 
     18 C18         4.3153   52.8694   20.5308 C.ar      1 UNK         0.0000 
     19 C19         5.1726   53.6636   19.7754 C.ar      1 UNK         0.0000 
     20 C20         5.9038   54.6868   20.3846 C.ar      1 UNK         0.0000 
     21 C21         5.7914   54.8907   21.7574 C.ar      1 UNK         0.0000 
     22 N22         5.3646   53.2966   18.4372 N.pl3     1 UNK         0.0000 
     23 C23         5.4002   54.0157   17.2777 C.2       1 UNK         0.0000 
     24 S24         5.0762   55.6675   17.1868 S.2       1 UNK         0.0000 
     25 N25         5.7407   53.1818   16.2436 N.am      1 UNK         0.0000 
     26 C26         5.8038   53.3491   14.9015 C.2       1 UNK         0.0000 
     27 O27         5.3490   54.3044   14.2695 O.2       1 UNK         0.0000 
     28 C28         6.4191   52.1895   14.1586 C.ar      1 UNK         0.0000 
     29 C29         5.6918   51.6101   13.1114 C.ar      1 UNK         0.0000 
     30 C30         6.2245   50.5604   12.3703 C.ar      1 UNK         0.0000 
     31 C31         7.5035   50.0920   12.6507 C.ar      1 UNK         0.0000 
     32 C32         8.2553   50.6561   13.6828 C.ar      1 UNK         0.0000 
     33 C33         7.7080   51.6965   14.4623 C.ar      1 UNK         0.0000 
     34 O34         8.4485   52.2803   15.4685 O.3       1 UNK         0.0000 
     35 C35         8.5746   51.5179   16.6662 C.3       1 UNK         0.0000 
     36 C36         9.6730   50.1447   13.9010 C.3       1 UNK         0.0000 
     37 H37        -0.8948   52.3754   30.3984 H         1 UNK         0.0000 
     38 H38         0.0923   51.7007   31.6817 H         1 UNK         0.0000 
     39 H39        -0.4594   53.3820   31.7767 H         1 UNK         0.0000 
     40 H40         2.4603   51.7430   31.4280 H         1 UNK         0.0000 
     41 H41         4.4534   52.4280   30.1717 H         1 UNK         0.0000 
     42 H42         2.0769   55.2755   27.9758 H         1 UNK         0.0000 
     43 H43         0.0720   54.4980   29.1779 H         1 UNK         0.0000 
     44 H44         6.4711   53.4969   26.1421 H         1 UNK         0.0000 
     45 H45         6.6015   55.2040   26.7130 H         1 UNK         0.0000 
     46 H46         6.8346   54.8876   24.2518 H         1 UNK         0.0000 
     47 H47         5.5533   55.9886   24.7463 H         1 UNK         0.0000 
     48 H48         3.2234   55.2332   24.6772 H         1 UNK         0.0000 
     49 H49         2.7881   53.6815   24.0381 H         1 UNK         0.0000 
     50 H50         2.5895   53.7966   26.4321 H         1 UNK         0.0000 
     51 H51         3.7968   52.5633   25.9604 H         1 UNK         0.0000 
     52 H52         3.5353   52.4486   22.4598 H         1 UNK         0.0000 
     53 H53         3.7636   52.0625   20.0680 H         1 UNK         0.0000 
     54 H54         6.5944   55.2883   19.8117 H         1 UNK         0.0000 
     55 H55         6.3842   55.6706   22.2101 H         1 UNK         0.0000 
     56 H56         5.3848   52.2894   18.3143 H         1 UNK         0.0000 
     57 H57         6.0868   52.2818   16.5400 H         1 UNK         0.0000 
     58 H58         4.7034   51.9729   12.8648 H         1 UNK         0.0000 
     59 H59         5.6502   50.1209   11.5683 H         1 UNK         0.0000 
     60 H60         7.9171   49.2937   12.0543 H         1 UNK         0.0000 
     61 H61         9.1421   52.0935   17.3972 H         1 UNK         0.0000 
     62 H62         7.6025   51.2973   17.1069 H         1 UNK         0.0000 
     63 H63         9.1034   50.5773   16.5140 H         1 UNK         0.0000 
     64 H64        10.3127   50.9072   14.3464 H         1 UNK         0.0000 
     65 H65         9.6688   49.2592   14.5373 H         1 UNK         0.0000 
     66 H66        10.1399   49.8766   12.9515 H         1 UNK         0.0000 
@<TRIPOS>BOND
     1    1    2 1    
     2    1   37 1    
     3    1   38 1    
     4    1   39 1    
     5    2    7 ar   
     6    2    3 ar   
     7    3    4 ar   
     8    3   40 1    
     9    4    5 ar   
    10    4   41 1    
    11    5    6 ar   
    12    5    8 1    
    13    6    7 ar   
    14    6   42 1    
    15    7   43 1    
    16    8    9 2    
    17    8   10 am   BACKBONE|DICT|INTERRES
    18   10   15 1    
    19   10   11 1    
    20   11   12 1    
    21   11   44 1    
    22   11   45 1    
    23   12   13 1    
    24   12   46 1    
    25   12   47 1    
    26   13   14 1    
    27   13   16 1    
    28   14   15 1    
    29   14   48 1    
    30   14   49 1    
    31   15   50 1    
    32   15   51 1    
    33   16   21 ar   
    34   16   17 ar   
    35   17   18 ar   
    36   17   52 1    
    37   18   19 ar   
    38   18   53 1    
    39   19   20 ar   
    40   19   22 1    
    41   20   21 ar   
    42   20   54 1    
    43   21   55 1    
    44   22   23 1    
    45   22   56 1    
    46   23   24 2    
    47   23   25 am   BACKBONE|DICT|INTERRES
    48   25   26 am   BACKBONE|DICT|INTERRES
    49   25   57 1    
    50   26   27 2    
    51   26   28 1    
    52   28   33 ar   
    53   28   29 ar   
    54   29   30 ar   
    55   29   58 1    
    56   30   31 ar   
    57   30   59 1    
    58   31   32 ar   
    59   31   60 1    
    60   32   33 ar   
    61   32   36 1    
    62   33   34 1    
    63   34   35 1    
    64   35   61 1    
    65   35   62 1    
    66   35   63 1    
    67   36   64 1    
    68   36   65 1    
    69   36   66 1    
@<TRIPOS>SUBSTRUCTURE
     1 UNK         1 GROUP             0       ****    0 ROOT    
