ZINC22348642_3874
                    3D
 Schrodinger Suite 2024-2.
 44 47  0  0  1  0            999 V2000
    6.7974   55.2959   20.9217 C   0  0  0  0  0  0
    5.9072   54.9072   19.9223 C   0  0  0  0  0  0
    4.6985   54.2830   20.2223 C   0  0  0  0  0  0
    4.3124   54.0409   21.5405 C   0  0  0  0  0  0
    5.1791   54.4080   22.5859 C   0  0  0  0  0  0
    6.4310   55.0105   22.2418 C   0  0  0  0  0  0
    7.1039   55.2235   23.4217 N   0  0  0  0  0  0
    8.0620   55.5550   23.5325 H   0  0  0  0  0  0
    6.3241   54.8480   24.4863 C   0  0  0  0  0  0
    5.1129   54.3639   24.0266 C   0  0  0  0  0  0
    3.9875   53.9646   24.9741 C   0  0  0  0  0  0
    4.5357   53.6999   26.4034 C   0  0  1  0  0  0
    5.1606   52.8086   26.3775 H   0  0  0  0  0  0
    5.5009   54.8031   26.8614 C   0  0  0  0  0  0
    6.7112   55.0398   25.9367 C   0  0  0  0  0  0
    3.4633   53.4190   27.3531 N   0  0  0  0  0  0
    3.6100   52.8973   28.5837 C   0  0  0  0  0  0
    4.7046   52.6115   29.0696 O   0  0  0  0  0  0
    2.3349   52.6356   29.4038 C   0  0  1  0  0  0
    2.6757   52.0967   30.2893 H   0  0  0  0  0  0
    1.6516   53.9780   29.7669 C   0  0  0  0  0  0
    0.5050   53.6898   30.7670 C   0  0  0  0  0  0
   -0.3446   52.5180   30.2865 C   0  0  0  0  0  0
    0.0048   51.6964   29.2816 C   0  0  0  0  0  0
    1.3482   51.7602   28.5709 C   0  0  0  0  0  0
    2.7858   53.2966   21.8615 Cl  0  0  0  0  0  0
    6.3191   55.1984   18.2724 Cl  0  0  0  0  0  0
    7.7441   55.7548   20.6753 H   0  0  0  0  0  0
    4.0359   53.9938   19.4166 H   0  0  0  0  0  0
    3.4550   53.0831   24.6201 H   0  0  0  0  0  0
    3.2573   54.7756   24.9987 H   0  0  0  0  0  0
    4.8990   55.6967   26.9080 H   0  0  0  0  0  0
    5.8575   54.6315   27.8779 H   0  0  0  0  0  0
    7.1025   56.0413   26.0990 H   0  0  0  0  0  0
    7.5038   54.3365   26.2030 H   0  0  0  0  0  0
    2.5301   53.6522   27.0488 H   0  0  0  0  0  0
    1.1988   54.4527   28.8920 H   0  0  0  0  0  0
    2.3334   54.6600   30.2761 H   0  0  0  0  0  0
    0.8973   53.4579   31.7582 H   0  0  0  0  0  0
   -0.1080   54.5836   30.8900 H   0  0  0  0  0  0
   -1.2758   52.3102   30.7856 H   0  0  0  0  0  0
   -0.6795   50.8990   29.0170 H   0  0  0  0  0  0
    1.7665   50.7657   28.4083 H   0  0  0  0  0  0
    1.1537   52.1704   27.5783 H   0  0  0  0  0  0
  1  6  2  0  0  0
  1  2  1  0  0  0
  1 28  1  0  0  0
  2  3  2  0  0  0
  2 27  1  0  0  0
  3  4  1  0  0  0
  3 29  1  0  0  0
  4  5  2  0  0  0
  4 26  1  0  0  0
  5 10  1  0  0  0
  5  6  1  0  0  0
  6  7  1  0  0  0
  7  8  1  0  0  0
  7  9  1  0  0  0
  9 15  1  0  0  0
  9 10  2  0  0  0
 10 11  1  0  0  0
 11 12  1  0  0  0
 11 30  1  0  0  0
 11 31  1  0  0  0
 12 13  1  0  0  0
 12 14  1  0  0  0
 12 16  1  0  0  0
 14 15  1  0  0  0
 14 32  1  0  0  0
 14 33  1  0  0  0
 15 34  1  0  0  0
 15 35  1  0  0  0
 16 17  1  0  0  0
 16 36  1  0  0  0
 17 18  2  0  0  0
 17 19  1  0  0  0
 19 20  1  0  0  0
 19 25  1  0  0  0
 19 21  1  0  0  0
 21 22  1  0  0  0
 21 37  1  0  0  0
 21 38  1  0  0  0
 22 23  1  0  0  0
 22 39  1  0  0  0
 22 40  1  0  0  0
 23 24  2  0  0  0
 23 41  1  0  0  0
 24 25  1  0  0  0
 24 42  1  0  0  0
 25 43  1  0  0  0
 25 44  1  0  0  0
M  END
> <i_i_glide_confnum>
28

> <i_i_glide_lignum>
3875

> <i_i_glide_posenum>
159

> <i_i_glide_rotatable_bonds>
3

> <i_m_Source_File_Index>
5739

> <b_m_subgroup_collapsed>
0

> <r_i_docking_score>
-6.23646

> <r_i_glide_ecoul>
-2.47322

> <r_i_glide_eff_state_penalty>
0

> <r_i_glide_einternal>
3.51911

> <r_i_glide_emodel>
-51.7878

> <r_i_glide_energy>
-38.4298

> <r_i_glide_erotb>
0.436719

> <r_i_glide_esite>
-0.0131377

> <r_i_glide_evdw>
-35.9565

> <r_i_glide_gscore>
-6.23646

> <r_i_glide_hbond>
-0.303669

> <r_i_glide_ligand_efficiency>
-0.259853

> <r_i_glide_ligand_efficiency_ln>
-1.49267

> <r_i_glide_ligand_efficiency_sa>
-0.749544

> <r_i_glide_lipo>
-2.96332

> <r_i_glide_metal>
0

> <r_i_glide_rewards>
-1.22425

> <s_i_glide_gridfile>
wee1_glide-grid

> <s_m_Source_File>
wee1_decoys_glide_SP.sdf

> <s_m_Source_Path>
/Users/zhangxujun/Desktop

> <s_m_entry_id>
6014

> <s_m_entry_name>
wee1_decoys_glide_SP.5739

> <s_m_subgroup_title>
wee1_decoys_glide_SP

> <s_m_subgroupid>
wee1_decoys_glide_SP


$$$$
