@<TRIPOS>MOLECULE
ZINC16887139_677
46   48    1
SMALL
USER_CHARGES


@<TRIPOS>ATOM
      1 C1         -1.1162   48.7437   21.6746 C.3       1 UNK         0.0000 
      2 C2         -1.0551   49.7793   22.7796 C.2       1 UNK         0.0000 
      3 C3         -0.5278   51.0812   22.7477 C.2       1 UNK         0.0000 
      4 S4         -0.7868   51.8120   24.3131 S.3       1 UNK         0.0000 
      5 C5         -1.5082   50.3285   24.8527 C.2       1 UNK         0.0000 
      6 N6         -1.5582   49.3925   23.9413 N.2       1 UNK         0.0000 
      7 N7         -1.9588   50.1736   26.1413 N.pl3     1 UNK         0.0000 
      8 S8         -2.4921   51.4987   27.1882 S.o2      1 UNK         0.0000 
      9 O9         -1.4322   51.6969   28.1835 O.2       1 UNK         0.0000 
     10 O10        -2.9415   52.5999   26.3265 O.2       1 UNK         0.0000 
     11 C11        -3.9484   50.8971   28.0359 C.ar      1 UNK         0.0000 
     12 C12        -5.1829   50.9220   27.3824 C.ar      1 UNK         0.0000 
     13 C13        -6.3241   50.4750   28.0441 C.ar      1 UNK         0.0000 
     14 C14        -6.2234   50.0015   29.3516 C.ar      1 UNK         0.0000 
     15 C15        -4.9916   49.9677   30.0029 C.ar      1 UNK         0.0000 
     16 C16        -3.8509   50.4153   29.3428 C.ar      1 UNK         0.0000 
     17 C17         0.0282   51.8133   21.6212 C.2       1 UNK         0.0000 
     18 O18        -0.4898   51.6968   20.5116 O.2       1 UNK         0.0000 
     19 N19         1.1215   52.5962   21.7836 N.am      1 UNK         0.0000 
     20 N20         1.7570   52.8202   22.9571 N.2       1 UNK         0.0000 
     21 C21         2.8535   53.4845   22.9614 C.2       1 UNK         0.0000 
     22 C22         3.6550   53.8526   21.6992 C.3       1 UNK         0.0000 
     23 C23         3.4751   53.8401   24.2705 C.ar      1 UNK         0.0000 
     24 C24         2.7470   53.6965   25.4677 C.ar      1 UNK         0.0000 
     25 C25         3.3384   53.9135   26.7075 C.ar      1 UNK         0.0000 
     26 C26         4.6738   54.2889   26.7750 C.ar      1 UNK         0.0000 
     27 C27         5.4069   54.4932   25.6106 C.ar      1 UNK         0.0000 
     28 C28         4.8114   54.2710   24.3702 C.ar      1 UNK         0.0000 
     29 Br29        5.5037   54.4849   28.4741 Br        1 UNK         0.0000 
     30 H30        -0.6551   49.0877   20.7499 H         1 UNK         0.0000 
     31 H31        -0.5977   47.8278   21.9534 H         1 UNK         0.0000 
     32 H32        -2.1436   48.4730   21.4320 H         1 UNK         0.0000 
     33 H33        -1.6953   49.3580   26.6891 H         1 UNK         0.0000 
     34 H34        -5.2586   51.2899   26.3691 H         1 UNK         0.0000 
     35 H35        -7.2820   50.4916   27.5452 H         1 UNK         0.0000 
     36 H36        -7.1080   49.6511   29.8630 H         1 UNK         0.0000 
     37 H37        -4.9134   49.5903   31.0124 H         1 UNK         0.0000 
     38 H38        -2.8956   50.3694   29.8475 H         1 UNK         0.0000 
     39 H39         1.5111   53.0761   20.9845 H         1 UNK         0.0000 
     40 H40         4.5434   53.2266   21.6161 H         1 UNK         0.0000 
     41 H41         3.1087   53.7033   20.7692 H         1 UNK         0.0000 
     42 H42         3.9641   54.8965   21.7151 H         1 UNK         0.0000 
     43 H43         1.7142   53.3781   25.4539 H         1 UNK         0.0000 
     44 H44         2.7685   53.7625   27.6130 H         1 UNK         0.0000 
     45 H45         6.4439   54.7879   25.6680 H         1 UNK         0.0000 
     46 H46         5.4275   54.4028   23.4938 H         1 UNK         0.0000 
@<TRIPOS>BOND
     1    1    2 1    
     2    1   30 1    
     3    1   31 1    
     4    1   32 1    
     5    2    6 1    
     6    2    3 2    
     7    3    4 1    
     8    3   17 1    
     9    4    5 1    
    10    5    6 2    
    11    5    7 1    
    12    7    8 1    
    13    7   33 1    
    14    8    9 2    
    15    8   10 2    
    16    8   11 1    
    17   11   16 ar   
    18   11   12 ar   
    19   12   13 ar   
    20   12   34 1    
    21   13   14 ar   
    22   13   35 1    
    23   14   15 ar   
    24   14   36 1    
    25   15   16 ar   
    26   15   37 1    
    27   16   38 1    
    28   17   18 2    
    29   17   19 am   BACKBONE|DICT|INTERRES
    30   19   20 1    
    31   19   39 1    
    32   20   21 2    
    33   21   22 1    
    34   21   23 1    
    35   22   40 1    
    36   22   41 1    
    37   22   42 1    
    38   23   28 ar   
    39   23   24 ar   
    40   24   25 ar   
    41   24   43 1    
    42   25   26 ar   
    43   25   44 1    
    44   26   27 ar   
    45   26   29 1    
    46   27   28 ar   
    47   27   45 1    
    48   28   46 1    
@<TRIPOS>SUBSTRUCTURE
     1 UNK         1 GROUP             0       ****    0 ROOT    
