ZINC63584608_756
                    3D
 Schrodinger Suite 2024-2.
 57 61  0  0  1  0            999 V2000
   -0.2739   48.4857   24.0820 C   0  0  0  0  0  0
    0.2947   49.8158   23.6165 C   0  0  0  0  0  0
   -0.3480   51.0042   23.9662 C   0  0  0  0  0  0
    0.1957   52.2283   23.5834 C   0  0  0  0  0  0
    1.3989   52.2707   22.8696 C   0  0  0  0  0  0
    2.0134   51.0766   22.4805 C   0  0  0  0  0  0
    1.4721   49.8533   22.8642 C   0  0  0  0  0  0
    2.0291   53.6243   22.5305 C   0  0  0  0  0  0
    3.3679   53.8180   23.1067 N   0  0  0  0  0  0
    3.5775   53.8736   24.4809 C   0  0  0  0  0  0
    2.6130   53.6968   25.4915 C   0  0  0  0  0  0
    3.1282   53.7714   26.7736 C   0  0  0  0  0  0
    4.8208   54.0972   26.7704 S   0  0  0  0  0  0
    4.8467   54.1543   25.0262 C   0  0  0  0  0  0
    6.0886   54.4965   24.3340 C   0  0  0  0  0  0
    7.1042   54.8213   24.9506 O   0  0  0  0  0  0
    6.0197   54.5017   22.8719 C   0  0  0  0  0  0
    6.8803   55.2531   22.1434 C   0  0  0  0  0  0
    6.9447   55.3802   20.7776 N   0  0  0  0  0  0
    8.1721   55.5956   20.0264 C   0  0  0  0  0  0
    7.9434   55.6406   18.5064 C   0  0  0  0  0  0
    7.0478   56.7700   18.0313 C   0  0  0  0  0  0
    5.7556   56.7683   17.6527 C   0  0  0  0  0  0
    4.7592   55.6852   17.6210 C   0  0  0  0  0  0
    3.4887   55.9297   17.2428 C   0  0  0  0  0  0
    3.1365   57.2911   16.8600 C   0  0  0  0  0  0
    4.0453   58.3028   16.8816 C   0  0  0  0  0  0
    5.3648   58.0581   17.2815 C   0  0  0  0  0  0
    6.3636   58.8966   17.4153 N   0  3  0  0  0  0
    7.5643   58.1860   17.8789 C   0  0  0  0  0  0
    4.7642   53.5127   22.0183 S   0  0  0  0  0  0
    5.1583   52.1038   22.0762 O   0  0  0  0  0  0
    4.4945   54.0692   20.6866 O   0  0  0  0  0  0
   -0.6348   48.5653   25.1087 H   0  0  0  0  0  0
   -1.1078   48.1820   23.4507 H   0  0  0  0  0  0
    0.4841   47.6994   24.0850 H   0  0  0  0  0  0
   -1.2591   50.9800   24.5472 H   0  0  0  0  0  0
   -0.3016   53.1419   23.8762 H   0  0  0  0  0  0
    2.9215   51.0855   21.8983 H   0  0  0  0  0  0
    1.9745   48.9363   22.5884 H   0  0  0  0  0  0
    2.0900   53.6966   21.4457 H   0  0  0  0  0  0
    1.3846   54.4397   22.8546 H   0  0  0  0  0  0
    1.5679   53.5092   25.3125 H   0  0  0  0  0  0
    2.5990   53.6503   27.7077 H   0  0  0  0  0  0
    7.6426   55.8539   22.6261 H   0  0  0  0  0  0
    6.2623   54.8414   20.2552 H   0  0  0  0  0  0
    8.6717   56.4966   20.3793 H   0  0  0  0  0  0
    8.8577   54.7805   20.2438 H   0  0  0  0  0  0
    8.9022   55.7200   17.9912 H   0  0  0  0  0  0
    7.5132   54.6914   18.1815 H   0  0  0  0  0  0
    5.0091   54.6732   17.9100 H   0  0  0  0  0  0
    2.7506   55.1390   17.2331 H   0  0  0  0  0  0
    2.1210   57.5064   16.5540 H   0  0  0  0  0  0
    3.7323   59.2966   16.5928 H   0  0  0  0  0  0
    7.8865   58.6440   18.8145 H   0  0  0  0  0  0
    8.3360   58.2964   17.1165 H   0  0  0  0  0  0
    6.3047   59.9156   17.2816 H   0  0  0  0  0  0
  1  2  1  0  0  0
  1 34  1  0  0  0
  1 35  1  0  0  0
  1 36  1  0  0  0
  2  7  2  0  0  0
  2  3  1  0  0  0
  3  4  2  0  0  0
  3 37  1  0  0  0
  4  5  1  0  0  0
  4 38  1  0  0  0
  5  6  2  0  0  0
  5  8  1  0  0  0
  6  7  1  0  0  0
  6 39  1  0  0  0
  7 40  1  0  0  0
  8  9  1  0  0  0
  8 41  1  0  0  0
  8 42  1  0  0  0
  9 31  1  0  0  0
  9 10  1  0  0  0
 10 14  2  0  0  0
 10 11  1  0  0  0
 11 12  2  0  0  0
 11 43  1  0  0  0
 12 13  1  0  0  0
 12 44  1  0  0  0
 13 14  1  0  0  0
 14 15  1  0  0  0
 15 16  2  0  0  0
 15 17  1  0  0  0
 17 18  2  0  0  0
 17 31  1  0  0  0
 18 19  1  0  0  0
 18 45  1  0  0  0
 19 20  1  0  0  0
 19 46  1  0  0  0
 20 21  1  0  0  0
 20 47  1  0  0  0
 20 48  1  0  0  0
 21 22  1  0  0  0
 21 49  1  0  0  0
 21 50  1  0  0  0
 22 30  1  0  0  0
 22 23  2  0  0  0
 23 28  1  0  0  0
 23 24  1  0  0  0
 24 25  2  0  0  0
 24 51  1  0  0  0
 25 26  1  0  0  0
 25 52  1  0  0  0
 26 27  2  0  0  0
 26 53  1  0  0  0
 27 28  1  0  0  0
 27 54  1  0  0  0
 28 29  2  0  0  0
 29 30  1  0  0  0
 29 57  1  0  0  0
 30 55  1  0  0  0
 30 56  1  0  0  0
 31 32  2  0  0  0
 31 33  2  0  0  0
M  CHG  1  29   1
M  END
> <i_i_glide_confnum>
38

> <i_i_glide_lignum>
757

> <i_i_glide_posenum>
121

> <i_i_glide_rotatable_bonds>
6

> <i_m_Source_File_Index>
5115

> <b_m_subgroup_collapsed>
0

> <r_i_docking_score>
-7.30788

> <r_i_glide_ecoul>
-8.52279

> <r_i_glide_eff_state_penalty>
0

> <r_i_glide_einternal>
5.99638

> <r_i_glide_emodel>
-75.8687

> <r_i_glide_energy>
-52.3145

> <r_i_glide_erotb>
0.442355

> <r_i_glide_esite>
-0.1

> <r_i_glide_evdw>
-43.7917

> <r_i_glide_gscore>
-7.30788

> <r_i_glide_hbond>
-0.417489

> <r_i_glide_ligand_efficiency>
-0.221451

> <r_i_glide_ligand_efficiency_ln>
-1.62524

> <r_i_glide_ligand_efficiency_sa>
-0.710312

> <r_i_glide_lipo>
-2.48524

> <r_i_glide_metal>
0

> <r_i_glide_rewards>
-1.27951

> <s_i_glide_gridfile>
wee1_glide-grid

> <s_m_Source_File>
wee1_decoys_glide_SP.sdf

> <s_m_Source_Path>
/Users/zhangxujun/Desktop

> <s_m_entry_id>
5390

> <s_m_entry_name>
wee1_decoys_glide_SP.5115

> <s_m_subgroup_title>
wee1_decoys_glide_SP

> <s_m_subgroupid>
wee1_decoys_glide_SP


$$$$
