@<TRIPOS>MOLECULE
ZINC40368181_5558
69   73    1
SMALL
USER_CHARGES


@<TRIPOS>ATOM
      1 C1          0.8796   52.5375   27.3033 C.3       1 UNK         0.0000 
      2 C2          0.3269   52.0953   25.9508 C.2       1 UNK         0.0000 
      3 C3          0.6622   52.5482   24.7129 C.2       1 UNK         0.0000 
      4 C4         -0.0557   52.0300   23.4498 C.3       1 UNK         0.0000 
      5 H5         -0.4450   52.8984   22.9169 H         1 UNK         0.0000 
      6 N6         -1.2551   51.2369   23.8183 N.pl3     1 UNK         0.0000 
      7 C7         -2.2732   51.1960   22.7488 C.3       1 UNK         0.0000 
      8 C8         -3.1444   49.9270   22.8541 C.3       1 UNK         0.0000 
      9 C9         -3.8590   49.7481   24.1991 C.3       1 UNK         0.0000 
     10 S10        -2.6609   49.6067   25.5439 S.3       1 UNK         0.0000 
     11 C11        -1.4818   50.7779   25.0625 C.2       1 UNK         0.0000 
     12 N12        -0.6871   51.1723   26.0609 N.pl3     1 UNK         0.0000 
     13 C13         0.8639   51.2861   22.4778 C.ar      1 UNK         0.0000 
     14 C14         1.4885   50.0971   22.8712 C.ar      1 UNK         0.0000 
     15 C15         2.3032   49.4054   21.9796 C.ar      1 UNK         0.0000 
     16 C16         2.4868   49.8826   20.6841 C.ar      1 UNK         0.0000 
     17 C17         1.8759   51.0648   20.2745 C.ar      1 UNK         0.0000 
     18 C18         1.0720   51.7752   21.1818 C.ar      1 UNK         0.0000 
     19 N19         2.1457   51.4938   18.9657 N.am      1 UNK         0.0000 
     20 C20         1.3405   52.2190   18.1635 C.2       1 UNK         0.0000 
     21 O21         0.1687   52.4989   18.4359 O.2       1 UNK         0.0000 
     22 C22         1.9338   52.5803   16.7804 C.3       1 UNK         0.0000 
     23 C23         0.8802   52.4901   15.6474 C.3       1 UNK         0.0000 
     24 C24         0.4357   53.9291   15.3828 C.3       1 UNK         0.0000 
     25 C25         1.7145   54.7374   15.5907 C.3       1 UNK         0.0000 
     26 C26         2.4212   54.0565   16.7699 C.3       1 UNK         0.0000 
     27 C27         1.6947   53.5421   24.4525 C.2       1 UNK         0.0000 
     28 O28         1.5047   54.4840   23.6813 O.2       1 UNK         0.0000 
     29 N29         2.8756   53.2973   25.0524 N.am      1 UNK         0.0000 
     30 C30         4.0780   53.9895   24.8392 C.ar      1 UNK         0.0000 
     31 C31         4.7397   54.4783   25.9698 C.ar      1 UNK         0.0000 
     32 C32         5.9814   55.0967   25.8446 C.ar      1 UNK         0.0000 
     33 C33         6.5715   55.2158   24.5894 C.ar      1 UNK         0.0000 
     34 C34         5.9331   54.7036   23.4616 C.ar      1 UNK         0.0000 
     35 C35         4.6700   54.0951   23.5624 C.ar      1 UNK         0.0000 
     36 O36         4.0069   53.5491   22.4761 O.3       1 UNK         0.0000 
     37 C37         4.4905   53.7903   21.1591 C.3       1 UNK         0.0000 
     38 H38         1.4891   51.7465   27.7418 H         1 UNK         0.0000 
     39 H39         1.4823   53.4427   27.2451 H         1 UNK         0.0000 
     40 H40         0.0657   52.7584   27.9953 H         1 UNK         0.0000 
     41 H41        -2.8795   52.0973   22.8487 H         1 UNK         0.0000 
     42 H42        -1.7818   51.2336   21.7749 H         1 UNK         0.0000 
     43 H43        -3.8903   49.9451   22.0585 H         1 UNK         0.0000 
     44 H44        -2.5277   49.0494   22.6529 H         1 UNK         0.0000 
     45 H45        -4.4984   50.6030   24.4225 H         1 UNK         0.0000 
     46 H46        -4.4826   48.8533   24.2110 H         1 UNK         0.0000 
     47 H47         1.3459   49.7055   23.8686 H         1 UNK         0.0000 
     48 H48         2.7889   48.4947   22.2907 H         1 UNK         0.0000 
     49 H49         3.1042   49.3236   19.9959 H         1 UNK         0.0000 
     50 H50         0.6207   52.7104   20.8857 H         1 UNK         0.0000 
     51 H51         3.0078   51.1509   18.5592 H         1 UNK         0.0000 
     52 H52         2.7458   51.8850   16.5494 H         1 UNK         0.0000 
     53 H53         0.0327   51.8385   15.8731 H         1 UNK         0.0000 
     54 H54         1.3468   52.0795   14.7497 H         1 UNK         0.0000 
     55 H55        -0.3259   54.2296   16.1053 H         1 UNK         0.0000 
     56 H56         0.0179   54.0587   14.3818 H         1 UNK         0.0000 
     57 H57         1.5093   55.7918   15.7813 H         1 UNK         0.0000 
     58 H58         2.3384   54.6833   14.6970 H         1 UNK         0.0000 
     59 H59         3.5052   54.1211   16.6580 H         1 UNK         0.0000 
     60 H60         2.1596   54.5985   17.6839 H         1 UNK         0.0000 
     61 H61         2.8933   52.5887   25.7691 H         1 UNK         0.0000 
     62 H62         4.2992   54.3758   26.9511 H         1 UNK         0.0000 
     63 H63         6.4823   55.4792   26.7232 H         1 UNK         0.0000 
     64 H64         7.5266   55.7034   24.4795 H         1 UNK         0.0000 
     65 H65         6.4351   54.7983   22.5115 H         1 UNK         0.0000 
     66 H66         3.7749   53.3955   20.4388 H         1 UNK         0.0000 
     67 H67         4.5963   54.8585   20.9595 H         1 UNK         0.0000 
     68 H68         5.4466   53.2937   20.9865 H         1 UNK         0.0000 
     69 H69        -0.8850   50.7636   26.9661 H         1 UNK         0.0000 
@<TRIPOS>BOND
     1    1    2 1    
     2    1   38 1    
     3    1   39 1    
     4    1   40 1    
     5    2   12 1    
     6    2    3 2    
     7    3    4 1    
     8    3   27 1    
     9    4    5 1    
    10    4    6 1    
    11    4   13 1    
    12    6   11 1    
    13    6    7 1    
    14    7    8 1    
    15    7   41 1    
    16    7   42 1    
    17    8    9 1    
    18    8   43 1    
    19    8   44 1    
    20    9   10 1    
    21    9   45 1    
    22    9   46 1    
    23   10   11 1    
    24   11   12 2    
    25   12   69 1    
    26   13   18 ar   
    27   13   14 ar   
    28   14   15 ar   
    29   14   47 1    
    30   15   16 ar   
    31   15   48 1    
    32   16   17 ar   
    33   16   49 1    
    34   17   18 ar   
    35   17   19 1    
    36   18   50 1    
    37   19   20 am   BACKBONE|DICT|INTERRES
    38   19   51 1    
    39   20   21 2    
    40   20   22 1    
    41   22   26 1    
    42   22   23 1    
    43   22   52 1    
    44   23   24 1    
    45   23   53 1    
    46   23   54 1    
    47   24   25 1    
    48   24   55 1    
    49   24   56 1    
    50   25   26 1    
    51   25   57 1    
    52   25   58 1    
    53   26   59 1    
    54   26   60 1    
    55   27   28 2    
    56   27   29 am   BACKBONE|DICT|INTERRES
    57   29   30 1    
    58   29   61 1    
    59   30   35 ar   
    60   30   31 ar   
    61   31   32 ar   
    62   31   62 1    
    63   32   33 ar   
    64   32   63 1    
    65   33   34 ar   
    66   33   64 1    
    67   34   35 ar   
    68   34   65 1    
    69   35   36 1    
    70   36   37 1    
    71   37   66 1    
    72   37   67 1    
    73   37   68 1    
@<TRIPOS>SUBSTRUCTURE
     1 UNK         1 GROUP             0       ****    0 ROOT    
