ZINC09046530_5676
                    3D
 Schrodinger Suite 2024-2.
 77 80  0  0  1  0            999 V2000
   -6.1745   53.4333   26.6941 C   0  0  0  0  0  0
   -6.9550   52.5033   25.7521 C   0  0  0  0  0  0
   -6.1540   52.1467   24.4866 C   0  0  0  0  0  0
   -5.0790   51.0568   24.7035 C   0  0  0  0  0  0
   -4.0820   51.1487   23.6467 N   0  0  0  0  0  0
   -2.8858   51.6166   23.7785 C   0  0  0  0  0  0
   -2.3977   52.1592   25.0311 C   0  0  0  0  0  0
   -1.1569   52.4957   25.4346 C   0  0  0  0  0  0
    0.1491   52.4288   24.7797 C   0  0  0  0  0  0
    0.3159   52.1052   23.4663 C   0  0  0  0  0  0
   -0.7264   51.8731   22.4708 C   0  0  0  0  0  0
   -2.0477   51.6318   22.5841 C   0  0  0  0  0  0
   -2.6465   51.4023   21.3757 O   0  0  0  0  0  0
    1.7445   51.8441   22.9698 C   0  0  2  0  0  0
    2.3074   51.4021   23.7916 H   0  0  0  0  0  0
    2.4558   53.1596   22.5956 C   0  0  0  0  0  0
    2.2693   54.2496   23.6733 C   0  0  0  0  0  0
    2.3233   53.7401   25.1184 C   0  0  0  0  0  0
    1.3367   52.8582   25.6336 C   0  0  0  0  0  0
    1.4783   52.4158   26.9716 C   0  0  0  0  0  0
    2.5307   52.8811   27.7919 C   0  0  0  0  0  0
    3.4892   53.7597   27.2608 C   0  0  0  0  0  0
    3.3797   54.1510   25.9274 C   0  0  0  0  0  0
    4.5107   54.2180   28.0742 O   0  0  0  0  0  0
    5.7532   54.5916   27.4821 C   0  0  0  0  0  0
    2.5811   52.4458   29.1067 O   0  0  0  0  0  0
    3.8425   52.0736   29.6601 C   0  0  0  0  0  0
    0.6481   51.3980   27.4025 O   0  0  0  0  0  0
   -0.1119   51.5950   28.5906 C   0  0  0  0  0  0
    3.0886   50.8033   20.9521 C   0  0  0  0  0  0
    1.7896   49.2986   22.5539 C   0  0  0  0  0  0
    0.4384   48.9382   23.1805 C   0  0  0  0  0  0
    0.3056   48.8968   24.5744 C   0  0  0  0  0  0
   -0.8959   48.5161   25.1666 C   0  0  0  0  0  0
   -1.9824   48.1702   24.3669 C   0  0  0  0  0  0
   -1.8653   48.2049   22.9761 C   0  0  0  0  0  0
   -0.6622   48.5907   22.3817 C   0  0  0  0  0  0
   -0.5737   48.6280   21.0130 O   0  0  0  0  0  0
   -5.1799   53.0353   26.8964 H   0  0  0  0  0  0
   -6.0423   54.4202   26.2460 H   0  0  0  0  0  0
   -6.6918   53.5658   27.6465 H   0  0  0  0  0  0
   -7.2460   51.5944   26.2784 H   0  0  0  0  0  0
   -7.8877   52.9919   25.4634 H   0  0  0  0  0  0
   -6.8385   51.8074   23.7077 H   0  0  0  0  0  0
   -5.7048   53.0617   24.0941 H   0  0  0  0  0  0
   -4.6632   51.0831   25.7095 H   0  0  0  0  0  0
   -5.5446   50.0723   24.6489 H   0  0  0  0  0  0
   -3.1379   52.4075   25.7719 H   0  0  0  0  0  0
   -1.1415   52.9056   26.4316 H   0  0  0  0  0  0
   -0.3541   51.8998   21.4556 H   0  0  0  0  0  0
   -1.9712   51.2893   20.7087 H   0  0  0  0  0  0
    3.5235   52.9825   22.4689 H   0  0  0  0  0  0
    2.0889   53.5380   21.6417 H   0  0  0  0  0  0
    3.0226   55.0225   23.5126 H   0  0  0  0  0  0
    1.3144   54.7624   23.5335 H   0  0  0  0  0  0
    4.1109   54.8264   25.5092 H   0  0  0  0  0  0
    6.5008   54.7014   28.2667 H   0  0  0  0  0  0
    6.1143   53.8240   26.7926 H   0  0  0  0  0  0
    5.6876   55.5428   26.9539 H   0  0  0  0  0  0
    3.6989   51.2960   30.4065 H   0  0  0  0  0  0
    4.5420   51.6978   28.9122 H   0  0  0  0  0  0
    4.3009   52.9205   30.1733 H   0  0  0  0  0  0
   -0.9861   50.9411   28.5556 H   0  0  0  0  0  0
    0.4526   51.3110   29.4767 H   0  0  0  0  0  0
   -0.4512   52.6267   28.7079 H   0  0  0  0  0  0
    3.9919   50.8185   21.5631 H   0  0  0  0  0  0
    3.0749   49.9443   20.2791 H   0  0  0  0  0  0
    2.9863   51.7195   20.3677 H   0  0  0  0  0  0
    2.0460   48.5754   21.7763 H   0  0  0  0  0  0
    2.6021   49.2967   23.2805 H   0  0  0  0  0  0
    1.1393   49.1470   25.2122 H   0  0  0  0  0  0
   -0.9735   48.4886   26.2452 H   0  0  0  0  0  0
   -2.9169   47.8864   24.8273 H   0  0  0  0  0  0
   -2.7208   47.9495   22.3675 H   0  0  0  0  0  0
   -1.3757   48.3190   20.5872 H   0  0  0  0  0  0
    1.8713   50.7049   21.9041 N   0  3  1  0  0  0
    1.0499   50.7765   21.3183 H   0  0  0  0  0  0
  1  2  1  0  0  0
  1 39  1  0  0  0
  1 40  1  0  0  0
  1 41  1  0  0  0
  2  3  1  0  0  0
  2 42  1  0  0  0
  2 43  1  0  0  0
  3  4  1  0  0  0
  3 44  1  0  0  0
  3 45  1  0  0  0
  4  5  1  0  0  0
  4 46  1  0  0  0
  4 47  1  0  0  0
  5  6  2  0  0  0
  6 12  1  0  0  0
  6  7  1  0  0  0
  7  8  2  0  0  0
  7 48  1  0  0  0
  8  9  1  0  0  0
  8 49  1  0  0  0
  9 19  1  0  0  0
  9 10  2  0  0  0
 10 11  1  0  0  0
 10 14  1  0  0  0
 11 12  2  0  0  0
 11 50  1  0  0  0
 12 13  1  0  0  0
 13 51  1  0  0  0
 14 15  1  0  0  0
 14 16  1  0  0  0
 14 76  1  0  0  0
 16 17  1  0  0  0
 16 52  1  0  0  0
 16 53  1  0  0  0
 17 18  1  0  0  0
 17 54  1  0  0  0
 17 55  1  0  0  0
 18 23  2  0  0  0
 18 19  1  0  0  0
 19 20  2  0  0  0
 20 21  1  0  0  0
 20 28  1  0  0  0
 21 22  2  0  0  0
 21 26  1  0  0  0
 22 23  1  0  0  0
 22 24  1  0  0  0
 23 56  1  0  0  0
 24 25  1  0  0  0
 25 57  1  0  0  0
 25 58  1  0  0  0
 25 59  1  0  0  0
 26 27  1  0  0  0
 27 60  1  0  0  0
 27 61  1  0  0  0
 27 62  1  0  0  0
 28 29  1  0  0  0
 29 63  1  0  0  0
 29 64  1  0  0  0
 29 65  1  0  0  0
 30 66  1  0  0  0
 30 67  1  0  0  0
 30 68  1  0  0  0
 30 76  1  0  0  0
 31 32  1  0  0  0
 31 69  1  0  0  0
 31 70  1  0  0  0
 31 76  1  0  0  0
 32 37  2  0  0  0
 32 33  1  0  0  0
 33 34  2  0  0  0
 33 71  1  0  0  0
 34 35  1  0  0  0
 34 72  1  0  0  0
 35 36  2  0  0  0
 35 73  1  0  0  0
 36 37  1  0  0  0
 36 74  1  0  0  0
 37 38  1  0  0  0
 38 75  1  0  0  0
 76 77  1  0  0  0
M  CHG  1  76   1
M  END
> <i_i_glide_confnum>
44

> <i_i_glide_lignum>
5677

> <i_i_glide_posenum>
89

> <i_i_glide_rotatable_bonds>
11

> <i_m_Source_File_Index>
4669

> <b_m_subgroup_collapsed>
0

> <r_i_docking_score>
-4.51398

> <r_i_glide_ecoul>
-2.61315

> <r_i_glide_eff_state_penalty>
0

> <r_i_glide_einternal>
10.7668

> <r_i_glide_emodel>
-50.6878

> <r_i_glide_energy>
-43.8197

> <r_i_glide_erotb>
0.380431

> <r_i_glide_esite>
0

> <r_i_glide_evdw>
-41.2065

> <r_i_glide_gscore>
-4.51398

> <r_i_glide_hbond>
0

> <r_i_glide_ligand_efficiency>
-0.118789

> <r_i_glide_ligand_efficiency_ln>
-0.973348

> <r_i_glide_ligand_efficiency_sa>
-0.399366

> <r_i_glide_lipo>
-2.44212

> <r_i_glide_metal>
0

> <r_i_glide_rewards>
0

> <s_i_glide_gridfile>
wee1_glide-grid

> <s_m_Source_File>
wee1_decoys_glide_SP.sdf

> <s_m_Source_Path>
/Users/zhangxujun/Desktop

> <s_m_entry_id>
4944

> <s_m_entry_name>
wee1_decoys_glide_SP.4669

> <s_m_subgroup_title>
wee1_decoys_glide_SP

> <s_m_subgroupid>
wee1_decoys_glide_SP


$$$$
