@<TRIPOS>MOLECULE
ZINC04095454_1886
28   29    1
SMALL
USER_CHARGES


@<TRIPOS>ATOM
      1 C1          1.7017   53.4873   24.8818 C.ar      1 UNK         0.0000 
      2 C2          0.8634   53.1575   23.8251 C.ar      1 UNK         0.0000 
      3 C3         -0.1683   52.2325   23.9943 C.ar      1 UNK         0.0000 
      4 C4         -0.3793   51.6087   25.2506 C.ar      1 UNK         0.0000 
      5 C5          0.4807   51.9681   26.3149 C.ar      1 UNK         0.0000 
      6 C6          1.5048   52.8978   26.1243 C.ar      1 UNK         0.0000 
      7 Cl7         0.3395   51.2867   27.9001 Cl        1 UNK         0.0000 
      8 C8         -1.4668   50.5158   25.4606 C.3       1 UNK         0.0000 
      9 H9         -1.6954   50.5300   26.5269 H         1 UNK         0.0000 
     10 C10        -0.8895   49.0798   25.1620 C.3       1 UNK         0.0000 
     11 H11        -0.1209   48.8689   25.9075 H         1 UNK         0.0000 
     12 C12        -1.9008   47.9402   25.1900 C.2       1 UNK         0.0000 
     13 N13        -1.6958   46.7955   25.6817 N.2       1 UNK         0.0000 
     14 S14        -3.4767   48.1822   24.4017 S.3       1 UNK         0.0000 
     15 C15        -3.7455   49.9295   24.4244 C.2       1 UNK         0.0000 
     16 C16        -2.8700   50.8419   24.9002 C.2       1 UNK         0.0000 
     17 C17        -3.2977   52.2089   24.9563 C.1       1 UNK         0.0000 
     18 N18        -3.6943   53.2966   24.9842 N.1       1 UNK         0.0000 
     19 N19        -4.9941   50.2252   23.9398 N.pl3     1 UNK         0.0000 
     20 C20        -0.2195   48.9866   23.8538 C.1       1 UNK         0.0000 
     21 N21         0.3048   48.9026   22.8258 N.1       1 UNK         0.0000 
     22 Cl22       -1.1248   51.8979   22.5885 Cl        1 UNK         0.0000 
     23 H23         2.5004   54.2008   24.7381 H         1 UNK         0.0000 
     24 H24         1.0248   53.6167   22.8598 H         1 UNK         0.0000 
     25 H25         2.1586   53.1565   26.9444 H         1 UNK         0.0000 
     26 H26        -0.7804   46.7135   26.1250 H         1 UNK         0.0000 
     27 H27        -5.3351   51.1761   23.9121 H         1 UNK         0.0000 
     28 H28        -5.6171   49.4939   23.6258 H         1 UNK         0.0000 
@<TRIPOS>BOND
     1    1    6 ar   
     2    1    2 ar   
     3    1   23 1    
     4    2    3 ar   
     5    2   24 1    
     6    3    4 ar   
     7    3   22 1    
     8    4    5 ar   
     9    4    8 1    
    10    5    6 ar   
    11    5    7 1    
    12    6   25 1    
    13    8    9 1    
    14    8   16 1    
    15    8   10 1    
    16   10   11 1    
    17   10   12 1    
    18   10   20 1    
    19   12   13 2    
    20   12   14 1    
    21   13   26 1    
    22   14   15 1    
    23   15   16 2    
    24   15   19 1    
    25   16   17 1    
    26   17   18 3    
    27   19   27 1    
    28   19   28 1    
    29   20   21 3    
@<TRIPOS>SUBSTRUCTURE
     1 UNK         1 GROUP             0       ****    0 ROOT    
