@<TRIPOS>MOLECULE
ZINC50633810_1807
28   29    1
SMALL
USER_CHARGES


@<TRIPOS>ATOM
      1 C1         -1.2848   49.8205   23.1952 C.ar      1 UNK         0.0000 
      2 C2         -1.2146   48.4336   23.3677 C.ar      1 UNK         0.0000 
      3 C3         -1.3810   47.8978   24.6467 C.ar      1 UNK         0.0000 
      4 N4         -1.6210   48.7191   25.6817 N.pl3     1 UNK         0.0000 
      5 C5         -1.7301   50.0523   25.5583 C.ar      1 UNK         0.0000 
      6 C6         -1.5458   50.6371   24.3017 C.ar      1 UNK         0.0000 
      7 S7         -1.6519   52.4058   24.1021 S.o2      1 UNK         0.0000 
      8 O8         -2.2314   52.8967   25.3575 O.2       1 UNK         0.0000 
      9 O9         -2.4485   52.5698   22.8817 O.2       1 UNK         0.0000 
     10 N10        -0.1347   52.7468   23.8848 N.2       1 UNK         0.0000 
     11 C11         0.8002   52.8967   24.8817 C.ar      1 UNK         0.0000 
     12 C12         0.6438   52.4967   26.2212 C.ar      1 UNK         0.0000 
     13 C13         1.6414   52.7119   27.1711 C.ar      1 UNK         0.0000 
     14 C14         2.8279   53.3354   26.7995 C.ar      1 UNK         0.0000 
     15 C15         3.0180   53.7260   25.4771 C.ar      1 UNK         0.0000 
     16 C16         2.0151   53.4995   24.5333 C.ar      1 UNK         0.0000 
     17 Cl17        4.4911   54.4967   25.0133 Cl        1 UNK         0.0000 
     18 Cl18        1.4105   52.1966   28.8025 Cl        1 UNK         0.0000 
     19 N19        -1.2956   46.5214   24.8817 N.pl3     1 UNK         0.0000 
     20 H20        -1.1408   50.2599   22.2176 H         1 UNK         0.0000 
     21 H21        -1.0149   47.7944   22.5209 H         1 UNK         0.0000 
     22 H22        -1.9475   50.5888   26.4726 H         1 UNK         0.0000 
     23 H23        -0.2628   52.0285   26.5573 H         1 UNK         0.0000 
     24 H24         3.6049   53.5038   27.5307 H         1 UNK         0.0000 
     25 H25         2.1779   53.8158   23.5126 H         1 UNK         0.0000 
     26 H26        -1.1832   45.8965   24.0997 H         1 UNK         0.0000 
     27 H27        -1.1199   46.2035   25.8294 H         1 UNK         0.0000 
     28 H28        -1.6956   48.3294   26.6239 H         1 UNK         0.0000 
@<TRIPOS>BOND
     1    1    6 ar   
     2    1    2 ar   
     3    1   20 1    
     4    2    3 ar   
     5    2   21 1    
     6    3    4 ar   
     7    3   19 1    
     8    4    5 ar   
     9    4   28 1    
    10    5    6 ar   
    11    5   22 1    
    12    6    7 1    
    13    7    8 2    
    14    7    9 2    
    15    7   10 1    
    16   10   11 1    
    17   11   16 ar   
    18   11   12 ar   
    19   12   13 ar   
    20   12   23 1    
    21   13   14 ar   
    22   13   18 1    
    23   14   15 ar   
    24   14   24 1    
    25   15   16 ar   
    26   15   17 1    
    27   16   25 1    
    28   19   26 1    
    29   19   27 1    
@<TRIPOS>SUBSTRUCTURE
     1 UNK         1 GROUP             0       ****    0 ROOT    
