@<TRIPOS>MOLECULE
ZINC12850440_5266
55   58    1
SMALL
USER_CHARGES


@<TRIPOS>ATOM
      1 C1          7.6043   55.6028   17.7993 C.3       1 UNK         0.0000 
      2 C2          8.0859   54.3362   17.0728 C.3       1 UNK         0.0000 
      3 C3          6.9548   53.3490   16.6990 C.3       1 UNK         0.0000 
      4 H4          6.5371   53.0524   17.6640 H         1 UNK         0.0000 
      5 C5          7.4884   52.0552   16.0258 C.3       1 UNK         0.0000 
      6 C6          7.8941   52.2400   14.5487 C.3       1 UNK         0.0000 
      7 C7          6.7887   52.9490   13.7506 C.3       1 UNK         0.0000 
      8 C8          6.3176   54.2388   14.4569 C.3       1 UNK         0.0000 
      9 N9          5.8729   53.8932   15.8264 N.am      1 UNK         0.0000 
     10 C10         4.5699   53.5123   16.0004 C.2       1 UNK         0.0000 
     11 O11         3.8065   53.2612   15.0648 O.2       1 UNK         0.0000 
     12 C12         4.0884   53.4359   17.3648 C.ar      1 UNK         0.0000 
     13 C13         4.3046   54.3443   18.3311 C.ar      1 UNK         0.0000 
     14 C14         3.9127   53.8227   19.5363 C.ar      1 UNK         0.0000 
     15 N15         3.9077   54.2504   20.7959 N.pl3     1 UNK         0.0000 
     16 C16         3.5125   53.4792   21.9731 C.3       1 UNK         0.0000 
     17 H17         2.4698   53.7541   22.1441 H         1 UNK         0.0000 
     18 C18         3.5932   51.9720   21.6133 C.3       1 UNK         0.0000 
     19 C19         3.0083   51.5777   20.2229 C.3       1 UNK         0.0000 
     20 H20         3.4540   50.6311   19.9093 H         1 UNK         0.0000 
     21 N21         3.4679   52.5942   19.2660 N.pl3     1 UNK         0.0000 
     22 N22         3.5044   52.3157   17.9210 N.pl3     1 UNK         0.0000 
     23 C23         1.4738   51.3879   20.2211 C.3       1 UNK         0.0000 
     24 F24         1.0185   51.0349   19.0197 F         1 UNK         0.0000 
     25 F25         1.1176   50.4246   21.0714 F         1 UNK         0.0000 
     26 F26         0.8291   52.4962   20.5874 F         1 UNK         0.0000 
     27 C27         4.3083   53.8588   23.2199 C.ar      1 UNK         0.0000 
     28 C28         5.7014   54.0015   23.1603 C.ar      1 UNK         0.0000 
     29 C29         6.4250   54.3812   24.2886 C.ar      1 UNK         0.0000 
     30 C30         5.7684   54.6108   25.4974 C.ar      1 UNK         0.0000 
     31 C31         4.3758   54.4637   25.5722 C.ar      1 UNK         0.0000 
     32 C32         3.6529   54.0964   24.4334 C.ar      1 UNK         0.0000 
     33 Cl33        3.5219   54.7227   27.0545 Cl        1 UNK         0.0000 
     34 Cl34        6.7038   55.0722   26.8762 Cl        1 UNK         0.0000 
     35 H35         8.4474   56.2523   18.0398 H         1 UNK         0.0000 
     36 H36         7.1010   55.3554   18.7354 H         1 UNK         0.0000 
     37 H37         6.9126   56.1803   17.1850 H         1 UNK         0.0000 
     38 H38         8.6422   54.6315   16.1812 H         1 UNK         0.0000 
     39 H39         8.8063   53.8265   17.7144 H         1 UNK         0.0000 
     40 H40         8.3114   51.6352   16.6043 H         1 UNK         0.0000 
     41 H41         6.7051   51.2980   16.0669 H         1 UNK         0.0000 
     42 H42         8.8127   52.8272   14.4982 H         1 UNK         0.0000 
     43 H43         8.1274   51.2757   14.0964 H         1 UNK         0.0000 
     44 H44         7.1532   53.1963   12.7524 H         1 UNK         0.0000 
     45 H45         5.9435   52.2774   13.5939 H         1 UNK         0.0000 
     46 H46         7.1480   54.9367   14.5516 H         1 UNK         0.0000 
     47 H47         5.5629   54.8059   13.9113 H         1 UNK         0.0000 
     48 H48         4.7713   55.3091   18.1946 H         1 UNK         0.0000 
     49 H49         3.1087   51.3874   22.3970 H         1 UNK         0.0000 
     50 H50         4.6419   51.6705   21.6316 H         1 UNK         0.0000 
     51 H51         3.8857   51.3897   17.7007 H         1 UNK         0.0000 
     52 H52         6.2310   53.8270   22.2361 H         1 UNK         0.0000 
     53 H53         7.4984   54.4909   24.2217 H         1 UNK         0.0000 
     54 H54         2.5789   53.9889   24.5003 H         1 UNK         0.0000 
     55 H55         4.1690   55.2116   20.9617 H         1 UNK         0.0000 
@<TRIPOS>BOND
     1    1    2 1    
     2    1   35 1    
     3    1   36 1    
     4    1   37 1    
     5    2    3 1    
     6    2   38 1    
     7    2   39 1    
     8    3    4 1    
     9    3    9 1    
    10    3    5 1    
    11    5    6 1    
    12    5   40 1    
    13    5   41 1    
    14    6    7 1    
    15    6   42 1    
    16    6   43 1    
    17    7    8 1    
    18    7   44 1    
    19    7   45 1    
    20    8    9 1    
    21    8   46 1    
    22    8   47 1    
    23    9   10 am   BACKBONE|DICT|INTERRES
    24   10   11 2    
    25   10   12 1    
    26   12   22 ar   
    27   12   13 ar   
    28   13   14 ar   
    29   13   48 1    
    30   14   21 ar   
    31   14   15 2    
    32   15   16 1    
    33   15   55 1    
    34   16   17 1    
    35   16   18 1    
    36   16   27 1    
    37   18   19 1    
    38   18   49 1    
    39   18   50 1    
    40   19   20 1    
    41   19   21 1    
    42   19   23 1    
    43   21   22 1    
    44   22   51 1    
    45   23   24 1    
    46   23   25 1    
    47   23   26 1    
    48   27   32 ar   
    49   27   28 ar   
    50   28   29 ar   
    51   28   52 1    
    52   29   30 ar   
    53   29   53 1    
    54   30   31 ar   
    55   30   34 1    
    56   31   32 ar   
    57   31   33 1    
    58   32   54 1    
@<TRIPOS>SUBSTRUCTURE
     1 UNK         1 GROUP             0       ****    0 ROOT    
