ZINC33043977_3573
                    3D
 Schrodinger Suite 2024-2.
 43 45  0  0  1  0            999 V2000
    6.6869   53.8819   27.1119 C   0  0  0  0  0  0
    6.6673   54.2162   25.6080 C   0  0  0  0  0  0
    5.5823   55.2514   25.2616 C   0  0  0  0  0  0
    4.1718   54.8617   25.7709 C   0  0  1  0  0  0
    3.5388   55.7404   25.6828 H   0  0  0  0  0  0
    3.5149   53.7620   24.9013 C   0  0  0  0  0  0
    2.1409   53.3145   25.4116 C   0  0  0  0  0  0
    1.1877   53.1586   24.5738 N   0  0  0  0  0  0
    0.0423   52.6688   25.0800 N   0  0  0  0  0  0
   -1.0788   52.4563   24.3647 C   0  0  0  0  0  0
   -1.1421   52.4962   23.1310 O   0  0  0  0  0  0
   -2.3179   52.2323   25.1993 C   0  0  0  0  0  0
   -2.3617   51.3915   26.3357 C   0  0  0  0  0  0
   -3.5716   51.2954   27.0473 C   0  0  0  0  0  0
   -4.6932   52.0210   26.6150 C   0  0  0  0  0  0
   -4.5704   52.8180   25.4699 C   0  0  0  0  0  0
   -3.4130   52.9155   24.7768 N   0  0  0  0  0  0
   -5.9060   53.7459   24.8818 Cl  0  0  0  0  0  0
   -6.1984   51.9512   27.4823 Cl  0  0  0  0  0  0
   -3.6557   50.4918   28.1933 N   0  0  0  0  0  0
   -0.9680   50.4967   26.8740 Cl  0  0  0  0  0  0
    2.1305   53.0172   26.9408 C   0  0  0  0  0  0
    2.7803   54.1588   27.7479 C   0  0  0  0  0  0
    4.2089   54.4966   27.2788 C   0  0  1  0  0  0
    4.5212   55.3807   27.8226 H   0  0  0  0  0  0
    5.2899   53.4372   27.5921 C   0  0  0  0  0  0
    7.0141   54.7540   27.6814 H   0  0  0  0  0  0
    7.4140   53.0940   27.3099 H   0  0  0  0  0  0
    7.6339   54.5950   25.2841 H   0  0  0  0  0  0
    6.5033   53.3013   25.0362 H   0  0  0  0  0  0
    5.5616   55.4062   24.1827 H   0  0  0  0  0  0
    5.8736   56.2107   25.6818 H   0  0  0  0  0  0
    4.1660   52.9026   24.8938 H   0  0  0  0  0  0
    3.4398   54.0999   23.8651 H   0  0  0  0  0  0
    0.0427   52.5219   26.0785 H   0  0  0  0  0  0
   -2.8729   49.8509   28.3342 H   0  0  0  0  0  0
   -4.5669   50.1197   28.4126 H   0  0  0  0  0  0
    1.1230   52.8545   27.3209 H   0  0  0  0  0  0
    2.6763   52.0967   27.1315 H   0  0  0  0  0  0
    2.1529   55.0492   27.6828 H   0  0  0  0  0  0
    2.7996   53.8807   28.8027 H   0  0  0  0  0  0
    5.3049   53.2223   28.6600 H   0  0  0  0  0  0
    5.0239   52.4968   27.1207 H   0  0  0  0  0  0
  1 26  1  0  0  0
  1  2  1  0  0  0
  1 27  1  0  0  0
  1 28  1  0  0  0
  2  3  1  0  0  0
  2 29  1  0  0  0
  2 30  1  0  0  0
  3  4  1  0  0  0
  3 31  1  0  0  0
  3 32  1  0  0  0
  4  5  1  0  0  0
  4 24  1  0  0  0
  4  6  1  0  0  0
  6  7  1  0  0  0
  6 33  1  0  0  0
  6 34  1  0  0  0
  7  8  2  0  0  0
  7 22  1  0  0  0
  8  9  1  0  0  0
  9 10  1  0  0  0
  9 35  1  0  0  0
 10 11  2  0  0  0
 10 12  1  0  0  0
 12 17  2  0  0  0
 12 13  1  0  0  0
 13 14  2  0  0  0
 13 21  1  0  0  0
 14 15  1  0  0  0
 14 20  1  0  0  0
 15 16  2  0  0  0
 15 19  1  0  0  0
 16 17  1  0  0  0
 16 18  1  0  0  0
 20 36  1  0  0  0
 20 37  1  0  0  0
 22 23  1  0  0  0
 22 38  1  0  0  0
 22 39  1  0  0  0
 23 24  1  0  0  0
 23 40  1  0  0  0
 23 41  1  0  0  0
 24 25  1  0  0  0
 24 26  1  0  0  0
 26 42  1  0  0  0
 26 43  1  0  0  0
M  END
> <i_i_glide_confnum>
12

> <i_i_glide_lignum>
3574

> <i_i_glide_posenum>
279

> <i_i_glide_rotatable_bonds>
3

> <i_m_Source_File_Index>
1833

> <b_m_subgroup_collapsed>
0

> <r_i_docking_score>
-5.37167

> <r_i_glide_ecoul>
-2.85191

> <r_i_glide_eff_state_penalty>
0

> <r_i_glide_einternal>
5.30361

> <r_i_glide_emodel>
-42.3263

> <r_i_glide_energy>
-34.1182

> <r_i_glide_erotb>
0.385136

> <r_i_glide_esite>
-0.1

> <r_i_glide_evdw>
-31.2663

> <r_i_glide_gscore>
-5.37167

> <r_i_glide_hbond>
-0.16

> <r_i_glide_ligand_efficiency>
-0.223819

> <r_i_glide_ligand_efficiency_ln>
-1.28569

> <r_i_glide_ligand_efficiency_sa>
-0.645607

> <r_i_glide_lipo>
-2.30958

> <r_i_glide_metal>
0

> <r_i_glide_rewards>
-1.19612

> <s_i_glide_gridfile>
wee1_glide-grid

> <s_m_Source_File>
wee1_decoys_glide_SP.sdf

> <s_m_Source_Path>
/Users/zhangxujun/Desktop

> <s_m_entry_id>
2108

> <s_m_entry_name>
wee1_decoys_glide_SP.1833

> <s_m_subgroup_title>
wee1_decoys_glide_SP

> <s_m_subgroupid>
wee1_decoys_glide_SP


$$$$
