@<TRIPOS>MOLECULE
ZINC17157807_2300
68   72    1
SMALL
USER_CHARGES


@<TRIPOS>ATOM
      1 C1          1.8834   56.3409   29.4886 C.3       1 UNK         0.0000 
      2 C2          1.1045   55.2179   28.7862 C.3       1 UNK         0.0000 
      3 H3          0.3315   55.6669   28.1613 H         1 UNK         0.0000 
      4 C4          0.4258   54.2382   29.7788 C.3       1 UNK         0.0000 
      5 C5          1.4417   53.2643   30.4106 C.3       1 UNK         0.0000 
      6 H6          2.2295   53.8416   30.8815 H         1 UNK         0.0000 
      7 C7          2.0924   52.4527   29.2758 C.3       1 UNK         0.0000 
      8 N8          2.7595   53.3798   28.3268 N.pl3     1 UNK         0.0000 
      9 C9          1.9217   54.4474   27.7465 C.3       1 UNK         0.0000 
     10 S10         4.4956   53.6675   28.4129 S.o2      1 UNK         0.0000 
     11 O11         5.1045   52.4259   28.8816 O.2       1 UNK         0.0000 
     12 O12         4.7242   54.8967   29.1737 O.2       1 UNK         0.0000 
     13 C13         5.0289   53.9682   26.7178 C.ar      1 UNK         0.0000 
     14 C14         4.1603   53.7228   25.6502 C.ar      1 UNK         0.0000 
     15 C15         4.5409   54.0160   24.3480 C.ar      1 UNK         0.0000 
     16 C16         5.8275   54.4956   24.0773 C.ar      1 UNK         0.0000 
     17 C17         6.6967   54.7350   25.1529 C.ar      1 UNK         0.0000 
     18 C18         6.3005   54.4833   26.4680 C.ar      1 UNK         0.0000 
     19 C19         6.3043   54.7047   22.6547 C.2       1 UNK         0.0000 
     20 O20         7.4991   54.8965   22.4296 O.2       1 UNK         0.0000 
     21 N21         5.3626   54.6686   21.6737 N.am      1 UNK         0.0000 
     22 N22         5.7666   54.7145   20.3227 N.am      1 UNK         0.0000 
     23 C23         6.3792   55.8063   19.8008 C.2       1 UNK         0.0000 
     24 O24         6.3766   56.9054   20.3642 O.2       1 UNK         0.0000 
     25 C25         7.1895   55.6238   18.4865 C.3       1 UNK         0.0000 
     26 C26         8.7036   55.6846   18.8698 C.3       1 UNK         0.0000 
     27 C27         9.5808   55.5485   17.5996 C.3       1 UNK         0.0000 
     28 C28         9.2848   54.1895   16.9120 C.3       1 UNK         0.0000 
     29 C29         7.7883   54.1218   16.5078 C.3       1 UNK         0.0000 
     30 C30         6.9083   54.2524   17.7773 C.3       1 UNK         0.0000 
     31 C31         7.4604   55.2840   15.5334 C.3       1 UNK         0.0000 
     32 C32         7.7488   56.6453   16.2213 C.3       1 UNK         0.0000 
     33 C33         9.2472   56.7077   16.6228 C.3       1 UNK         0.0000 
     34 C34         6.8647   56.7824   17.4908 C.3       1 UNK         0.0000 
     35 C35         0.7943   52.3827   31.4828 C.3       1 UNK         0.0000 
     36 H36         2.7032   55.9518   30.0818 H         1 UNK         0.0000 
     37 H37         2.3030   57.0415   28.7688 H         1 UNK         0.0000 
     38 H38         1.2380   56.9123   30.1569 H         1 UNK         0.0000 
     39 H39        -0.3699   53.6742   29.2885 H         1 UNK         0.0000 
     40 H40        -0.0948   54.7998   30.5564 H         1 UNK         0.0000 
     41 H41         1.3385   51.8913   28.7209 H         1 UNK         0.0000 
     42 H42         2.8193   51.7356   29.6579 H         1 UNK         0.0000 
     43 H43         2.5815   55.1531   27.2449 H         1 UNK         0.0000 
     44 H44         1.2865   53.9882   26.9883 H         1 UNK         0.0000 
     45 H45         3.1848   53.2892   25.8011 H         1 UNK         0.0000 
     46 H46         3.8339   53.8032   23.5593 H         1 UNK         0.0000 
     47 H47         7.6914   55.1065   24.9600 H         1 UNK         0.0000 
     48 H48         6.9756   54.6777   27.2905 H         1 UNK         0.0000 
     49 H49         4.5534   54.0765   21.7851 H         1 UNK         0.0000 
     50 H50         5.8543   53.7959   19.9125 H         1 UNK         0.0000 
     51 H51         8.9603   54.8937   19.5782 H         1 UNK         0.0000 
     52 H52         8.9478   56.6228   19.3735 H         1 UNK         0.0000 
     53 H53        10.6344   55.5945   17.8804 H         1 UNK         0.0000 
     54 H54         9.5359   53.3636   17.5817 H         1 UNK         0.0000 
     55 H55         9.9181   54.0661   16.0313 H         1 UNK         0.0000 
     56 H56         7.5846   53.1667   16.0203 H         1 UNK         0.0000 
     57 H57         5.8551   54.1673   17.5020 H         1 UNK         0.0000 
     58 H58         7.1196   53.4095   18.4382 H         1 UNK         0.0000 
     59 H59         6.4164   55.2323   15.2201 H         1 UNK         0.0000 
     60 H60         8.0524   55.1881   14.6215 H         1 UNK         0.0000 
     61 H61         7.5216   57.4590   15.5305 H         1 UNK         0.0000 
     62 H62         9.8786   56.6455   15.7353 H         1 UNK         0.0000 
     63 H63         9.4738   57.6690   17.0866 H         1 UNK         0.0000 
     64 H64         7.0401   57.7586   17.9486 H         1 UNK         0.0000 
     65 H65         5.8097   56.7683   17.2117 H         1 UNK         0.0000 
     66 H66        -0.0056   51.7654   31.0697 H         1 UNK         0.0000 
     67 H67         1.5237   51.7158   31.9440 H         1 UNK         0.0000 
     68 H68         0.3566   52.9830   32.2820 H         1 UNK         0.0000 
@<TRIPOS>BOND
     1    1    2 1    
     2    1   36 1    
     3    1   37 1    
     4    1   38 1    
     5    2    3 1    
     6    2    9 1    
     7    2    4 1    
     8    4    5 1    
     9    4   39 1    
    10    4   40 1    
    11    5    6 1    
    12    5    7 1    
    13    5   35 1    
    14    7    8 1    
    15    7   41 1    
    16    7   42 1    
    17    8    9 1    
    18    8   10 1    
    19    9   43 1    
    20    9   44 1    
    21   10   11 2    
    22   10   12 2    
    23   10   13 1    
    24   13   18 ar   
    25   13   14 ar   
    26   14   15 ar   
    27   14   45 1    
    28   15   16 ar   
    29   15   46 1    
    30   16   17 ar   
    31   16   19 1    
    32   17   18 ar   
    33   17   47 1    
    34   18   48 1    
    35   19   20 2    
    36   19   21 am   BACKBONE|DICT|INTERRES
    37   21   22 1    
    38   21   49 1    
    39   22   23 am   BACKBONE|DICT|INTERRES
    40   22   50 1    
    41   23   24 2    
    42   23   25 1    
    43   25   30 1    
    44   25   34 1    
    45   25   26 1    
    46   26   27 1    
    47   26   51 1    
    48   26   52 1    
    49   27   33 1    
    50   27   28 1    
    51   27   53 1    
    52   28   29 1    
    53   28   54 1    
    54   28   55 1    
    55   29   30 1    
    56   29   31 1    
    57   29   56 1    
    58   30   57 1    
    59   30   58 1    
    60   31   32 1    
    61   31   59 1    
    62   31   60 1    
    63   32   33 1    
    64   32   34 1    
    65   32   61 1    
    66   33   62 1    
    67   33   63 1    
    68   34   64 1    
    69   34   65 1    
    70   35   66 1    
    71   35   67 1    
    72   35   68 1    
@<TRIPOS>SUBSTRUCTURE
     1 UNK         1 GROUP             0       ****    0 ROOT    
