@<TRIPOS>MOLECULE
ZINC11181570_2242
58   61    1
SMALL
USER_CHARGES


@<TRIPOS>ATOM
      1 C1         -1.6905   56.7592   15.7502 C.ar      1 UNK         0.0000 
      2 C2         -0.7985   57.7459   15.3372 C.ar      1 UNK         0.0000 
      3 C3          0.5428   57.6584   15.7021 C.ar      1 UNK         0.0000 
      4 C4          0.9995   56.5890   16.4821 C.ar      1 UNK         0.0000 
      5 C5          0.0899   55.5992   16.8817 C.ar      1 UNK         0.0000 
      6 C6         -1.2523   55.6839   16.5183 C.ar      1 UNK         0.0000 
      7 C7          2.4249   56.5684   16.8826 C.2       1 UNK         0.0000 
      8 C8          3.0270   55.6527   17.6765 C.2       1 UNK         0.0000 
      9 C9          4.4222   55.7516   18.0629 C.2       1 UNK         0.0000 
     10 O10         5.0253   56.8227   17.9589 O.2       1 UNK         0.0000 
     11 N11         5.0319   54.6344   18.5589 N.am      1 UNK         0.0000 
     12 C12         4.3786   53.3420   18.8408 C.3       1 UNK         0.0000 
     13 C13         3.9130   53.3691   20.3155 C.3       1 UNK         0.0000 
     14 C14         5.0414   53.8112   21.2889 C.3       1 UNK         0.0000 
     15 C15         5.9934   54.9306   20.7671 C.3       1 UNK         0.0000 
     16 C16         6.3186   54.7629   19.2614 C.3       1 UNK         0.0000 
     17 C17         4.5620   54.0960   22.7273 C.2       1 UNK         0.0000 
     18 O18         3.3590   54.1411   22.9848 O.2       1 UNK         0.0000 
     19 N19         5.5465   54.2049   23.6448 N.am      1 UNK         0.0000 
     20 C20         5.4653   54.3279   25.0405 C.ar      1 UNK         0.0000 
     21 C21         6.6574   54.6326   25.6960 C.ar      1 UNK         0.0000 
     22 C22         6.7045   54.6756   27.0876 C.ar      1 UNK         0.0000 
     23 C23         5.5631   54.4087   27.8371 C.ar      1 UNK         0.0000 
     24 C24         4.3547   54.0973   27.1961 C.ar      1 UNK         0.0000 
     25 C25         4.3101   54.0816   25.7992 C.ar      1 UNK         0.0000 
     26 N26         3.1694   53.7316   27.8564 N.am      1 UNK         0.0000 
     27 C27         2.9025   53.6994   29.1771 C.2       1 UNK         0.0000 
     28 O28         3.6401   54.0975   30.0793 O.2       1 UNK         0.0000 
     29 C29         1.6188   53.1379   29.4802 C.2       1 UNK         0.0000 
     30 C30         0.8446   52.1653   28.8451 C.2       1 UNK         0.0000 
     31 C31        -0.2582   51.9251   29.6677 C.2       1 UNK         0.0000 
     32 C32        -0.0944   52.7400   30.7751 C.2       1 UNK         0.0000 
     33 O33         1.0538   53.4516   30.6748 O.3       1 UNK         0.0000 
     34 H34        -2.7316   56.8279   15.4685 H         1 UNK         0.0000 
     35 H35        -1.1447   58.5787   14.7426 H         1 UNK         0.0000 
     36 H36         1.2222   58.4398   15.3896 H         1 UNK         0.0000 
     37 H37         0.4056   54.7619   17.4868 H         1 UNK         0.0000 
     38 H38        -1.9499   54.9214   16.8322 H         1 UNK         0.0000 
     39 H39         3.0183   57.3894   16.4995 H         1 UNK         0.0000 
     40 H40         2.4683   54.8233   18.0741 H         1 UNK         0.0000 
     41 H41         3.6220   53.0718   18.1035 H         1 UNK         0.0000 
     42 H42         5.1287   52.5625   18.6983 H         1 UNK         0.0000 
     43 H43         3.1047   54.0958   20.3396 H         1 UNK         0.0000 
     44 H44         3.5402   52.3738   20.5596 H         1 UNK         0.0000 
     45 H45         5.7029   52.9532   21.4034 H         1 UNK         0.0000 
     46 H46         6.9475   54.9346   21.2955 H         1 UNK         0.0000 
     47 H47         5.5153   55.9098   20.8415 H         1 UNK         0.0000 
     48 H48         6.8787   53.8431   19.0829 H         1 UNK         0.0000 
     49 H49         6.9575   55.5374   18.8342 H         1 UNK         0.0000 
     50 H50         6.4859   54.2085   23.2810 H         1 UNK         0.0000 
     51 H51         7.5548   54.8168   25.1227 H         1 UNK         0.0000 
     52 H52         7.6265   54.8966   27.6038 H         1 UNK         0.0000 
     53 H53         5.6588   54.4306   28.9104 H         1 UNK         0.0000 
     54 H54         3.3842   53.8117   25.3168 H         1 UNK         0.0000 
     55 H55         2.4300   53.4132   27.2491 H         1 UNK         0.0000 
     56 H56         1.0577   51.6694   27.9091 H         1 UNK         0.0000 
     57 H57        -1.0641   51.2236   29.4936 H         1 UNK         0.0000 
     58 H58        -0.6564   52.8968   31.6816 H         1 UNK         0.0000 
@<TRIPOS>BOND
     1    1    6 ar   
     2    1    2 ar   
     3    1   34 1    
     4    2    3 ar   
     5    2   35 1    
     6    3    4 ar   
     7    3   36 1    
     8    4    5 ar   
     9    4    7 1    
    10    5    6 ar   
    11    5   37 1    
    12    6   38 1    
    13    7    8 2    
    14    7   39 1    
    15    8    9 1    
    16    8   40 1    
    17    9   10 2    
    18    9   11 am   BACKBONE|DICT|INTERRES
    19   11   16 1    
    20   11   12 1    
    21   12   13 1    
    22   12   41 1    
    23   12   42 1    
    24   13   14 1    
    25   13   43 1    
    26   13   44 1    
    27   14   15 1    
    28   14   17 1    
    29   14   45 1    
    30   15   16 1    
    31   15   46 1    
    32   15   47 1    
    33   16   48 1    
    34   16   49 1    
    35   17   18 2    
    36   17   19 am   BACKBONE|DICT|INTERRES
    37   19   20 1    
    38   19   50 1    
    39   20   25 ar   
    40   20   21 ar   
    41   21   22 ar   
    42   21   51 1    
    43   22   23 ar   
    44   22   52 1    
    45   23   24 ar   
    46   23   53 1    
    47   24   25 ar   
    48   24   26 1    
    49   25   54 1    
    50   26   27 am   BACKBONE|DICT|INTERRES
    51   26   55 1    
    52   27   28 2    
    53   27   29 1    
    54   29   33 1    
    55   29   30 2    
    56   30   31 1    
    57   30   56 1    
    58   31   32 2    
    59   31   57 1    
    60   32   33 1    
    61   32   58 1    
@<TRIPOS>SUBSTRUCTURE
     1 UNK         1 GROUP             0       ****    0 ROOT    
