@<TRIPOS>MOLECULE
ZINC39683933_6192
64   65    1
SMALL
USER_CHARGES


@<TRIPOS>ATOM
      1 C1          6.7045   54.9735   26.4184 C.3       1 UNK         0.0000 
      2 C2          6.8740   55.5851   25.0174 C.3       1 UNK         0.0000 
      3 C3          6.5110   54.6299   23.8643 C.3       1 UNK         0.0000 
      4 C4          5.0077   54.2990   23.7987 C.3       1 UNK         0.0000 
      5 C5          4.5603   53.6385   22.4722 C.3       1 UNK         0.0000 
      6 C6          3.0763   53.8552   22.0827 C.3       1 UNK         0.0000 
      7 C7          2.0425   53.6300   23.2068 C.2       1 UNK         0.0000 
      8 O8          1.9456   54.4918   24.0817 O.2       1 UNK         0.0000 
      9 N9          1.2592   52.5235   23.2118 N.am      1 UNK         0.0000 
     10 C10         1.2125   51.5017   22.1658 C.3       1 UNK         0.0000 
     11 C11        -0.0342   50.6575   22.5102 C.3       1 UNK         0.0000 
     12 H12         0.2077   49.6225   22.2782 H         1 UNK         0.0000 
     13 C13        -0.2551   50.8503   24.0448 C.3       1 UNK         0.0000 
     14 C14         0.2880   52.2767   24.2808 C.3       1 UNK         0.0000 
     15 C15         0.6368   49.8523   24.8397 C.3       1 UNK         0.0000 
     16 C16         0.1360   48.3964   24.7141 C.3       1 UNK         0.0000 
     17 N17        -1.2971   48.3176   25.2818 N.4       1 UNK         0.0000 
     18 C18        -2.2569   49.3011   24.5756 C.3       1 UNK         0.0000 
     19 C19        -1.6684   50.7205   24.6910 C.3       1 UNK         0.0000 
     20 C20        -1.2462   51.0392   21.6313 C.2       1 UNK         0.0000 
     21 O21        -1.8492   52.0970   21.8099 O.2       1 UNK         0.0000 
     22 N22        -1.5748   50.1596   20.6663 N.am      1 UNK         0.0000 
     23 C23        -2.6942   50.2600   19.7210 C.3       1 UNK         0.0000 
     24 H24        -2.5913   49.4132   19.0413 H         1 UNK         0.0000 
     25 C25        -4.0347   50.0906   20.4671 C.3       1 UNK         0.0000 
     26 C26        -2.6497   51.5155   18.8237 C.2       1 UNK         0.0000 
     27 O27        -3.6956   52.0971   18.5434 O.2       1 UNK         0.0000 
     28 N28        -1.4417   51.9063   18.3926 N.am      1 UNK         0.0000 
     29 C29        -1.2197   53.0417   17.5054 C.3       1 UNK         0.0000 
     30 H30         6.9960   55.6779   27.1976 H         1 UNK         0.0000 
     31 H31         5.6671   54.6961   26.6105 H         1 UNK         0.0000 
     32 H32         7.3127   54.0761   26.5380 H         1 UNK         0.0000 
     33 H33         7.9032   55.9145   24.8810 H         1 UNK         0.0000 
     34 H34         6.2723   56.4930   24.9437 H         1 UNK         0.0000 
     35 H35         7.0965   53.7116   23.9347 H         1 UNK         0.0000 
     36 H36         6.8176   55.1066   22.9320 H         1 UNK         0.0000 
     37 H37         4.4490   55.2214   23.9522 H         1 UNK         0.0000 
     38 H38         4.7310   53.6594   24.6378 H         1 UNK         0.0000 
     39 H39         4.7930   52.5728   22.4816 H         1 UNK         0.0000 
     40 H40         5.1580   54.0420   21.6531 H         1 UNK         0.0000 
     41 H41         2.8387   53.2894   21.1845 H         1 UNK         0.0000 
     42 H42         2.9714   54.8964   21.7804 H         1 UNK         0.0000 
     43 H43         2.0949   50.8645   22.2421 H         1 UNK         0.0000 
     44 H44         1.1561   51.8863   21.1455 H         1 UNK         0.0000 
     45 H45        -0.5297   52.9849   24.1315 H         1 UNK         0.0000 
     46 H46         0.6486   52.4325   25.2992 H         1 UNK         0.0000 
     47 H47         1.6655   49.9031   24.4800 H         1 UNK         0.0000 
     48 H48         0.6939   50.1284   25.8953 H         1 UNK         0.0000 
     49 H49         0.0833   48.0274   23.6915 H         1 UNK         0.0000 
     50 H50         0.7410   47.6985   25.2817 H         1 UNK         0.0000 
     51 H51        -1.6446   47.3738   25.2004 H         1 UNK         0.0000 
     52 H52        -2.3644   48.9641   23.5438 H         1 UNK         0.0000 
     53 H53        -3.2178   49.2091   25.0846 H         1 UNK         0.0000 
     54 H54        -1.6320   51.0112   25.7423 H         1 UNK         0.0000 
     55 H55        -2.3635   51.4288   24.2386 H         1 UNK         0.0000 
     56 H56        -1.0153   49.3275   20.5603 H         1 UNK         0.0000 
     57 H57        -4.8817   50.0917   19.7776 H         1 UNK         0.0000 
     58 H58        -4.0621   49.1459   21.0125 H         1 UNK         0.0000 
     59 H59        -4.1974   50.8912   21.1890 H         1 UNK         0.0000 
     60 H60        -0.6272   51.3866   18.6826 H         1 UNK         0.0000 
     61 H61        -0.3703   52.8379   16.8525 H         1 UNK         0.0000 
     62 H62        -0.9924   53.9382   18.0815 H         1 UNK         0.0000 
     63 H63        -2.0839   53.2507   16.8696 H         1 UNK         0.0000 
     64 H64        -1.2846   48.5062   26.2833 H         1 UNK         0.0000 
@<TRIPOS>BOND
     1    1    2 1    
     2    1   30 1    
     3    1   31 1    
     4    1   32 1    
     5    2    3 1    
     6    2   33 1    
     7    2   34 1    
     8    3    4 1    
     9    3   35 1    
    10    3   36 1    
    11    4    5 1    
    12    4   37 1    
    13    4   38 1    
    14    5    6 1    
    15    5   39 1    
    16    5   40 1    
    17    6    7 1    
    18    6   41 1    
    19    6   42 1    
    20    7    8 2    
    21    7    9 am   BACKBONE|DICT|INTERRES
    22    9   14 1    
    23    9   10 1    
    24   10   11 1    
    25   10   43 1    
    26   10   44 1    
    27   11   12 1    
    28   11   13 1    
    29   11   20 1    
    30   13   19 1    
    31   13   14 1    
    32   13   15 1    
    33   14   45 1    
    34   14   46 1    
    35   15   16 1    
    36   15   47 1    
    37   15   48 1    
    38   16   17 1    
    39   16   49 1    
    40   16   50 1    
    41   17   18 1    
    42   17   51 1    
    43   17   64 1    
    44   18   19 1    
    45   18   52 1    
    46   18   53 1    
    47   19   54 1    
    48   19   55 1    
    49   20   21 2    
    50   20   22 am   BACKBONE|DICT|INTERRES
    51   22   23 1    
    52   22   56 1    
    53   23   24 1    
    54   23   25 1    
    55   23   26 1    
    56   25   57 1    
    57   25   58 1    
    58   25   59 1    
    59   26   27 2    
    60   26   28 am   BACKBONE|DICT|INTERRES
    61   28   29 1    
    62   28   60 1    
    63   29   61 1    
    64   29   62 1    
    65   29   63 1    
@<TRIPOS>SUBSTRUCTURE
     1 UNK         1 GROUP             0       ****    0 ROOT    
