@<TRIPOS>MOLECULE
ZINC12864958_419
53   57    1
SMALL
USER_CHARGES


@<TRIPOS>ATOM
      1 C1          5.0376   52.2109   21.2219 C.3       1 UNK         0.0000 
      2 C2          4.6510   53.6986   21.3119 C.3       1 UNK         0.0000 
      3 H3          4.2265   53.9620   20.3417 H         1 UNK         0.0000 
      4 C4          5.8481   54.6539   21.5208 C.3       1 UNK         0.0000 
      5 C5          6.5543   54.4495   22.8854 C.3       1 UNK         0.0000 
      6 C6          5.4916   54.3737   23.9738 C.2       1 UNK         0.0000 
      7 C7          4.1298   54.1386   23.7452 C.2       1 UNK         0.0000 
      8 C8          3.4201   54.0044   24.9436 C.2       1 UNK         0.0000 
      9 C9          4.1964   54.1700   26.0854 C.2       1 UNK         0.0000 
     10 S10         5.8512   54.4972   25.6703 S.3       1 UNK         0.0000 
     11 C11         3.7448   54.0610   27.4557 C.2       1 UNK         0.0000 
     12 N12         4.3627   54.3906   28.5664 N.2       1 UNK         0.0000 
     13 N13         3.4921   54.0556   29.6041 N.2       1 UNK         0.0000 
     14 C14         2.4472   53.5098   29.0299 C.2       1 UNK         0.0000 
     15 O15         2.5272   53.5136   27.6795 O.3       1 UNK         0.0000 
     16 S16         0.9748   52.8960   29.7741 S.3       1 UNK         0.0000 
     17 C17         0.6655   51.4775   28.6646 C.3       1 UNK         0.0000 
     18 C18        -0.3825   51.7595   27.5878 C.2       1 UNK         0.0000 
     19 O19        -0.0503   52.3941   26.5879 O.2       1 UNK         0.0000 
     20 N20        -1.6263   51.3002   27.8509 N.am      1 UNK         0.0000 
     21 C21        -2.7927   51.4567   27.0983 C.2       1 UNK         0.0000 
     22 C22        -4.1167   51.2544   27.5692 C.2       1 UNK         0.0000 
     23 C23        -5.0540   51.6299   26.5848 C.2       1 UNK         0.0000 
     24 C24        -4.4879   51.9863   25.3843 C.2       1 UNK         0.0000 
     25 S25        -2.7670   51.9871   25.4208 S.3       1 UNK         0.0000 
     26 C26        -5.5060   52.2979   24.3241 C.3       1 UNK         0.0000 
     27 C27        -6.8027   51.8090   24.9872 C.3       1 UNK         0.0000 
     28 C28        -6.5540   51.7631   26.5041 C.3       1 UNK         0.0000 
     29 C29        -4.5208   50.8957   28.9149 C.2       1 UNK         0.0000 
     30 O30        -5.5402   51.3422   29.4357 O.2       1 UNK         0.0000 
     31 N31        -3.6957   50.0967   29.5828 N.am      1 UNK         0.0000 
     32 C32         3.5346   53.9825   22.3495 C.3       1 UNK         0.0000 
     33 H33         5.5122   51.8516   22.1345 H         1 UNK         0.0000 
     34 H34         4.1629   51.5855   21.0429 H         1 UNK         0.0000 
     35 H35         5.7223   52.0389   20.3919 H         1 UNK         0.0000 
     36 H36         5.5140   55.6890   21.4315 H         1 UNK         0.0000 
     37 H37         6.5802   54.4984   20.7258 H         1 UNK         0.0000 
     38 H38         7.2563   55.2631   23.0757 H         1 UNK         0.0000 
     39 H39         7.1330   53.5252   22.8820 H         1 UNK         0.0000 
     40 H40         2.3624   53.7874   24.9782 H         1 UNK         0.0000 
     41 H41         0.3096   50.6564   29.2816 H         1 UNK         0.0000 
     42 H42         1.5878   51.1274   28.2005 H         1 UNK         0.0000 
     43 H43        -1.7528   50.8397   28.7410 H         1 UNK         0.0000 
     44 H44        -5.3277   51.7561   23.3943 H         1 UNK         0.0000 
     45 H45        -5.5486   53.3625   24.0933 H         1 UNK         0.0000 
     46 H46        -7.0354   50.8031   24.6306 H         1 UNK         0.0000 
     47 H47        -7.6582   52.4350   24.7293 H         1 UNK         0.0000 
     48 H48        -6.8918   52.6885   26.9718 H         1 UNK         0.0000 
     49 H49        -7.0922   50.9401   26.9800 H         1 UNK         0.0000 
     50 H50        -2.9997   49.5205   29.1166 H         1 UNK         0.0000 
     51 H51        -3.8635   49.9089   30.5588 H         1 UNK         0.0000 
     52 H52         2.7874   53.1891   22.3288 H         1 UNK         0.0000 
     53 H53         2.9958   54.8920   22.0794 H         1 UNK         0.0000 
@<TRIPOS>BOND
     1    1    2 1    
     2    1   33 1    
     3    1   34 1    
     4    1   35 1    
     5    2    3 1    
     6    2   32 1    
     7    2    4 1    
     8    4    5 1    
     9    4   36 1    
    10    4   37 1    
    11    5    6 1    
    12    5   38 1    
    13    5   39 1    
    14    6   10 1    
    15    6    7 2    
    16    7    8 1    
    17    7   32 1    
    18    8    9 2    
    19    8   40 1    
    20    9   10 1    
    21    9   11 1    
    22   11   15 1    
    23   11   12 2    
    24   12   13 1    
    25   13   14 2    
    26   14   15 1    
    27   14   16 1    
    28   16   17 1    
    29   17   18 1    
    30   17   41 1    
    31   17   42 1    
    32   18   19 2    
    33   18   20 am   BACKBONE|DICT|INTERRES
    34   20   21 am   BACKBONE|DICT|INTERRES
    35   20   43 1    
    36   21   25 1    
    37   21   22 2    
    38   22   23 1    
    39   22   29 1    
    40   23   28 1    
    41   23   24 2    
    42   24   25 1    
    43   24   26 1    
    44   26   27 1    
    45   26   44 1    
    46   26   45 1    
    47   27   28 1    
    48   27   46 1    
    49   27   47 1    
    50   28   48 1    
    51   28   49 1    
    52   29   30 2    
    53   29   31 am   BACKBONE|DICT|INTERRES
    54   31   50 1    
    55   31   51 1    
    56   32   52 1    
    57   32   53 1    
@<TRIPOS>SUBSTRUCTURE
     1 UNK         1 GROUP             0       ****    0 ROOT    
