@<TRIPOS>MOLECULE
ZINC20753137_4936
64   67    1
SMALL
USER_CHARGES


@<TRIPOS>ATOM
      1 C1         -1.2238   49.8347   25.6322 C.3       1 UNK         0.0000 
      2 C2         -1.6599   51.2590   26.0584 C.3       1 UNK         0.0000 
      3 C3         -2.2567   51.9747   24.8181 C.3       1 UNK         0.0000 
      4 C4         -2.7986   51.1218   27.1022 C.3       1 UNK         0.0000 
      5 C5         -0.4651   52.0887   26.6655 C.3       1 UNK         0.0000 
      6 H6         -0.9057   52.9855   27.1033 H         1 UNK         0.0000 
      7 C7          0.2749   51.3767   27.8214 C.3       1 UNK         0.0000 
      8 C8          1.1785   52.3856   28.5320 C.3       1 UNK         0.0000 
      9 C9          2.1963   52.9820   27.5635 C.ar      1 UNK         0.0000 
     10 C10         1.9058   53.1270   26.1890 C.ar      1 UNK         0.0000 
     11 C11         2.9034   53.7000   25.3573 C.ar      1 UNK         0.0000 
     12 C12         4.1666   54.0874   25.9364 C.ar      1 UNK         0.0000 
     13 C13         5.2477   54.6917   25.2186 C.ar      1 UNK         0.0000 
     14 C14         6.4609   54.9648   25.8391 C.ar      1 UNK         0.0000 
     15 C15         6.6437   54.6751   27.1859 C.ar      1 UNK         0.0000 
     16 C16         5.6115   54.1207   27.9333 C.ar      1 UNK         0.0000 
     17 C17         4.3672   53.8259   27.3247 C.ar      1 UNK         0.0000 
     18 N18         3.3980   53.2930   28.1016 N.ar      1 UNK         0.0000 
     19 C19         2.6319   53.9459   23.8998 C.2       1 UNK         0.0000 
     20 O20         1.6182   54.4967   23.4712 O.2       1 UNK         0.0000 
     21 O21         3.5927   53.3996   23.1025 O.3       1 UNK         0.0000 
     22 C22         3.6455   53.6001   21.6817 C.3       1 UNK         0.0000 
     23 C23         3.0119   52.4312   20.9059 C.2       1 UNK         0.0000 
     24 O24         3.3337   52.2750   19.7316 O.2       1 UNK         0.0000 
     25 N25         2.0817   51.6951   21.5497 N.am      1 UNK         0.0000 
     26 C26         1.2956   50.6217   21.0938 C.ar      1 UNK         0.0000 
     27 C27         0.3308   50.1573   21.9902 C.ar      1 UNK         0.0000 
     28 C28        -0.5145   49.1031   21.6490 C.ar      1 UNK         0.0000 
     29 C29        -0.4095   48.5071   20.3938 C.ar      1 UNK         0.0000 
     30 C30         0.5448   48.9639   19.4819 C.ar      1 UNK         0.0000 
     31 C31         1.4045   50.0112   19.8315 C.ar      1 UNK         0.0000 
     32 S32         0.6596   48.2365   17.8520 S.o2      1 UNK         0.0000 
     33 O33        -0.1863   47.0357   17.8413 O.2       1 UNK         0.0000 
     34 O34         0.4635   49.3183   16.8811 O.2       1 UNK         0.0000 
     35 N35         2.3043   47.6964   17.7188 N.pl3     1 UNK         0.0000 
     36 C36         0.5958   52.5308   25.6167 C.3       1 UNK         0.0000 
     37 H37        -0.8839   49.2431   26.4815 H         1 UNK         0.0000 
     38 H38        -2.0490   49.2815   25.1783 H         1 UNK         0.0000 
     39 H39        -0.4071   49.8422   24.9150 H         1 UNK         0.0000 
     40 H40        -2.5286   53.0065   25.0463 H         1 UNK         0.0000 
     41 H41        -1.5615   51.9948   23.9784 H         1 UNK         0.0000 
     42 H42        -3.1593   51.4754   24.4604 H         1 UNK         0.0000 
     43 H43        -3.1157   52.0940   27.4840 H         1 UNK         0.0000 
     44 H44        -3.6807   50.6441   26.6744 H         1 UNK         0.0000 
     45 H45        -2.5095   50.5033   27.9549 H         1 UNK         0.0000 
     46 H46        -0.4350   50.9980   28.5570 H         1 UNK         0.0000 
     47 H47         0.8154   50.4965   27.4746 H         1 UNK         0.0000 
     48 H48         1.6714   51.9103   29.3818 H         1 UNK         0.0000 
     49 H49         0.5793   53.1956   28.9503 H         1 UNK         0.0000 
     50 H50         5.1479   54.9338   24.1715 H         1 UNK         0.0000 
     51 H51         7.2573   55.4058   25.2594 H         1 UNK         0.0000 
     52 H52         7.5838   54.8965   27.6700 H         1 UNK         0.0000 
     53 H53         5.7555   53.9140   28.9847 H         1 UNK         0.0000 
     54 H54         3.1045   54.5017   21.3891 H         1 UNK         0.0000 
     55 H55         4.6816   53.7474   21.3729 H         1 UNK         0.0000 
     56 H56         1.8988   51.9823   22.4997 H         1 UNK         0.0000 
     57 H57         0.2269   50.6195   22.9571 H         1 UNK         0.0000 
     58 H58        -1.2562   48.7561   22.3519 H         1 UNK         0.0000 
     59 H59        -1.0774   47.6977   20.1346 H         1 UNK         0.0000 
     60 H60         2.1333   50.3348   19.1033 H         1 UNK         0.0000 
     61 H61         2.3935   46.7797   17.2777 H         1 UNK         0.0000 
     62 H62         2.9550   48.3821   17.2828 H         1 UNK         0.0000 
     63 H63         0.1245   53.2503   24.9495 H         1 UNK         0.0000 
     64 H64         0.8791   51.6808   24.9992 H         1 UNK         0.0000 
@<TRIPOS>BOND
     1    1    2 1    
     2    1   37 1    
     3    1   38 1    
     4    1   39 1    
     5    2    3 1    
     6    2    4 1    
     7    2    5 1    
     8    3   40 1    
     9    3   41 1    
    10    3   42 1    
    11    4   43 1    
    12    4   44 1    
    13    4   45 1    
    14    5    6 1    
    15    5   36 1    
    16    5    7 1    
    17    7    8 1    
    18    7   46 1    
    19    7   47 1    
    20    8    9 1    
    21    8   48 1    
    22    8   49 1    
    23    9   18 ar   
    24    9   10 ar   
    25   10   11 ar   
    26   10   36 1    
    27   11   12 ar   
    28   11   19 1    
    29   12   17 ar   
    30   12   13 ar   
    31   13   14 ar   
    32   13   50 1    
    33   14   15 ar   
    34   14   51 1    
    35   15   16 ar   
    36   15   52 1    
    37   16   17 ar   
    38   16   53 1    
    39   17   18 ar   
    40   19   20 2    
    41   19   21 1    
    42   21   22 1    
    43   22   23 1    
    44   22   54 1    
    45   22   55 1    
    46   23   24 2    
    47   23   25 am   BACKBONE|DICT|INTERRES
    48   25   26 1    
    49   25   56 1    
    50   26   31 ar   
    51   26   27 ar   
    52   27   28 ar   
    53   27   57 1    
    54   28   29 ar   
    55   28   58 1    
    56   29   30 ar   
    57   29   59 1    
    58   30   31 ar   
    59   30   32 1    
    60   31   60 1    
    61   32   33 2    
    62   32   34 2    
    63   32   35 1    
    64   35   61 1    
    65   35   62 1    
    66   36   63 1    
    67   36   64 1    
@<TRIPOS>SUBSTRUCTURE
     1 UNK         1 GROUP             0       ****    0 ROOT    
