ZINC32961862_5918
                    3D
 Schrodinger Suite 2024-2.
 59 62  0  0  1  0            999 V2000
    6.4574   54.6233   26.5677 C   0  0  0  0  0  0
    5.2883   53.9536   27.2868 C   0  0  0  0  0  0
    5.5506   53.2970   28.4818 C   0  0  0  0  0  0
    4.5361   52.6529   29.1789 C   0  0  0  0  0  0
    3.2412   52.6615   28.6779 C   0  0  0  0  0  0
    2.9222   53.3255   27.4844 C   0  0  0  0  0  0
    3.9717   53.9819   26.7833 C   0  0  0  0  0  0
    3.7385   54.7878   25.5105 C   0  0  0  0  0  0
    1.5971   53.2927   27.0351 N   0  0  0  0  0  0
    0.4371   53.1011   27.9237 C   0  0  0  0  0  0
   -0.1430   51.6687   27.8674 C   0  0  0  0  0  0
   -0.6163   51.3241   26.5264 N   0  0  0  0  0  0
    0.4302   51.5597   25.5303 C   0  0  0  0  0  0
    1.2590   52.8589   25.6693 C   0  0  0  0  0  0
   -1.9569   51.3952   26.1645 C   0  0  0  0  0  0
   -2.6063   52.6320   26.1514 C   0  0  0  0  0  0
   -3.9305   52.7495   25.7433 C   0  0  0  0  0  0
   -4.6513   51.6233   25.3305 C   0  0  0  0  0  0
   -4.0001   50.3812   25.3235 C   0  0  0  0  0  0
   -2.6618   50.2598   25.7175 C   0  0  0  0  0  0
   -2.0441   49.0008   25.6809 N   0  0  0  0  0  0
   -1.8206   48.1285   24.1600 S   0  0  0  0  0  0
   -3.1283   48.0346   23.4993 O   0  0  0  0  0  0
   -1.0522   46.9209   24.4813 O   0  0  0  0  0  0
   -0.7766   49.1906   23.1622 C   0  0  0  0  0  0
   -1.3596   50.1089   22.2840 C   0  0  0  0  0  0
   -0.5504   50.9541   21.5275 C   0  0  0  0  0  0
    0.8355   50.8743   21.6489 C   0  0  0  0  0  0
    1.4211   49.9655   22.5283 C   0  0  0  0  0  0
    0.6110   49.1297   23.2936 C   0  0  0  0  0  0
   -6.0823   51.7494   24.9048 C   0  0  0  0  0  0
   -6.7207   52.7489   25.3087 O   0  0  0  0  0  0
   -6.5518   50.8538   24.1693 O   0  5  0  0  0  0
    6.5703   54.2118   25.5619 H   0  0  0  0  0  0
    6.2905   55.6961   26.4705 H   0  0  0  0  0  0
    7.4041   54.4818   27.0918 H   0  0  0  0  0  0
    6.5540   53.2965   28.8815 H   0  0  0  0  0  0
    4.7519   52.1340   30.1012 H   0  0  0  0  0  0
    2.4877   52.1245   29.2343 H   0  0  0  0  0  0
    4.2893   54.3526   24.6754 H   0  0  0  0  0  0
    2.7042   54.8967   25.2132 H   0  0  0  0  0  0
    4.1226   55.7918   25.6808 H   0  0  0  0  0  0
   -0.3331   53.8274   27.6820 H   0  0  0  0  0  0
    0.7114   53.3277   28.9539 H   0  0  0  0  0  0
   -0.9724   51.5917   28.5726 H   0  0  0  0  0  0
    0.6018   50.9375   28.1868 H   0  0  0  0  0  0
    1.1037   50.7094   25.6423 H   0  0  0  0  0  0
    0.0239   51.5115   24.5208 H   0  0  0  0  0  0
    2.1517   52.7337   25.0566 H   0  0  0  0  0  0
    0.7042   53.6878   25.2301 H   0  0  0  0  0  0
   -2.0950   53.5185   26.4788 H   0  0  0  0  0  0
   -4.3976   53.7249   25.7582 H   0  0  0  0  0  0
   -4.5409   49.4991   25.0060 H   0  0  0  0  0  0
   -1.3960   48.7860   26.4302 H   0  0  0  0  0  0
   -2.4342   50.1704   22.1948 H   0  0  0  0  0  0
   -0.9944   51.6662   20.8483 H   0  0  0  0  0  0
    1.4637   51.5284   21.0592 H   0  0  0  0  0  0
    2.4950   49.9159   22.6305 H   0  0  0  0  0  0
    1.0649   48.4502   23.9978 H   0  0  0  0  0  0
  1  2  1  0  0  0
  1 34  1  0  0  0
  1 35  1  0  0  0
  1 36  1  0  0  0
  2  7  2  0  0  0
  2  3  1  0  0  0
  3  4  2  0  0  0
  3 37  1  0  0  0
  4  5  1  0  0  0
  4 38  1  0  0  0
  5  6  2  0  0  0
  5 39  1  0  0  0
  6  7  1  0  0  0
  6  9  1  0  0  0
  7  8  1  0  0  0
  8 40  1  0  0  0
  8 41  1  0  0  0
  8 42  1  0  0  0
  9 14  1  0  0  0
  9 10  1  0  0  0
 10 11  1  0  0  0
 10 43  1  0  0  0
 10 44  1  0  0  0
 11 12  1  0  0  0
 11 45  1  0  0  0
 11 46  1  0  0  0
 12 13  1  0  0  0
 12 15  1  0  0  0
 13 14  1  0  0  0
 13 47  1  0  0  0
 13 48  1  0  0  0
 14 49  1  0  0  0
 14 50  1  0  0  0
 15 20  2  0  0  0
 15 16  1  0  0  0
 16 17  2  0  0  0
 16 51  1  0  0  0
 17 18  1  0  0  0
 17 52  1  0  0  0
 18 19  2  0  0  0
 18 31  1  0  0  0
 19 20  1  0  0  0
 19 53  1  0  0  0
 20 21  1  0  0  0
 21 22  1  0  0  0
 21 54  1  0  0  0
 22 23  2  0  0  0
 22 24  2  0  0  0
 22 25  1  0  0  0
 25 30  2  0  0  0
 25 26  1  0  0  0
 26 27  2  0  0  0
 26 55  1  0  0  0
 27 28  1  0  0  0
 27 56  1  0  0  0
 28 29  2  0  0  0
 28 57  1  0  0  0
 29 30  1  0  0  0
 29 58  1  0  0  0
 30 59  1  0  0  0
 31 32  2  0  0  0
 31 33  1  0  0  0
M  CHG  1  33  -1
M  END
> <i_i_glide_confnum>
132

> <i_i_glide_lignum>
5919

> <i_i_glide_posenum>
382

> <i_i_glide_rotatable_bonds>
6

> <i_m_Source_File_Index>
4340

> <b_m_subgroup_collapsed>
0

> <r_i_docking_score>
-4.68145

> <r_i_glide_ecoul>
-1.17156

> <r_i_glide_eff_state_penalty>
0

> <r_i_glide_einternal>
4.54734

> <r_i_glide_emodel>
-47.5212

> <r_i_glide_energy>
-36.0317

> <r_i_glide_erotb>
0.467077

> <r_i_glide_esite>
-0.244966

> <r_i_glide_evdw>
-34.8601

> <r_i_glide_gscore>
-4.68145

> <r_i_glide_hbond>
-0.122784

> <r_i_glide_ligand_efficiency>
-0.141862

> <r_i_glide_ligand_efficiency_ln>
-1.04113

> <r_i_glide_ligand_efficiency_sa>
-0.455028

> <r_i_glide_lipo>
-2.52814

> <r_i_glide_metal>
0

> <r_i_glide_rewards>
-0.333898

> <s_i_glide_gridfile>
wee1_glide-grid

> <s_m_Source_File>
wee1_decoys_glide_SP.sdf

> <s_m_Source_Path>
/Users/zhangxujun/Desktop

> <s_m_entry_id>
4615

> <s_m_entry_name>
wee1_decoys_glide_SP.4340

> <s_m_subgroup_title>
wee1_decoys_glide_SP

> <s_m_subgroupid>
wee1_decoys_glide_SP


$$$$
