@<TRIPOS>MOLECULE
ZINC20746115_169
48   51    1
SMALL
USER_CHARGES


@<TRIPOS>ATOM
      1 C1          6.9356   55.5427   19.0204 C.3       1 UNK         0.0000 
      2 O2          6.6413   55.3014   20.3898 O.3       1 UNK         0.0000 
      3 C3          5.5078   54.6476   20.7489 C.2       1 UNK         0.0000 
      4 O4          4.6530   54.2726   19.9441 O.2       1 UNK         0.0000 
      5 C5          5.3746   54.4865   22.2329 C.ar      1 UNK         0.0000 
      6 C6          6.4522   54.7045   23.1074 C.ar      1 UNK         0.0000 
      7 C7          6.2914   54.5510   24.4837 C.ar      1 UNK         0.0000 
      8 C8          5.0538   54.1850   25.0089 C.ar      1 UNK         0.0000 
      9 C9          3.9659   53.9660   24.1604 C.ar      1 UNK         0.0000 
     10 C10         4.1387   54.0974   22.7719 C.ar      1 UNK         0.0000 
     11 N11         2.7668   53.5386   24.7590 N.am      1 UNK         0.0000 
     12 C12         1.5115   53.6010   24.2612 C.2       1 UNK         0.0000 
     13 O13         1.2353   54.2945   23.2834 O.2       1 UNK         0.0000 
     14 N14         0.5589   52.8963   24.9419 N.am      1 UNK         0.0000 
     15 C15        -0.8446   52.9252   24.4571 C.3       1 UNK         0.0000 
     16 C16        -1.1051   51.6443   23.6192 C.3       1 UNK         0.0000 
     17 C17        -0.7255   50.4494   24.4769 C.ar      1 UNK         0.0000 
     18 C18         0.1319   50.5841   25.5659 C.ar      1 UNK         0.0000 
     19 N19         0.2536   49.3141   26.0622 N.pl3     1 UNK         0.0000 
     20 H20         0.7858   49.0121   26.8664 H         1 UNK         0.0000 
     21 C21        -0.5598   48.5345   25.2815 C.ar      1 UNK         0.0000 
     22 N22        -1.1541   49.2064   24.3247 N.2       1 UNK         0.0000 
     23 C23         0.8325   51.8786   26.0022 C.3       1 UNK         0.0000 
     24 H24         1.9014   51.6980   25.9855 H         1 UNK         0.0000 
     25 C25         0.6214   52.3647   27.4476 C.ar      1 UNK         0.0000 
     26 C26        -0.1734   51.6611   28.3648 C.ar      1 UNK         0.0000 
     27 C27        -0.2845   52.1004   29.6832 C.ar      1 UNK         0.0000 
     28 C28         0.3964   53.2441   30.0922 C.ar      1 UNK         0.0000 
     29 C29         1.1653   53.9675   29.1872 C.ar      1 UNK         0.0000 
     30 C30         1.2782   53.5274   27.8729 C.ar      1 UNK         0.0000 
     31 Br31        0.3006   53.8166   31.9031 Br        1 UNK         0.0000 
     32 H32         7.8962   56.0506   18.9302 H         1 UNK         0.0000 
     33 H33         6.9954   54.6064   18.4623 H         1 UNK         0.0000 
     34 H34         6.1713   56.1710   18.5602 H         1 UNK         0.0000 
     35 H35         7.4274   54.9900   22.7360 H         1 UNK         0.0000 
     36 H36         7.1316   54.7114   25.1421 H         1 UNK         0.0000 
     37 H37         4.9511   54.0615   26.0781 H         1 UNK         0.0000 
     38 H38         3.3117   53.9004   22.1030 H         1 UNK         0.0000 
     39 H39         2.8796   53.0772   25.6479 H         1 UNK         0.0000 
     40 H40        -1.4931   52.9425   25.3346 H         1 UNK         0.0000 
     41 H41        -1.0939   53.8584   23.9511 H         1 UNK         0.0000 
     42 H42        -2.1532   51.5994   23.3235 H         1 UNK         0.0000 
     43 H43        -0.5223   51.6723   22.6978 H         1 UNK         0.0000 
     44 H44        -0.6726   47.4852   25.5080 H         1 UNK         0.0000 
     45 H45        -0.7063   50.7653   28.0790 H         1 UNK         0.0000 
     46 H46        -0.8856   51.5439   30.3907 H         1 UNK         0.0000 
     47 H47         1.6831   54.8598   29.5065 H         1 UNK         0.0000 
     48 H48         1.8916   54.0979   27.1939 H         1 UNK         0.0000 
@<TRIPOS>BOND
     1    1    2 1    
     2    1   32 1    
     3    1   33 1    
     4    1   34 1    
     5    2    3 1    
     6    3    4 2    
     7    3    5 1    
     8    5   10 ar   
     9    5    6 ar   
    10    6    7 ar   
    11    6   35 1    
    12    7    8 ar   
    13    7   36 1    
    14    8    9 ar   
    15    8   37 1    
    16    9   10 ar   
    17    9   11 1    
    18   10   38 1    
    19   11   12 am   BACKBONE|DICT|INTERRES
    20   11   39 1    
    21   12   13 2    
    22   12   14 am   BACKBONE|DICT|INTERRES
    23   14   23 1    
    24   14   15 1    
    25   15   16 1    
    26   15   40 1    
    27   15   41 1    
    28   16   17 1    
    29   16   42 1    
    30   16   43 1    
    31   17   22 ar   
    32   17   18 ar   
    33   18   19 ar   
    34   18   23 1    
    35   19   20 1    
    36   19   21 ar   
    37   21   22 ar   
    38   21   44 1    
    39   23   24 1    
    40   23   25 1    
    41   25   30 ar   
    42   25   26 ar   
    43   26   27 ar   
    44   26   45 1    
    45   27   28 ar   
    46   27   46 1    
    47   28   29 ar   
    48   28   31 1    
    49   29   30 ar   
    50   29   47 1    
    51   30   48 1    
@<TRIPOS>SUBSTRUCTURE
     1 UNK         1 GROUP             0       ****    0 ROOT    
