@<TRIPOS>MOLECULE
ZINC67181471_1721
33   35    1
SMALL
USER_CHARGES


@<TRIPOS>ATOM
      1 C1          4.1008   53.2582   20.0208 C.3       1 UNK         0.0000 
      2 C2          5.1722   54.2670   20.3846 C.2       1 UNK         0.0000 
      3 C3          5.9649   54.9204   19.4268 C.2       1 UNK         0.0000 
      4 C4          6.9815   55.6975   19.9592 C.2       1 UNK         0.0000 
      5 S5          7.0145   55.6184   21.6819 S.3       1 UNK         0.0000 
      6 C6          5.6048   54.5924   21.6846 C.2       1 UNK         0.0000 
      7 C7          5.1311   54.0858   22.9462 C.2       1 UNK         0.0000 
      8 O8          5.9215   53.6982   23.8073 O.2       1 UNK         0.0000 
      9 N9          3.7804   54.0740   23.0528 N.am      1 UNK         0.0000 
     10 N10         3.1033   53.5432   24.1730 N.am      1 UNK         0.0000 
     11 C11         3.1814   54.0966   25.4091 C.2       1 UNK         0.0000 
     12 O12         3.9045   55.0588   25.6816 O.2       1 UNK         0.0000 
     13 C13         2.3044   53.4800   26.4890 C.ar      1 UNK         0.0000 
     14 C14         1.3379   52.4977   26.1922 C.ar      1 UNK         0.0000 
     15 C15         0.5080   51.9265   27.1626 C.ar      1 UNK         0.0000 
     16 C16         0.6620   52.3913   28.4683 C.ar      1 UNK         0.0000 
     17 C17         1.6151   53.3815   28.8104 C.ar      1 UNK         0.0000 
     18 C18         2.4417   53.9233   27.8165 C.ar      1 UNK         0.0000 
     19 N19         1.5713   53.6698   30.1507 N.2       1 UNK         0.0000 
     20 C20         0.6304   52.8893   30.6211 C.ar      1 UNK         0.0000 
     21 N21         0.0441   52.0966   29.6632 N.pl3     1 UNK         0.0000 
     22 H22        -0.6920   51.4287   29.8556 H         1 UNK         0.0000 
     23 H23         3.1043   53.6965   20.0286 H         1 UNK         0.0000 
     24 H24         4.2673   52.8189   19.0352 H         1 UNK         0.0000 
     25 H25         4.0868   52.4143   20.7107 H         1 UNK         0.0000 
     26 H26         5.8124   54.8030   18.3635 H         1 UNK         0.0000 
     27 H27         7.7253   56.2689   19.4228 H         1 UNK         0.0000 
     28 H28         3.1711   54.5770   22.4236 H         1 UNK         0.0000 
     29 H29         2.8709   52.5701   24.0421 H         1 UNK         0.0000 
     30 H30         1.2063   52.1484   25.1784 H         1 UNK         0.0000 
     31 H31        -0.2176   51.1651   26.9114 H         1 UNK         0.0000 
     32 H32         3.1689   54.6791   28.0778 H         1 UNK         0.0000 
     33 H33         0.3031   52.8218   31.6513 H         1 UNK         0.0000 
@<TRIPOS>BOND
     1    1    2 1    
     2    1   23 1    
     3    1   24 1    
     4    1   25 1    
     5    2    6 2    
     6    2    3 1    
     7    3    4 2    
     8    3   26 1    
     9    4    5 1    
    10    4   27 1    
    11    5    6 1    
    12    6    7 1    
    13    7    8 2    
    14    7    9 am   BACKBONE|DICT|INTERRES
    15    9   10 1    
    16    9   28 1    
    17   10   11 am   BACKBONE|DICT|INTERRES
    18   10   29 1    
    19   11   12 2    
    20   11   13 1    
    21   13   18 ar   
    22   13   14 ar   
    23   14   15 ar   
    24   14   30 1    
    25   15   16 ar   
    26   15   31 1    
    27   16   21 ar   
    28   16   17 ar   
    29   17   18 ar   
    30   17   19 ar   
    31   18   32 1    
    32   19   20 ar   
    33   20   21 ar   
    34   20   33 1    
    35   21   22 1    
@<TRIPOS>SUBSTRUCTURE
     1 UNK         1 GROUP             0       ****    0 ROOT    
