@<TRIPOS>MOLECULE
ZINC52094937_1806
34   36    1
SMALL
USER_CHARGES


@<TRIPOS>ATOM
      1 C1          2.4444   53.3394   26.4692 C.ar      1 UNK         0.0000 
      2 C2          3.7261   53.8710   26.7138 C.ar      1 UNK         0.0000 
      3 C3          4.5159   54.2766   25.6106 C.ar      1 UNK         0.0000 
      4 C4          4.0166   54.1900   24.3041 C.ar      1 UNK         0.0000 
      5 C5          2.7379   53.6802   24.1100 C.ar      1 UNK         0.0000 
      6 C6          1.9806   53.2597   25.1624 C.ar      1 UNK         0.0000 
      7 N7          0.8131   52.7708   24.6296 N.pl3     1 UNK         0.0000 
      8 H8          0.0647   52.3475   25.1578 H         1 UNK         0.0000 
      9 C9          0.8087   52.8632   23.2858 C.ar      1 UNK         0.0000 
     10 O10        -0.0726   52.4958   22.5159 O.2       1 UNK         0.0000 
     11 N11         1.9879   53.4447   22.9788 N.pl3     1 UNK         0.0000 
     12 H12         2.2716   53.6533   22.0319 H         1 UNK         0.0000 
     13 Br13        6.3040   54.9093   25.8346 Br        1 UNK         0.0000 
     14 C14         4.2751   53.9863   28.1479 C.3       1 UNK         0.0000 
     15 H15         4.9120   54.8705   28.1871 H         1 UNK         0.0000 
     16 C16         3.2294   54.1995   29.2810 C.3       1 UNK         0.0000 
     17 H17         3.8104   54.3038   30.2003 H         1 UNK         0.0000 
     18 C18         2.4475   55.5304   29.1360 C.3       1 UNK         0.0000 
     19 C19         1.2732   55.6613   30.1001 C.3       1 UNK         0.0000 
     20 C20         0.4324   54.3794   30.1075 C.3       1 UNK         0.0000 
     21 C21         1.3053   53.1547   30.4164 C.3       1 UNK         0.0000 
     22 O22         2.3981   53.0467   29.5043 O.3       1 UNK         0.0000 
     23 O23         5.1108   52.8965   28.4815 O.3       1 UNK         0.0000 
     24 H24         1.8169   52.9845   27.2696 H         1 UNK         0.0000 
     25 H25         4.6289   54.4956   23.4695 H         1 UNK         0.0000 
     26 H26         2.0749   55.6303   28.1152 H         1 UNK         0.0000 
     27 H27         3.1096   56.3812   29.2813 H         1 UNK         0.0000 
     28 H28         0.6956   56.5372   29.8158 H         1 UNK         0.0000 
     29 H29         1.6316   55.8726   31.1073 H         1 UNK         0.0000 
     30 H30        -0.0513   54.2419   29.1389 H         1 UNK         0.0000 
     31 H31        -0.3667   54.4596   30.8435 H         1 UNK         0.0000 
     32 H32         0.7073   52.2439   30.3585 H         1 UNK         0.0000 
     33 H33         1.6861   53.2215   31.4362 H         1 UNK         0.0000 
     34 H34         5.7376   52.7598   27.7640 H         1 UNK         0.0000 
@<TRIPOS>BOND
     1    1    6 ar   
     2    1    2 ar   
     3    1   24 1    
     4    2    3 ar   
     5    2   14 1    
     6    3    4 ar   
     7    3   13 1    
     8    4    5 ar   
     9    4   25 1    
    10    5   11 ar   
    11    5    6 ar   
    12    6    7 ar   
    13    7    8 1    
    14    7    9 ar   
    15    9   10 2    
    16    9   11 ar   
    17   11   12 1    
    18   14   15 1    
    19   14   16 1    
    20   14   23 1    
    21   16   17 1    
    22   16   22 1    
    23   16   18 1    
    24   18   19 1    
    25   18   26 1    
    26   18   27 1    
    27   19   20 1    
    28   19   28 1    
    29   19   29 1    
    30   20   21 1    
    31   20   30 1    
    32   20   31 1    
    33   21   22 1    
    34   21   32 1    
    35   21   33 1    
    36   23   34 1    
@<TRIPOS>SUBSTRUCTURE
     1 UNK         1 GROUP             0       ****    0 ROOT    
