@<TRIPOS>MOLECULE
ZINC03187039_5274
45   47    1
SMALL
USER_CHARGES


@<TRIPOS>ATOM
      1 C1          0.5252   54.0177   31.6486 C.3       1 UNK         0.0000 
      2 C2          0.8655   53.8820   30.1764 C.ar      1 UNK         0.0000 
      3 C3          1.5092   54.9186   29.4950 C.ar      1 UNK         0.0000 
      4 C4          1.9045   54.7438   28.1677 C.ar      1 UNK         0.0000 
      5 C5          1.6678   53.5317   27.5008 C.ar      1 UNK         0.0000 
      6 C6          0.9954   52.5147   28.1910 C.ar      1 UNK         0.0000 
      7 C7          0.5742   52.6944   29.5028 C.ar      1 UNK         0.0000 
      8 F8         -0.0966   51.6987   30.1193 F         1 UNK         0.0000 
      9 C9          2.2565   53.2205   26.1087 C.3       1 UNK         0.0000 
     10 H10         2.6858   52.2402   26.2965 H         1 UNK         0.0000 
     11 C11         1.2559   53.0113   24.9089 C.3       1 UNK         0.0000 
     12 Cl12        1.9037   51.7437   23.8306 Cl        1 UNK         0.0000 
     13 Cl13       -0.3863   52.4962   25.3926 Cl        1 UNK         0.0000 
     14 Cl14        1.1039   54.4966   23.9275 Cl        1 UNK         0.0000 
     15 N15         3.4055   54.0349   25.6843 N.am      1 UNK         0.0000 
     16 C16         4.6308   54.0968   26.2275 C.2       1 UNK         0.0000 
     17 O17         4.8439   53.8637   27.4134 O.2       1 UNK         0.0000 
     18 N18         5.6429   54.4628   25.4137 N.am      1 UNK         0.0000 
     19 C19         5.7035   54.5584   24.0259 C.2       1 UNK         0.0000 
     20 N20         6.7313   55.1378   23.4876 N.2       1 UNK         0.0000 
     21 C21         6.6651   55.1446   22.1299 C.ar      1 UNK         0.0000 
     22 C22         7.6378   55.6908   21.2818 C.ar      1 UNK         0.0000 
     23 C23         7.4277   55.6346   19.9037 C.ar      1 UNK         0.0000 
     24 C24         6.2724   55.0540   19.3729 C.ar      1 UNK         0.0000 
     25 C25         5.2924   54.4968   20.1983 C.ar      1 UNK         0.0000 
     26 C26         5.5038   54.5419   21.5809 C.ar      1 UNK         0.0000 
     27 S27         4.5075   53.9347   22.8880 S.3       1 UNK         0.0000 
     28 S28         6.0309   55.0046   17.6038 S.o2      1 UNK         0.0000 
     29 O29         4.6043   55.2450   17.3625 O.2       1 UNK         0.0000 
     30 O30         7.0503   55.8633   16.9920 O.2       1 UNK         0.0000 
     31 C31         6.4180   53.2194   17.1624 C.3       1 UNK         0.0000 
     32 H32        -0.5107   53.7632   31.8302 H         1 UNK         0.0000 
     33 H33         1.1046   53.3015   32.2326 H         1 UNK         0.0000 
     34 H34         0.7041   55.0242   32.0280 H         1 UNK         0.0000 
     35 H35         1.7358   55.8484   29.9979 H         1 UNK         0.0000 
     36 H36         2.4404   55.5441   27.6815 H         1 UNK         0.0000 
     37 H37         0.8080   51.5591   27.7218 H         1 UNK         0.0000 
     38 H38         3.3305   54.3856   24.7411 H         1 UNK         0.0000 
     39 H39         6.4988   54.7048   25.8863 H         1 UNK         0.0000 
     40 H40         8.5443   56.1164   21.6861 H         1 UNK         0.0000 
     41 H41         8.1793   56.0438   19.2417 H         1 UNK         0.0000 
     42 H42         4.3989   54.0497   19.7808 H         1 UNK         0.0000 
     43 H43         6.3041   53.0970   16.0871 H         1 UNK         0.0000 
     44 H44         7.4405   52.9956   17.4602 H         1 UNK         0.0000 
     45 H45         5.7221   52.5616   17.6824 H         1 UNK         0.0000 
@<TRIPOS>BOND
     1    1    2 1    
     2    1   32 1    
     3    1   33 1    
     4    1   34 1    
     5    2    7 ar   
     6    2    3 ar   
     7    3    4 ar   
     8    3   35 1    
     9    4    5 ar   
    10    4   36 1    
    11    5    6 ar   
    12    5    9 1    
    13    6    7 ar   
    14    6   37 1    
    15    7    8 1    
    16    9   10 1    
    17    9   11 1    
    18    9   15 1    
    19   11   12 1    
    20   11   13 1    
    21   11   14 1    
    22   15   16 am   BACKBONE|DICT|INTERRES
    23   15   38 1    
    24   16   17 2    
    25   16   18 am   BACKBONE|DICT|INTERRES
    26   18   19 am   BACKBONE|DICT|INTERRES
    27   18   39 1    
    28   19   27 1    
    29   19   20 2    
    30   20   21 1    
    31   21   26 ar   
    32   21   22 ar   
    33   22   23 ar   
    34   22   40 1    
    35   23   24 ar   
    36   23   41 1    
    37   24   25 ar   
    38   24   28 1    
    39   25   26 ar   
    40   25   42 1    
    41   26   27 1    
    42   28   29 2    
    43   28   30 2    
    44   28   31 1    
    45   31   43 1    
    46   31   44 1    
    47   31   45 1    
@<TRIPOS>SUBSTRUCTURE
     1 UNK         1 GROUP             0       ****    0 ROOT    
