@<TRIPOS>MOLECULE
ZINC62353534_6178
29   31    1
SMALL
USER_CHARGES


@<TRIPOS>ATOM
      1 C1         -0.8555   51.2969   28.5074 C.ar      1 UNK         0.0000 
      2 C2         -0.5478   52.2845   29.4292 C.ar      1 UNK         0.0000 
      3 C3          0.4556   53.2174   29.1810 C.ar      1 UNK         0.0000 
      4 C4          1.2473   53.1267   28.0039 C.ar      1 UNK         0.0000 
      5 C5          0.9340   52.0690   27.1110 C.ar      1 UNK         0.0000 
      6 C6         -0.1050   51.1760   27.3505 C.ar      1 UNK         0.0000 
      7 N7         -0.3707   50.1193   26.4817 N.pl3     1 UNK         0.0000 
      8 N8          2.3660   54.0130   27.7829 N.am      1 UNK         0.0000 
      9 C9          2.8951   54.8267   28.9091 C.3       1 UNK         0.0000 
     10 C10         1.7191   55.5892   29.5290 C.3       1 UNK         0.0000 
     11 S11         0.7066   54.4243   30.4556 S.3       1 UNK         0.0000 
     12 C12         3.0860   54.0254   26.6069 C.2       1 UNK         0.0000 
     13 O13         2.5913   53.7780   25.5024 O.2       1 UNK         0.0000 
     14 C14         4.5231   54.2321   26.6828 C.2       1 UNK         0.0000 
     15 C15         5.3750   53.7343   27.6790 C.2       1 UNK         0.0000 
     16 S16         7.0156   54.0966   27.2811 S.3       1 UNK         0.0000 
     17 C17         6.4378   54.8128   25.8141 C.2       1 UNK         0.0000 
     18 N18         5.1415   54.7858   25.6505 N.2       1 UNK         0.0000 
     19 H19        -1.6559   50.6007   28.7186 H         1 UNK         0.0000 
     20 H20        -1.1092   52.3254   30.3511 H         1 UNK         0.0000 
     21 H21         1.5043   51.8836   26.2179 H         1 UNK         0.0000 
     22 H22         0.3263   49.8938   25.7894 H         1 UNK         0.0000 
     23 H23        -0.8721   49.3517   26.9369 H         1 UNK         0.0000 
     24 H24         3.3010   54.1710   29.6797 H         1 UNK         0.0000 
     25 H25         3.6536   55.5515   28.6129 H         1 UNK         0.0000 
     26 H26         2.0612   56.3620   30.2178 H         1 UNK         0.0000 
     27 H27         1.1048   56.0802   28.7720 H         1 UNK         0.0000 
     28 H28         5.1366   53.1741   28.5707 H         1 UNK         0.0000 
     29 H29         7.1095   55.2106   25.0680 H         1 UNK         0.0000 
@<TRIPOS>BOND
     1    1    6 ar   
     2    1    2 ar   
     3    1   19 1    
     4    2    3 ar   
     5    2   20 1    
     6    3   11 1    
     7    3    4 ar   
     8    4    5 ar   
     9    4    8 1    
    10    5    6 ar   
    11    5   21 1    
    12    6    7 1    
    13    7   22 1    
    14    7   23 1    
    15    8    9 1    
    16    8   12 am   BACKBONE|DICT|INTERRES
    17    9   10 1    
    18    9   24 1    
    19    9   25 1    
    20   10   11 1    
    21   10   26 1    
    22   10   27 1    
    23   12   13 2    
    24   12   14 1    
    25   14   18 1    
    26   14   15 2    
    27   15   16 1    
    28   15   28 1    
    29   16   17 1    
    30   17   18 2    
    31   17   29 1    
@<TRIPOS>SUBSTRUCTURE
     1 UNK         1 GROUP             0       ****    0 ROOT    
