@<TRIPOS>MOLECULE
ZINC52010982_1805
43   45    1
SMALL
USER_CHARGES


@<TRIPOS>ATOM
      1 C1          5.6441   54.4974   26.8808 C.ar      1 UNK         0.0000 
      2 C2          6.2635   54.4900   25.6339 C.ar      1 UNK         0.0000 
      3 C3          5.5087   54.3179   24.4718 C.ar      1 UNK         0.0000 
      4 C4          4.1169   54.0989   24.5498 C.ar      1 UNK         0.0000 
      5 C5          3.5111   54.1522   25.8052 C.ar      1 UNK         0.0000 
      6 C6          4.2588   54.3424   26.9678 C.ar      1 UNK         0.0000 
      7 S7          3.4384   54.3723   28.5569 S.o2      1 UNK         0.0000 
      8 O8          4.4182   54.8441   29.5387 O.2       1 UNK         0.0000 
      9 O9          2.1642   55.0753   28.3711 O.2       1 UNK         0.0000 
     10 N10         3.1209   52.6789   28.9428 N.pl3     1 UNK         0.0000 
     11 C11         1.7821   52.0279   28.8601 C.3       1 UNK         0.0000 
     12 H12         1.9096   50.9636   29.0684 H         1 UNK         0.0000 
     13 C13         1.2223   52.0982   27.4214 C.3       1 UNK         0.0000 
     14 C14        -0.0760   51.2961   27.3116 C.3       1 UNK         0.0000 
     15 C15        -1.0913   51.8809   28.2952 C.3       1 UNK         0.0000 
     16 C16        -0.5699   51.9256   29.7506 C.3       1 UNK         0.0000 
     17 C17         0.8056   52.6028   29.9183 C.3       1 UNK         0.0000 
     18 H18         0.6710   53.6680   29.7336 H         1 UNK         0.0000 
     19 O19         1.2606   52.4396   31.2534 O.3       1 UNK         0.0000 
     20 C20         3.2891   53.7847   23.3099 C.3       1 UNK         0.0000 
     21 C21         4.0237   54.2132   22.0361 C.3       1 UNK         0.0000 
     22 C22         5.5021   53.7910   22.0508 C.3       1 UNK         0.0000 
     23 N23         6.1866   54.3088   23.2384 N.pl3     1 UNK         0.0000 
     24 H24         6.2406   54.6371   27.7725 H         1 UNK         0.0000 
     25 H25         7.3325   54.6150   25.5692 H         1 UNK         0.0000 
     26 H26         2.4422   54.0326   25.8651 H         1 UNK         0.0000 
     27 H27         3.7240   52.3072   29.6801 H         1 UNK         0.0000 
     28 H28         1.0109   53.1299   27.1455 H         1 UNK         0.0000 
     29 H29         1.9110   51.7052   26.6884 H         1 UNK         0.0000 
     30 H30         0.0920   50.2392   27.5203 H         1 UNK         0.0000 
     31 H31        -0.4691   51.3506   26.2955 H         1 UNK         0.0000 
     32 H32        -2.0301   51.3269   28.2477 H         1 UNK         0.0000 
     33 H33        -1.2948   52.8950   27.9546 H         1 UNK         0.0000 
     34 H34        -0.4981   50.8967   30.0813 H         1 UNK         0.0000 
     35 H35        -1.2955   52.3924   30.4094 H         1 UNK         0.0000 
     36 H36         0.5009   52.4973   31.8452 H         1 UNK         0.0000 
     37 H37         2.3100   54.2640   23.3623 H         1 UNK         0.0000 
     38 H38         3.1042   52.7108   23.2748 H         1 UNK         0.0000 
     39 H39         3.5224   53.8097   21.1542 H         1 UNK         0.0000 
     40 H40         3.9631   55.2966   21.9409 H         1 UNK         0.0000 
     41 H41         5.5707   52.7050   22.1297 H         1 UNK         0.0000 
     42 H42         6.0203   54.0970   21.1417 H         1 UNK         0.0000 
     43 H43         7.1910   54.2011   23.2346 H         1 UNK         0.0000 
@<TRIPOS>BOND
     1    1    6 ar   
     2    1    2 ar   
     3    1   24 1    
     4    2    3 ar   
     5    2   25 1    
     6    3   23 1    
     7    3    4 ar   
     8    4    5 ar   
     9    4   20 1    
    10    5    6 ar   
    11    5   26 1    
    12    6    7 1    
    13    7    8 2    
    14    7    9 2    
    15    7   10 1    
    16   10   11 1    
    17   10   27 1    
    18   11   12 1    
    19   11   17 1    
    20   11   13 1    
    21   13   14 1    
    22   13   28 1    
    23   13   29 1    
    24   14   15 1    
    25   14   30 1    
    26   14   31 1    
    27   15   16 1    
    28   15   32 1    
    29   15   33 1    
    30   16   17 1    
    31   16   34 1    
    32   16   35 1    
    33   17   18 1    
    34   17   19 1    
    35   19   36 1    
    36   20   21 1    
    37   20   37 1    
    38   20   38 1    
    39   21   22 1    
    40   21   39 1    
    41   21   40 1    
    42   22   23 1    
    43   22   41 1    
    44   22   42 1    
    45   23   43 1    
@<TRIPOS>SUBSTRUCTURE
     1 UNK         1 GROUP             0       ****    0 ROOT    
