@<TRIPOS>MOLECULE
ZINC11592558_1775
56   59    1
SMALL
USER_CHARGES


@<TRIPOS>ATOM
      1 C1         -1.4749   51.6889   23.9350 C.3       1 UNK         0.0000 
      2 C2         -0.0322   51.4528   24.4612 C.3       1 UNK         0.0000 
      3 C3          0.1916   49.9193   24.6517 C.3       1 UNK         0.0000 
      4 C4          0.2911   49.1108   23.3442 C.3       1 UNK         0.0000 
      5 C5          1.3254   49.6967   22.3795 C.2       1 UNK         0.0000 
      6 O6          1.9044   49.0040   21.5465 O.2       1 UNK         0.0000 
      7 C7          1.5127   51.1357   22.4352 C.2       1 UNK         0.0000 
      8 C8          0.9443   51.9473   23.3558 C.2       1 UNK         0.0000 
      9 C9          1.2393   53.4370   23.3942 C.3       1 UNK         0.0000 
     10 C10         2.0637   53.7354   24.6562 C.3       1 UNK         0.0000 
     11 C11         1.6210   52.9324   25.9079 C.3       1 UNK         0.0000 
     12 H12         2.3044   52.0967   25.8886 H         1 UNK         0.0000 
     13 C13         0.1930   52.2759   25.8040 C.3       1 UNK         0.0000 
     14 H14        -0.4690   53.1322   25.7465 H         1 UNK         0.0000 
     15 C15        -0.2222   51.5364   27.1352 C.3       1 UNK         0.0000 
     16 H16         0.3184   50.5962   27.1824 H         1 UNK         0.0000 
     17 C17         0.1279   52.3658   28.4007 C.3       1 UNK         0.0000 
     18 C18         1.6471   52.7445   28.4791 C.3       1 UNK         0.0000 
     19 C19         1.8924   53.6597   27.2526 C.3       1 UNK         0.0000 
     20 H20         1.1765   54.4822   27.3231 H         1 UNK         0.0000 
     21 C21         3.2676   54.2880   27.4886 C.3       1 UNK         0.0000 
     22 C22         3.3660   54.4610   29.0153 C.3       1 UNK         0.0000 
     23 C23         2.2085   53.6278   29.6721 C.3       1 UNK         0.0000 
     24 C24         1.1044   54.5413   30.2971 C.2       1 UNK         0.0000 
     25 O25         1.0889   55.7544   30.0817 O.2       1 UNK         0.0000 
     26 C26        -0.0119   53.9387   31.1846 C.3       1 UNK         0.0000 
     27 O27         0.3044   52.6424   31.6817 O.3       1 UNK         0.0000 
     28 O28         2.7545   52.8967   30.7707 O.3       1 UNK         0.0000 
     29 C29         2.5014   51.4534   28.4817 C.3       1 UNK         0.0000 
     30 O30        -1.5837   51.1522   27.1683 O.3       1 UNK         0.0000 
     31 H31        -2.2223   51.2847   24.6175 H         1 UNK         0.0000 
     32 H32        -1.6991   52.7491   23.8137 H         1 UNK         0.0000 
     33 H33        -1.6409   51.2156   22.9668 H         1 UNK         0.0000 
     34 H34         1.1044   49.7479   25.2202 H         1 UNK         0.0000 
     35 H35        -0.6068   49.4897   25.2583 H         1 UNK         0.0000 
     36 H36        -0.6677   49.1374   22.8280 H         1 UNK         0.0000 
     37 H37         0.5278   48.0709   23.5439 H         1 UNK         0.0000 
     38 H38         2.1808   51.5816   21.7126 H         1 UNK         0.0000 
     39 H39         1.7592   53.7948   22.5033 H         1 UNK         0.0000 
     40 H40         0.3037   53.9901   23.4260 H         1 UNK         0.0000 
     41 H41         1.8539   54.7876   24.8186 H         1 UNK         0.0000 
     42 H42         3.1399   53.6605   24.4904 H         1 UNK         0.0000 
     43 H43        -0.1619   51.7868   29.2776 H         1 UNK         0.0000 
     44 H44        -0.4880   53.2657   28.4064 H         1 UNK         0.0000 
     45 H45         3.4188   55.2079   26.9227 H         1 UNK         0.0000 
     46 H46         4.0457   53.5931   27.1669 H         1 UNK         0.0000 
     47 H47         3.3629   55.5194   29.2786 H         1 UNK         0.0000 
     48 H48         4.3443   54.1022   29.3422 H         1 UNK         0.0000 
     49 H49        -0.8954   53.8530   30.5549 H         1 UNK         0.0000 
     50 H50        -0.2286   54.6123   32.0129 H         1 UNK         0.0000 
     51 H51        -0.4291   52.3085   32.2421 H         1 UNK         0.0000 
     52 H52         1.9940   52.5157   31.2401 H         1 UNK         0.0000 
     53 H53         2.3044   50.7595   27.6817 H         1 UNK         0.0000 
     54 H54         3.5646   51.6967   28.4817 H         1 UNK         0.0000 
     55 H55         2.2943   50.8967   29.3851 H         1 UNK         0.0000 
     56 H56        -1.6626   50.3330   27.6811 H         1 UNK         0.0000 
@<TRIPOS>BOND
     1    1    2 1    
     2    1   31 1    
     3    1   32 1    
     4    1   33 1    
     5    2    8 1    
     6    2   13 1    
     7    2    3 1    
     8    3    4 1    
     9    3   34 1    
    10    3   35 1    
    11    4    5 1    
    12    4   36 1    
    13    4   37 1    
    14    5    6 2    
    15    5    7 1    
    16    7    8 2    
    17    7   38 1    
    18    8    9 1    
    19    9   10 1    
    20    9   39 1    
    21    9   40 1    
    22   10   11 1    
    23   10   41 1    
    24   10   42 1    
    25   11   12 1    
    26   11   19 1    
    27   11   13 1    
    28   13   14 1    
    29   13   15 1    
    30   15   16 1    
    31   15   17 1    
    32   15   30 1    
    33   17   18 1    
    34   17   43 1    
    35   17   44 1    
    36   18   23 1    
    37   18   19 1    
    38   18   29 1    
    39   19   20 1    
    40   19   21 1    
    41   21   22 1    
    42   21   45 1    
    43   21   46 1    
    44   22   23 1    
    45   22   47 1    
    46   22   48 1    
    47   23   24 1    
    48   23   28 1    
    49   24   25 2    
    50   24   26 1    
    51   26   27 1    
    52   26   49 1    
    53   26   50 1    
    54   27   51 1    
    55   28   52 1    
    56   29   53 1    
    57   29   54 1    
    58   29   55 1    
    59   30   56 1    
@<TRIPOS>SUBSTRUCTURE
     1 UNK         1 GROUP             0       ****    0 ROOT    
