ZINC09233156_5776
                    3D
 Schrodinger Suite 2024-2.
 51 55  0  0  1  0            999 V2000
    0.3030   49.2601   23.0083 C   0  0  0  0  0  0
   -0.0730   49.0297   24.3261 C   0  0  0  0  0  0
    0.1262   50.0057   25.2960 C   0  0  0  0  0  0
    0.7044   51.2653   24.9588 C   0  0  0  0  0  0
    1.1183   51.4757   23.6032 C   0  0  0  0  0  0
    0.9025   50.4593   22.6415 C   0  0  0  0  0  0
    1.7376   52.6970   23.2422 C   0  0  0  0  0  0
    1.9441   53.6878   24.1936 C   0  0  0  0  0  0
    1.5301   53.4996   25.5056 C   0  0  0  0  0  0
    0.9112   52.3193   25.9103 C   0  0  0  0  0  0
    0.4229   52.2302   27.2346 N   0  0  0  0  0  0
    1.0926   52.2717   28.4517 C   0  0  0  0  0  0
    0.2525   52.0947   29.4415 N   0  0  0  0  0  0
   -1.0119   51.9688   28.8996 N   0  0  0  0  0  0
   -0.9030   52.0964   27.6013 C   0  0  0  0  0  0
   -2.2829   52.0947   26.4854 S   0  0  0  0  0  0
   -3.1988   50.6842   27.1863 C   0  0  0  0  0  0
   -4.4485   51.0836   27.9754 C   0  0  0  0  0  0
   -5.3434   51.6994   27.3951 O   0  0  0  0  0  0
   -4.4859   50.7011   29.2716 N   0  0  0  0  0  0
   -5.5073   50.8994   30.2214 C   0  0  0  0  0  0
   -5.4909   50.0582   31.3348 C   0  0  0  0  0  0
   -6.4654   50.1795   32.3240 C   0  0  0  0  0  0
   -7.4680   51.1553   32.2241 C   0  0  0  0  0  0
   -7.4606   52.0168   31.1170 C   0  0  0  0  0  0
   -6.4932   51.8930   30.1231 C   0  0  0  0  0  0
   -8.5333   51.2769   33.2762 C   0  0  0  0  0  0
   -8.6815   50.3271   34.0815 O   0  0  0  0  0  0
    2.5191   52.4397   28.7038 C   0  0  0  0  0  0
    3.5833   53.0826   28.0799 C   0  0  0  0  0  0
    4.7087   52.8966   28.8799 C   0  0  0  0  0  0
    4.3029   52.1147   29.9437 C   0  0  0  0  0  0
    2.9781   51.8608   29.8480 O   0  0  0  0  0  0
    0.1386   48.4967   22.2629 H   0  0  0  0  0  0
   -0.5194   48.0869   24.6063 H   0  0  0  0  0  0
   -0.1682   49.7955   26.3148 H   0  0  0  0  0  0
    1.2070   50.6203   21.6169 H   0  0  0  0  0  0
    2.0500   52.8556   22.2189 H   0  0  0  0  0  0
    2.4142   54.6180   23.9084 H   0  0  0  0  0  0
    1.6654   54.2995   26.2173 H   0  0  0  0  0  0
   -2.5272   50.0965   27.8017 H   0  0  0  0  0  0
   -3.5128   50.0400   26.3661 H   0  0  0  0  0  0
   -3.7117   50.1367   29.5975 H   0  0  0  0  0  0
   -4.7270   49.3008   31.4366 H   0  0  0  0  0  0
   -6.4343   49.5097   33.1726 H   0  0  0  0  0  0
   -8.2183   52.7824   31.0143 H   0  0  0  0  0  0
   -6.5261   52.5789   29.2912 H   0  0  0  0  0  0
    3.5638   53.6352   27.1554 H   0  0  0  0  0  0
    5.7067   53.2653   28.6901 H   0  0  0  0  0  0
    4.8084   51.6968   30.8028 H   0  0  0  0  0  0
   -9.2237   52.3228   33.2819 O   0  5  0  0  0  0
  1  6  2  0  0  0
  1  2  1  0  0  0
  1 34  1  0  0  0
  2  3  2  0  0  0
  2 35  1  0  0  0
  3  4  1  0  0  0
  3 36  1  0  0  0
  4 10  2  0  0  0
  4  5  1  0  0  0
  5  6  1  0  0  0
  5  7  2  0  0  0
  6 37  1  0  0  0
  7  8  1  0  0  0
  7 38  1  0  0  0
  8  9  2  0  0  0
  8 39  1  0  0  0
  9 10  1  0  0  0
  9 40  1  0  0  0
 10 11  1  0  0  0
 11 15  1  0  0  0
 11 12  1  0  0  0
 12 13  2  0  0  0
 12 29  1  0  0  0
 13 14  1  0  0  0
 14 15  2  0  0  0
 15 16  1  0  0  0
 16 17  1  0  0  0
 17 18  1  0  0  0
 17 41  1  0  0  0
 17 42  1  0  0  0
 18 19  2  0  0  0
 18 20  1  0  0  0
 20 21  1  0  0  0
 20 43  1  0  0  0
 21 26  2  0  0  0
 21 22  1  0  0  0
 22 23  2  0  0  0
 22 44  1  0  0  0
 23 24  1  0  0  0
 23 45  1  0  0  0
 24 25  2  0  0  0
 24 27  1  0  0  0
 25 26  1  0  0  0
 25 46  1  0  0  0
 26 47  1  0  0  0
 27 28  2  0  0  0
 27 51  1  0  0  0
 29 33  1  0  0  0
 29 30  2  0  0  0
 30 31  1  0  0  0
 30 48  1  0  0  0
 31 32  2  0  0  0
 31 49  1  0  0  0
 32 33  1  0  0  0
 32 50  1  0  0  0
M  CHG  1  51  -1
M  END
> <i_i_glide_confnum>
170

> <i_i_glide_lignum>
5777

> <i_i_glide_posenum>
75

> <i_i_glide_rotatable_bonds>
8

> <i_m_Source_File_Index>
1583

> <b_m_subgroup_collapsed>
0

> <r_i_docking_score>
-5.59219

> <r_i_glide_ecoul>
-6.80562

> <r_i_glide_eff_state_penalty>
0

> <r_i_glide_einternal>
4.37408

> <r_i_glide_emodel>
-66.3166

> <r_i_glide_energy>
-47.6468

> <r_i_glide_erotb>
0.641426

> <r_i_glide_esite>
-0.182212

> <r_i_glide_evdw>
-40.8412

> <r_i_glide_gscore>
-5.59219

> <r_i_glide_hbond>
-0.469335

> <r_i_glide_ligand_efficiency>
-0.164476

> <r_i_glide_ligand_efficiency_ln>
-1.23547

> <r_i_glide_ligand_efficiency_sa>
-0.532839

> <r_i_glide_lipo>
-1.79027

> <r_i_glide_metal>
0

> <r_i_glide_rewards>
-0.728897

> <s_i_glide_gridfile>
wee1_glide-grid

> <s_m_Source_File>
wee1_decoys_glide_SP.sdf

> <s_m_Source_Path>
/Users/zhangxujun/Desktop

> <s_m_entry_id>
1858

> <s_m_entry_name>
wee1_decoys_glide_SP.1583

> <s_m_subgroup_title>
wee1_decoys_glide_SP

> <s_m_subgroupid>
wee1_decoys_glide_SP


$$$$
