@<TRIPOS>MOLECULE
ZINC39592670_492
47   50    1
SMALL
USER_CHARGES


@<TRIPOS>ATOM
      1 C1          4.2168   54.2590   24.1049 C.ar      1 UNK         0.0000 
      2 C2          3.8645   54.0953   25.4430 C.ar      1 UNK         0.0000 
      3 C3          4.8479   54.1332   26.4266 C.ar      1 UNK         0.0000 
      4 C4          6.1800   54.3394   26.0814 C.ar      1 UNK         0.0000 
      5 C5          6.5253   54.5182   24.7431 C.ar      1 UNK         0.0000 
      6 C6          5.5493   54.4967   23.7353 C.ar      1 UNK         0.0000 
      7 C7          5.9046   54.7601   22.3112 C.2       1 UNK         0.0000 
      8 C8          5.1155   54.6345   21.2387 C.2       1 UNK         0.0000 
      9 C9          5.9369   55.1921   20.1104 C.3       1 UNK         0.0000 
     10 H10         5.4824   56.1070   19.7241 H         1 UNK         0.0000 
     11 N11         7.1711   55.5541   20.7576 N.2       1 UNK         0.0000 
     12 N12         7.1054   55.2970   22.0007 N.2       1 UNK         0.0000 
     13 C13         6.1495   54.2091   18.9246 C.3       1 UNK         0.0000 
     14 H14         6.6098   53.2851   19.2812 H         1 UNK         0.0000 
     15 N15         7.0444   54.7432   17.9299 N.2       1 UNK         0.0000 
     16 N16         6.5884   54.5171   16.7681 N.2       1 UNK         0.0000 
     17 C17         5.3296   53.8285   16.8413 C.3       1 UNK         0.0000 
     18 H18         5.5051   52.7997   16.5128 H         1 UNK         0.0000 
     19 N19         4.9240   53.8915   18.2260 N.3       1 UNK         0.0000 
     20 N20         4.0840   52.8565   18.7602 N.3       1 UNK         0.0000 
     21 S21         4.1253   54.5882   15.7093 S.3       1 UNK         0.0000 
     22 C22         3.0323   53.1818   15.3271 C.3       1 UNK         0.0000 
     23 C23         3.5407   52.3334   14.1594 C.2       1 UNK         0.0000 
     24 O24         3.5288   52.8117   13.0215 O.2       1 UNK         0.0000 
     25 N25         3.9755   51.0901   14.4411 N.am      1 UNK         0.0000 
     26 C26         4.4002   50.1806   13.4655 C.ar      1 UNK         0.0000 
     27 C27         5.7707   49.9749   13.2820 C.ar      1 UNK         0.0000 
     28 C28         6.2206   49.0041   12.3901 C.ar      1 UNK         0.0000 
     29 C29         5.3004   48.2495   11.6660 C.ar      1 UNK         0.0000 
     30 C30         3.9310   48.4712   11.8227 C.ar      1 UNK         0.0000 
     31 C31         3.4747   49.4324   12.7252 C.ar      1 UNK         0.0000 
     32 F32         2.1444   49.6124   12.8889 F         1 UNK         0.0000 
     33 Br33        5.9120   46.8972   10.4813 Br        1 UNK         0.0000 
     34 F34         4.5068   53.9651   27.7247 F         1 UNK         0.0000 
     35 H35         3.4384   54.2340   23.3580 H         1 UNK         0.0000 
     36 H36         2.8335   53.9313   25.7197 H         1 UNK         0.0000 
     37 H37         6.9350   54.3550   26.8517 H         1 UNK         0.0000 
     38 H38         7.5556   54.6922   24.4877 H         1 UNK         0.0000 
     39 H39         4.1004   54.2774   21.1461 H         1 UNK         0.0000 
     40 H40         3.1623   52.9706   18.3602 H         1 UNK         0.0000 
     41 H41         4.4818   51.9540   18.4863 H         1 UNK         0.0000 
     42 H42         2.8628   52.5752   16.2189 H         1 UNK         0.0000 
     43 H43         2.0624   53.5875   15.0349 H         1 UNK         0.0000 
     44 H44         3.9056   50.7181   15.3861 H         1 UNK         0.0000 
     45 H45         6.4872   50.5456   13.8520 H         1 UNK         0.0000 
     46 H46         7.2793   48.8304   12.2731 H         1 UNK         0.0000 
     47 H47         3.2169   47.8889   11.2561 H         1 UNK         0.0000 
@<TRIPOS>BOND
     1    1    6 ar   
     2    1    2 ar   
     3    1   35 1    
     4    2    3 ar   
     5    2   36 1    
     6    3    4 ar   
     7    3   34 1    
     8    4    5 ar   
     9    4   37 1    
    10    5    6 ar   
    11    5   38 1    
    12    6    7 1    
    13    7   12 1    
    14    7    8 2    
    15    8    9 1    
    16    8   39 1    
    17    9   10 1    
    18    9   11 1    
    19    9   13 1    
    20   11   12 2    
    21   13   14 1    
    22   13   19 1    
    23   13   15 1    
    24   15   16 2    
    25   16   17 1    
    26   17   18 1    
    27   17   19 1    
    28   17   21 1    
    29   19   20 1    
    30   20   40 1    
    31   20   41 1    
    32   21   22 1    
    33   22   23 1    
    34   22   42 1    
    35   22   43 1    
    36   23   24 2    
    37   23   25 am   BACKBONE|DICT|INTERRES
    38   25   26 1    
    39   25   44 1    
    40   26   31 ar   
    41   26   27 ar   
    42   27   28 ar   
    43   27   45 1    
    44   28   29 ar   
    45   28   46 1    
    46   29   30 ar   
    47   29   33 1    
    48   30   31 ar   
    49   30   47 1    
    50   31   32 1    
@<TRIPOS>SUBSTRUCTURE
     1 UNK         1 GROUP             0       ****    0 ROOT    
