@<TRIPOS>MOLECULE
ZINC38687946_31
50   54    1
SMALL
USER_CHARGES


@<TRIPOS>ATOM
      1 C1         -0.3780   50.6585   25.4784 C.ar      1 UNK         0.0000 
      2 C2         -1.7209   50.4651   25.1673 C.ar      1 UNK         0.0000 
      3 C3         -2.2194   50.9051   23.9420 C.ar      1 UNK         0.0000 
      4 C4         -1.3734   51.5273   23.0220 C.ar      1 UNK         0.0000 
      5 C5         -0.0106   51.7113   23.3120 C.ar      1 UNK         0.0000 
      6 C6          0.4705   51.2803   24.5612 C.ar      1 UNK         0.0000 
      7 C7          0.9121   52.3857   22.2746 C.3       1 UNK         0.0000 
      8 H8          0.3068   53.1789   21.8380 H         1 UNK         0.0000 
      9 C9          2.1579   53.0861   22.8647 C.ar      1 UNK         0.0000 
     10 C10         2.0688   53.9390   23.9699 C.ar      1 UNK         0.0000 
     11 C11         3.2093   54.4966   24.5406 C.ar      1 UNK         0.0000 
     12 C12         4.4831   54.2263   24.0321 C.ar      1 UNK         0.0000 
     13 C13         4.5793   53.4647   22.8685 C.ar      1 UNK         0.0000 
     14 C14         3.4360   52.8970   22.3013 C.ar      1 UNK         0.0000 
     15 O15         3.6495   52.1048   21.1959 O.3       1 UNK         0.0000 
     16 C16         2.6168   51.3847   20.7029 C.2       1 UNK         0.0000 
     17 C17         1.3398   51.4464   21.1337 C.2       1 UNK         0.0000 
     18 C18         0.3546   50.6318   20.4983 C.1       1 UNK         0.0000 
     19 N19        -0.4215   49.9482   19.9773 N.1       1 UNK         0.0000 
     20 N20         3.1038   50.6176   19.6818 N.pl3     1 UNK         0.0000 
     21 O21         5.6477   54.7377   24.5767 O.3       1 UNK         0.0000 
     22 C22         5.9668   54.7489   25.9218 C.2       1 UNK         0.0000 
     23 O23         6.9924   55.2963   26.3235 O.2       1 UNK         0.0000 
     24 C24         5.0563   53.9840   26.9130 C.3       1 UNK         0.0000 
     25 H25         4.5233   53.1990   26.3764 H         1 UNK         0.0000 
     26 C26         5.8493   53.3033   28.0686 C.3       1 UNK         0.0000 
     27 O27         4.9536   52.5320   28.8815 O.3       1 UNK         0.0000 
     28 C28         3.7586   53.1607   29.1699 C.ar      1 UNK         0.0000 
     29 C29         2.9354   52.5775   30.1302 C.ar      1 UNK         0.0000 
     30 C30         1.6824   53.1347   30.4006 C.ar      1 UNK         0.0000 
     31 C31         1.2659   54.2834   29.7217 C.ar      1 UNK         0.0000 
     32 C32         2.0876   54.8709   28.7556 C.ar      1 UNK         0.0000 
     33 C33         3.3266   54.2979   28.4682 C.ar      1 UNK         0.0000 
     34 O34         4.1151   54.8959   27.5058 O.3       1 UNK         0.0000 
     35 F35        -1.8952   51.9840   21.8585 F         1 UNK         0.0000 
     36 H36         0.0052   50.3123   26.4281 H         1 UNK         0.0000 
     37 H37        -2.3694   49.9759   25.8812 H         1 UNK         0.0000 
     38 H38        -3.2645   50.7695   23.7045 H         1 UNK         0.0000 
     39 H39         1.5086   51.4017   24.8305 H         1 UNK         0.0000 
     40 H40         1.1031   54.1475   24.4102 H         1 UNK         0.0000 
     41 H41         3.1047   55.1553   25.3865 H         1 UNK         0.0000 
     42 H42         5.5459   53.2768   22.4231 H         1 UNK         0.0000 
     43 H43         2.5139   49.9485   19.2079 H         1 UNK         0.0000 
     44 H44         3.9612   50.8753   19.1949 H         1 UNK         0.0000 
     45 H45         6.6267   52.6448   27.6814 H         1 UNK         0.0000 
     46 H46         6.3316   54.0605   28.6925 H         1 UNK         0.0000 
     47 H47         3.2650   51.6965   30.6559 H         1 UNK         0.0000 
     48 H48         1.0376   52.6821   31.1403 H         1 UNK         0.0000 
     49 H49         0.3032   54.7179   29.9441 H         1 UNK         0.0000 
     50 H50         1.7610   55.7551   28.2274 H         1 UNK         0.0000 
@<TRIPOS>BOND
     1    1    6 ar   
     2    1    2 ar   
     3    1   36 1    
     4    2    3 ar   
     5    2   37 1    
     6    3    4 ar   
     7    3   38 1    
     8    4    5 ar   
     9    4   35 1    
    10    5    6 ar   
    11    5    7 1    
    12    6   39 1    
    13    7    8 1    
    14    7   17 1    
    15    7    9 1    
    16    9   14 ar   
    17    9   10 ar   
    18   10   11 ar   
    19   10   40 1    
    20   11   12 ar   
    21   11   41 1    
    22   12   13 ar   
    23   12   21 1    
    24   13   14 ar   
    25   13   42 1    
    26   14   15 1    
    27   15   16 1    
    28   16   17 2    
    29   16   20 1    
    30   17   18 1    
    31   18   19 3    
    32   20   43 1    
    33   20   44 1    
    34   21   22 1    
    35   22   23 2    
    36   22   24 1    
    37   24   25 1    
    38   24   34 1    
    39   24   26 1    
    40   26   27 1    
    41   26   45 1    
    42   26   46 1    
    43   27   28 1    
    44   28   33 ar   
    45   28   29 ar   
    46   29   30 ar   
    47   29   47 1    
    48   30   31 ar   
    49   30   48 1    
    50   31   32 ar   
    51   31   49 1    
    52   32   33 ar   
    53   32   50 1    
    54   33   34 1    
@<TRIPOS>SUBSTRUCTURE
     1 UNK         1 GROUP             0       ****    0 ROOT    
