@<TRIPOS>MOLECULE
ZINC10325912_4202
61   66    1
SMALL
USER_CHARGES


@<TRIPOS>ATOM
      1 C1          6.7570   54.5848   23.5604 C.3       1 UNK         0.0000 
      2 C2          5.2958   54.2198   23.7533 C.ar      1 UNK         0.0000 
      3 C3          4.5643   53.6999   22.6856 C.ar      1 UNK         0.0000 
      4 C4          3.2226   53.3696   22.8528 C.ar      1 UNK         0.0000 
      5 C5          2.5930   53.5532   24.0947 C.ar      1 UNK         0.0000 
      6 C6          3.3330   54.0972   25.1522 C.ar      1 UNK         0.0000 
      7 C7          4.6757   54.4281   24.9855 C.ar      1 UNK         0.0000 
      8 C8          1.1095   53.1923   24.3074 C.3       1 UNK         0.0000 
      9 H9          0.6835   54.1529   24.5927 H         1 UNK         0.0000 
     10 C10         0.8709   52.2473   25.5161 C.3       1 UNK         0.0000 
     11 C11        -0.6193   51.9338   25.6869 C.2       1 UNK         0.0000 
     12 C12        -1.5349   52.0443   24.6750 C.2       1 UNK         0.0000 
     13 C13        -3.0504   51.6984   24.8880 C.3       1 UNK         0.0000 
     14 H14        -3.6405   52.5166   24.4695 H         1 UNK         0.0000 
     15 C15        -3.3400   51.5023   26.3833 C.ar      1 UNK         0.0000 
     16 C16        -2.3562   51.4343   27.2718 C.ar      1 UNK         0.0000 
     17 N17        -2.8313   51.0273   28.4852 N.pl3     1 UNK         0.0000 
     18 H18        -2.6758   51.4881   29.3653 H         1 UNK         0.0000 
     19 N19        -4.2113   50.8886   28.3413 N.pl3     1 UNK         0.0000 
     20 C20        -4.5819   51.2233   27.0703 C.ar      1 UNK         0.0000 
     21 O21        -5.7137   51.3125   26.5913 O.2       1 UNK         0.0000 
     22 C22        -5.0356   50.5041   29.4446 C.ar      1 UNK         0.0000 
     23 C23        -4.4958   50.4272   30.7432 C.ar      1 UNK         0.0000 
     24 C24        -5.2969   50.0992   31.8324 C.ar      1 UNK         0.0000 
     25 C25        -6.6408   49.8043   31.6419 C.ar      1 UNK         0.0000 
     26 C26        -7.1918   49.8368   30.3666 C.ar      1 UNK         0.0000 
     27 C27        -6.3970   50.1838   29.2773 C.ar      1 UNK         0.0000 
     28 N28        -1.0332   51.6270   26.9740 N.pl3     1 UNK         0.0000 
     29 C29        -3.4700   50.4426   24.1131 C.ar      1 UNK         0.0000 
     30 C30        -4.5938   50.4430   23.2817 C.ar      1 UNK         0.0000 
     31 C31        -4.9439   49.2923   22.5766 C.ar      1 UNK         0.0000 
     32 C32        -4.1787   48.1316   22.7008 C.ar      1 UNK         0.0000 
     33 C33        -3.0548   48.1035   23.5421 C.ar      1 UNK         0.0000 
     34 C34        -2.7204   49.2682   24.2469 C.ar      1 UNK         0.0000 
     35 N35        -2.2308   46.8803   23.6880 N.pl3     1 UNK         0.0000 
     36 O36        -1.2958   46.8922   24.4824 O.co2     1 UNK         0.0000 
     37 O37        -2.5182   45.8905   23.0170 O.co2     1 UNK         0.0000 
     38 C38        -1.1186   52.4156   23.3072 C.2       1 UNK         0.0000 
     39 O39        -1.9234   52.4925   22.3785 O.2       1 UNK         0.0000 
     40 C40         0.3788   52.6520   23.0578 C.3       1 UNK         0.0000 
     41 H41         7.0582   55.3923   24.2298 H         1 UNK         0.0000 
     42 H42         6.9365   54.9427   22.5454 H         1 UNK         0.0000 
     43 H43         7.3943   53.7194   23.7408 H         1 UNK         0.0000 
     44 H44         5.0317   53.5470   21.7233 H         1 UNK         0.0000 
     45 H45         2.6935   52.9686   22.0019 H         1 UNK         0.0000 
     46 H46         2.8743   54.2747   26.1130 H         1 UNK         0.0000 
     47 H47         5.2303   54.8408   25.8149 H         1 UNK         0.0000 
     48 H48         1.3771   51.2943   25.3903 H         1 UNK         0.0000 
     49 H49         1.2574   52.7435   26.4060 H         1 UNK         0.0000 
     50 H50        -3.4495   50.6160   30.9417 H         1 UNK         0.0000 
     51 H51        -4.8694   50.0910   32.8275 H         1 UNK         0.0000 
     52 H52        -7.2574   49.5462   32.4899 H         1 UNK         0.0000 
     53 H53        -8.2346   49.5925   30.2231 H         1 UNK         0.0000 
     54 H54        -6.8700   50.1823   28.3081 H         1 UNK         0.0000 
     55 H55        -0.3419   51.3844   27.6675 H         1 UNK         0.0000 
     56 H56        -5.2011   51.3317   23.1841 H         1 UNK         0.0000 
     57 H57        -5.8125   49.2998   21.9350 H         1 UNK         0.0000 
     58 H58        -4.4706   47.2502   22.1455 H         1 UNK         0.0000 
     59 H59        -1.8653   49.2694   24.9112 H         1 UNK         0.0000 
     60 H60         0.4850   53.2964   22.1879 H         1 UNK         0.0000 
     61 H61         0.8050   51.6850   22.7895 H         1 UNK         0.0000 
@<TRIPOS>BOND
     1    1    2 1    
     2    1   41 1    
     3    1   42 1    
     4    1   43 1    
     5    2    7 ar   
     6    2    3 ar   
     7    3    4 ar   
     8    3   44 1    
     9    4    5 ar   
    10    4   45 1    
    11    5    6 ar   
    12    5    8 1    
    13    6    7 ar   
    14    6   46 1    
    15    7   47 1    
    16    8    9 1    
    17    8   40 1    
    18    8   10 1    
    19   10   11 1    
    20   10   48 1    
    21   10   49 1    
    22   11   28 1    
    23   11   12 2    
    24   12   13 1    
    25   12   38 1    
    26   13   14 1    
    27   13   15 1    
    28   13   29 1    
    29   15   20 ar   
    30   15   16 ar   
    31   16   17 ar   
    32   16   28 1    
    33   17   18 1    
    34   17   19 1    
    35   19   20 ar   
    36   19   22 1    
    37   20   21 2    
    38   22   27 ar   
    39   22   23 ar   
    40   23   24 ar   
    41   23   50 1    
    42   24   25 ar   
    43   24   51 1    
    44   25   26 ar   
    45   25   52 1    
    46   26   27 ar   
    47   26   53 1    
    48   27   54 1    
    49   28   55 1    
    50   29   34 ar   
    51   29   30 ar   
    52   30   31 ar   
    53   30   56 1    
    54   31   32 ar   
    55   31   57 1    
    56   32   33 ar   
    57   32   58 1    
    58   33   34 ar   
    59   33   35 1    
    60   34   59 1    
    61   35   36 2    
    62   35   37 1    
    63   38   39 2    
    64   38   40 1    
    65   40   60 1    
    66   40   61 1    
@<TRIPOS>SUBSTRUCTURE
     1 UNK         1 GROUP             0       ****    0 ROOT    
