@<TRIPOS>MOLECULE
ZINC10853112_5288
64   67    1
SMALL
USER_CHARGES


@<TRIPOS>ATOM
      1 C1          1.7982   53.9491   23.8020 C.3       1 UNK         0.0000 
      2 C2          3.1594   53.5706   24.4355 C.3       1 UNK         0.0000 
      3 C3          4.2814   53.8261   23.4106 C.3       1 UNK         0.0000 
      4 C4          3.3625   54.2513   25.8282 C.3       1 UNK         0.0000 
      5 H5          3.2037   55.3125   25.6636 H         1 UNK         0.0000 
      6 C6          4.7340   54.0989   26.4938 C.2       1 UNK         0.0000 
      7 C7          5.0710   53.4256   27.6756 C.2       1 UNK         0.0000 
      8 C8          6.3579   53.6663   28.1326 C.2       1 UNK         0.0000 
      9 C9          7.0853   54.4561   27.2814 C.2       1 UNK         0.0000 
     10 S10         6.1665   54.8985   25.8867 S.3       1 UNK         0.0000 
     11 N11         2.3042   53.7974   26.7309 N.am      1 UNK         0.0000 
     12 C12         1.9262   54.3023   27.9187 C.2       1 UNK         0.0000 
     13 O13         2.4360   55.2890   28.4513 O.2       1 UNK         0.0000 
     14 C14         0.8631   53.4861   28.6017 C.ar      1 UNK         0.0000 
     15 C15         0.8002   53.4208   30.0000 C.ar      1 UNK         0.0000 
     16 C16        -0.0752   52.5288   30.6219 C.ar      1 UNK         0.0000 
     17 C17        -0.8960   51.6961   29.8578 C.ar      1 UNK         0.0000 
     18 C18        -0.8951   51.8001   28.4680 C.ar      1 UNK         0.0000 
     19 C19        -0.0285   52.7062   27.8513 C.ar      1 UNK         0.0000 
     20 N20        -1.6547   50.8966   27.7157 N.am      1 UNK         0.0000 
     21 C21        -2.1970   51.1121   26.5018 C.2       1 UNK         0.0000 
     22 O22        -2.3836   52.2256   26.0087 O.2       1 UNK         0.0000 
     23 C23        -2.5321   49.8503   25.6959 C.3       1 UNK         0.0000 
     24 C24        -1.2795   49.0353   25.2436 C.3       1 UNK         0.0000 
     25 H25        -0.8860   48.4608   26.0828 H         1 UNK         0.0000 
     26 C26        -1.6260   48.0157   24.1576 C.2       1 UNK         0.0000 
     27 O27        -2.4734   47.1387   24.3172 O.2       1 UNK         0.0000 
     28 N28        -0.8955   48.1827   23.0060 N.am      1 UNK         0.0000 
     29 C29        -0.0164   49.0984   23.0567 C.2       1 UNK         0.0000 
     30 S30         0.0980   50.0097   24.5874 S.3       1 UNK         0.0000 
     31 N31         0.8530   49.3913   21.9970 N.pl3     1 UNK         0.0000 
     32 C32         0.8612   48.6498   20.7211 C.3       1 UNK         0.0000 
     33 C33         0.6483   49.6260   19.5443 C.3       1 UNK         0.0000 
     34 C34         1.6527   50.7945   19.5565 C.3       1 UNK         0.0000 
     35 C35         1.7368   51.4415   20.9490 C.3       1 UNK         0.0000 
     36 C36         1.9357   50.3881   22.0609 C.3       1 UNK         0.0000 
     37 H37         1.6979   55.0278   23.6875 H         1 UNK         0.0000 
     38 H38         1.6752   53.5033   22.8153 H         1 UNK         0.0000 
     39 H39         0.9536   53.6107   24.4072 H         1 UNK         0.0000 
     40 H40         3.1043   52.4960   24.6025 H         1 UNK         0.0000 
     41 H41         4.4434   54.8944   23.2530 H         1 UNK         0.0000 
     42 H42         5.2232   53.3818   23.7285 H         1 UNK         0.0000 
     43 H43         4.0434   53.3894   22.4418 H         1 UNK         0.0000 
     44 H44         4.3671   52.8274   28.2350 H         1 UNK         0.0000 
     45 H45         6.7568   53.2961   29.0633 H         1 UNK         0.0000 
     46 H46         8.0814   54.8049   27.4542 H         1 UNK         0.0000 
     47 H47         1.6699   53.1336   26.3165 H         1 UNK         0.0000 
     48 H48         1.4600   54.0243   30.6119 H         1 UNK         0.0000 
     49 H49        -0.0950   52.4579   31.6983 H         1 UNK         0.0000 
     50 H50        -1.5335   50.9795   30.3596 H         1 UNK         0.0000 
     51 H51        -0.0138   52.7485   26.7710 H         1 UNK         0.0000 
     52 H52        -1.6943   49.9407   28.0819 H         1 UNK         0.0000 
     53 H53        -3.2130   49.2209   26.2699 H         1 UNK         0.0000 
     54 H54        -3.1011   50.1710   24.8190 H         1 UNK         0.0000 
     55 H55         1.8590   48.2121   20.6411 H         1 UNK         0.0000 
     56 H56         0.1454   47.8238   20.6919 H         1 UNK         0.0000 
     57 H57         0.7118   49.0877   18.5969 H         1 UNK         0.0000 
     58 H58        -0.3673   50.0259   19.5910 H         1 UNK         0.0000 
     59 H59         1.3808   51.5389   18.8067 H         1 UNK         0.0000 
     60 H60         2.6398   50.4232   19.2692 H         1 UNK         0.0000 
     61 H61         0.8198   51.9992   21.1431 H         1 UNK         0.0000 
     62 H62         2.5377   52.1802   20.9780 H         1 UNK         0.0000 
     63 H63         2.1010   50.8341   23.0415 H         1 UNK         0.0000 
     64 H64         2.8490   49.8343   21.8347 H         1 UNK         0.0000 
@<TRIPOS>BOND
     1    1    2 1    
     2    1   37 1    
     3    1   38 1    
     4    1   39 1    
     5    2    3 1    
     6    2    4 1    
     7    2   40 1    
     8    3   41 1    
     9    3   42 1    
    10    3   43 1    
    11    4    5 1    
    12    4    6 1    
    13    4   11 1    
    14    6   10 1    
    15    6    7 2    
    16    7    8 1    
    17    7   44 1    
    18    8    9 2    
    19    8   45 1    
    20    9   10 1    
    21    9   46 1    
    22   11   12 am   BACKBONE|DICT|INTERRES
    23   11   47 1    
    24   12   13 2    
    25   12   14 1    
    26   14   19 ar   
    27   14   15 ar   
    28   15   16 ar   
    29   15   48 1    
    30   16   17 ar   
    31   16   49 1    
    32   17   18 ar   
    33   17   50 1    
    34   18   19 ar   
    35   18   20 1    
    36   19   51 1    
    37   20   21 am   BACKBONE|DICT|INTERRES
    38   20   52 1    
    39   21   22 2    
    40   21   23 1    
    41   23   24 1    
    42   23   53 1    
    43   23   54 1    
    44   24   25 1    
    45   24   30 1    
    46   24   26 1    
    47   26   27 2    
    48   26   28 am   BACKBONE|DICT|INTERRES
    49   28   29 2    BACKBONE|DICT|INTERRES
    50   29   30 1    
    51   29   31 1    
    52   31   36 1    
    53   31   32 1    
    54   32   33 1    
    55   32   55 1    
    56   32   56 1    
    57   33   34 1    
    58   33   57 1    
    59   33   58 1    
    60   34   35 1    
    61   34   59 1    
    62   34   60 1    
    63   35   36 1    
    64   35   61 1    
    65   35   62 1    
    66   36   63 1    
    67   36   64 1    
@<TRIPOS>SUBSTRUCTURE
     1 UNK         1 GROUP             0       ****    0 ROOT    
