ZINC13894291_3216
                    3D
 Schrodinger Suite 2024-2.
 47 50  0  0  1  0            999 V2000
    1.3273   52.1494   30.4473 C   0  0  0  0  0  0
    1.9125   52.1284   29.1789 C   0  0  0  0  0  0
    0.8857   52.0521   28.2433 C   0  0  0  0  0  0
   -0.3008   52.0310   28.9110 O   0  0  0  0  0  0
   -0.0386   52.0968   30.2380 C   0  0  0  0  0  0
    0.8916   52.0598   26.7851 C   0  0  0  0  0  0
   -0.1370   51.8601   25.9118 C   0  0  0  0  0  0
    0.0580   52.0007   24.4558 C   0  0  0  0  0  0
   -0.7427   51.5401   23.6357 O   0  0  0  0  0  0
    1.1372   52.7252   24.0831 N   0  0  0  0  0  0
    1.3861   53.1388   22.8247 N   0  0  0  0  0  0
    2.5071   53.7225   22.6059 C   0  0  0  0  0  0
    3.6319   54.0493   23.5180 C   0  0  0  0  0  0
    4.9387   54.0965   22.9774 C   0  0  0  0  0  0
    6.0649   54.3316   23.7822 C   0  0  0  0  0  0
    5.8526   54.4974   25.1447 C   0  0  0  0  0  0
    4.5980   54.4821   25.6792 C   0  0  0  0  0  0
    3.4682   54.3030   24.8963 C   0  0  0  0  0  0
    4.6722   54.6688   27.0206 O   0  0  0  0  0  0
    6.0310   54.5361   27.3281 C   0  0  0  0  0  0
    6.7544   54.7154   26.1383 O   0  0  0  0  0  0
   -1.3647   51.4883   26.4126 N   0  0  0  0  0  0
   -2.5736   52.0573   26.1892 C   0  0  0  0  0  0
   -2.7880   52.8967   25.3118 O   0  0  0  0  0  0
   -3.6956   51.6222   27.1136 C   0  0  0  0  0  0
   -3.4516   50.8512   28.2646 C   0  0  0  0  0  0
   -4.4894   50.5014   29.1222 C   0  0  0  0  0  0
   -5.7854   50.9239   28.8443 C   0  0  0  0  0  0
   -6.0520   51.6792   27.7057 C   0  0  0  0  0  0
   -5.0132   52.0247   26.8445 C   0  0  0  0  0  0
   -7.2023   50.4692   30.0299 Br  0  0  0  0  0  0
    1.8277   52.1984   31.4040 H   0  0  0  0  0  0
    2.9697   52.1726   28.9584 H   0  0  0  0  0  0
   -0.8953   52.0709   30.8962 H   0  0  0  0  0  0
    1.8862   52.2715   26.4231 H   0  0  0  0  0  0
    1.8512   52.9620   24.7517 H   0  0  0  0  0  0
    2.7101   54.0238   21.5819 H   0  0  0  0  0  0
    5.0964   53.9305   21.9202 H   0  0  0  0  0  0
    7.0574   54.3585   23.3556 H   0  0  0  0  0  0
    2.4988   54.3593   25.3644 H   0  0  0  0  0  0
    6.2247   53.5380   27.7281 H   0  0  0  0  0  0
    6.3043   55.2728   28.0803 H   0  0  0  0  0  0
   -1.3085   50.9617   27.2725 H   0  0  0  0  0  0
   -2.4643   50.4984   28.5241 H   0  0  0  0  0  0
   -4.2784   49.9051   29.9994 H   0  0  0  0  0  0
   -7.0613   51.9970   27.4922 H   0  0  0  0  0  0
   -5.2417   52.6170   25.9690 H   0  0  0  0  0  0
  1  5  2  0  0  0
  1  2  1  0  0  0
  1 32  1  0  0  0
  2  3  2  0  0  0
  2 33  1  0  0  0
  3  4  1  0  0  0
  3  6  1  0  0  0
  4  5  1  0  0  0
  5 34  1  0  0  0
  6  7  2  0  0  0
  6 35  1  0  0  0
  7  8  1  0  0  0
  7 22  1  0  0  0
  8  9  2  0  0  0
  8 10  1  0  0  0
 10 11  1  0  0  0
 10 36  1  0  0  0
 11 12  2  0  0  0
 12 13  1  0  0  0
 12 37  1  0  0  0
 13 18  2  0  0  0
 13 14  1  0  0  0
 14 15  2  0  0  0
 14 38  1  0  0  0
 15 16  1  0  0  0
 15 39  1  0  0  0
 16 21  1  0  0  0
 16 17  2  0  0  0
 17 18  1  0  0  0
 17 19  1  0  0  0
 18 40  1  0  0  0
 19 20  1  0  0  0
 20 21  1  0  0  0
 20 41  1  0  0  0
 20 42  1  0  0  0
 22 23  1  0  0  0
 22 43  1  0  0  0
 23 24  2  0  0  0
 23 25  1  0  0  0
 25 30  2  0  0  0
 25 26  1  0  0  0
 26 27  2  0  0  0
 26 44  1  0  0  0
 27 28  1  0  0  0
 27 45  1  0  0  0
 28 29  2  0  0  0
 28 31  1  0  0  0
 29 30  1  0  0  0
 29 46  1  0  0  0
 30 47  1  0  0  0
M  END
> <i_i_glide_confnum>
34

> <i_i_glide_lignum>
3217

> <i_i_glide_posenum>
294

> <i_i_glide_rotatable_bonds>
8

> <i_m_Source_File_Index>
2640

> <b_m_subgroup_collapsed>
0

> <r_i_docking_score>
-6.07941

> <r_i_glide_ecoul>
-5.93094

> <r_i_glide_eff_state_penalty>
0

> <r_i_glide_einternal>
8.11399

> <r_i_glide_emodel>
-61.4841

> <r_i_glide_energy>
-47.1245

> <r_i_glide_erotb>
0.436214

> <r_i_glide_esite>
-0.0533634

> <r_i_glide_evdw>
-41.1935

> <r_i_glide_gscore>
-6.07941

> <r_i_glide_hbond>
-0.225603

> <r_i_glide_ligand_efficiency>
-0.19611

> <r_i_glide_ligand_efficiency_ln>
-1.37109

> <r_i_glide_ligand_efficiency_sa>
-0.616057

> <r_i_glide_lipo>
-1.97549

> <r_i_glide_metal>
0

> <r_i_glide_rewards>
-1.31186

> <s_i_glide_gridfile>
wee1_glide-grid

> <s_m_Source_File>
wee1_decoys_glide_SP.sdf

> <s_m_Source_Path>
/Users/zhangxujun/Desktop

> <s_m_entry_id>
2915

> <s_m_entry_name>
wee1_decoys_glide_SP.2640

> <s_m_subgroup_title>
wee1_decoys_glide_SP

> <s_m_subgroupid>
wee1_decoys_glide_SP


$$$$
