@<TRIPOS>MOLECULE
ZINC21000865_4938
61   64    1
SMALL
USER_CHARGES


@<TRIPOS>ATOM
      1 C1         10.7145   55.7664   15.8522 C.3       1 UNK         0.0000 
      2 C2         10.2898   55.0849   17.1697 C.3       1 UNK         0.0000 
      3 C3          9.9771   53.5696   17.0705 C.3       1 UNK         0.0000 
      4 H4          9.8637   53.2172   18.0943 H         1 UNK         0.0000 
      5 C5         11.1405   52.7698   16.4259 C.3       1 UNK         0.0000 
      6 C6         10.8491   51.2509   16.3586 C.3       1 UNK         0.0000 
      7 C7          9.4276   50.9231   15.8540 C.3       1 UNK         0.0000 
      8 C8          8.3577   51.7946   16.5423 C.3       1 UNK         0.0000 
      9 N9          8.6906   53.2354   16.3592 N.pl3     1 UNK         0.0000 
     10 S10         7.2655   54.3302   16.2998 S.o2      1 UNK         0.0000 
     11 O11         6.2578   53.6882   15.4474 O.2       1 UNK         0.0000 
     12 O12         7.6859   55.7022   15.9932 O.2       1 UNK         0.0000 
     13 C13         6.5783   54.3444   17.9601 C.ar      1 UNK         0.0000 
     14 C14         6.8966   55.3592   18.8658 C.ar      1 UNK         0.0000 
     15 C15         6.3711   55.3256   20.1565 C.ar      1 UNK         0.0000 
     16 C16         5.5112   54.2918   20.5479 C.ar      1 UNK         0.0000 
     17 C17         5.1750   53.2949   19.6199 C.ar      1 UNK         0.0000 
     18 C18         5.7069   53.3234   18.3363 C.ar      1 UNK         0.0000 
     19 C19         5.0074   54.2286   21.9706 C.2       1 UNK         0.0000 
     20 O20         5.7414   54.5978   22.8905 O.2       1 UNK         0.0000 
     21 N21         3.7459   53.7600   22.1063 N.am      1 UNK         0.0000 
     22 C22         3.0092   53.5320   23.2711 C.2       1 UNK         0.0000 
     23 C23         1.7811   52.8414   23.3579 C.2       1 UNK         0.0000 
     24 C24         1.2789   52.8633   24.6734 C.2       1 UNK         0.0000 
     25 C25         2.1212   53.4337   25.6241 C.2       1 UNK         0.0000 
     26 S26         3.5290   54.0930   24.8480 S.3       1 UNK         0.0000 
     27 C27         1.9330   53.5265   27.1095 C.ar      1 UNK         0.0000 
     28 C28         1.0608   52.6290   27.7424 C.ar      1 UNK         0.0000 
     29 C29         0.8346   52.7108   29.1134 C.ar      1 UNK         0.0000 
     30 C30         1.4755   53.6958   29.8598 C.ar      1 UNK         0.0000 
     31 C31         2.3515   54.5894   29.2484 C.ar      1 UNK         0.0000 
     32 C32         2.5866   54.4990   27.8786 C.ar      1 UNK         0.0000 
     33 C33         1.0268   52.2363   22.2732 C.2       1 UNK         0.0000 
     34 O34        -0.1951   52.1057   22.3168 O.2       1 UNK         0.0000 
     35 N35         1.7344   51.7999   21.2288 N.am      1 UNK         0.0000 
     36 H36        10.6859   56.8542   15.9454 H         1 UNK         0.0000 
     37 H37        11.7327   55.5005   15.5830 H         1 UNK         0.0000 
     38 H38        10.0702   55.4896   15.0177 H         1 UNK         0.0000 
     39 H39         9.4673   55.6296   17.6261 H         1 UNK         0.0000 
     40 H40        11.0938   55.2152   17.8964 H         1 UNK         0.0000 
     41 H41        12.0549   52.9107   17.0064 H         1 UNK         0.0000 
     42 H42        11.3151   53.1215   15.4084 H         1 UNK         0.0000 
     43 H43        10.9810   50.8204   17.3476 H         1 UNK         0.0000 
     44 H44        11.5896   50.7678   15.7221 H         1 UNK         0.0000 
     45 H45         9.2136   49.8655   16.0267 H         1 UNK         0.0000 
     46 H46         9.3700   51.0667   14.7704 H         1 UNK         0.0000 
     47 H47         8.3661   51.5668   17.6162 H         1 UNK         0.0000 
     48 H48         7.3684   51.5831   16.1399 H         1 UNK         0.0000 
     49 H49         7.5507   56.1704   18.5799 H         1 UNK         0.0000 
     50 H50         6.6431   56.1031   20.8556 H         1 UNK         0.0000 
     51 H51         4.5396   52.4619   19.8791 H         1 UNK         0.0000 
     52 H52         5.4648   52.5158   17.6536 H         1 UNK         0.0000 
     53 H53         3.2625   53.5418   21.2464 H         1 UNK         0.0000 
     54 H54         0.3297   52.4176   24.9373 H         1 UNK         0.0000 
     55 H55         0.5497   51.8611   27.1791 H         1 UNK         0.0000 
     56 H56         0.1586   52.0175   29.5934 H         1 UNK         0.0000 
     57 H57         1.2885   53.7623   30.9200 H         1 UNK         0.0000 
     58 H58         2.8394   55.3563   29.8297 H         1 UNK         0.0000 
     59 H59         3.2601   55.2059   27.4169 H         1 UNK         0.0000 
     60 H60         1.2446   51.4024   20.4415 H         1 UNK         0.0000 
     61 H61         2.7342   51.7047   21.2963 H         1 UNK         0.0000 
@<TRIPOS>BOND
     1    1    2 1    
     2    1   36 1    
     3    1   37 1    
     4    1   38 1    
     5    2    3 1    
     6    2   39 1    
     7    2   40 1    
     8    3    4 1    
     9    3    9 1    
    10    3    5 1    
    11    5    6 1    
    12    5   41 1    
    13    5   42 1    
    14    6    7 1    
    15    6   43 1    
    16    6   44 1    
    17    7    8 1    
    18    7   45 1    
    19    7   46 1    
    20    8    9 1    
    21    8   47 1    
    22    8   48 1    
    23    9   10 1    
    24   10   11 2    
    25   10   12 2    
    26   10   13 1    
    27   13   18 ar   
    28   13   14 ar   
    29   14   15 ar   
    30   14   49 1    
    31   15   16 ar   
    32   15   50 1    
    33   16   17 ar   
    34   16   19 1    
    35   17   18 ar   
    36   17   51 1    
    37   18   52 1    
    38   19   20 2    
    39   19   21 am   BACKBONE|DICT|INTERRES
    40   21   22 am   BACKBONE|DICT|INTERRES
    41   21   53 1    
    42   22   26 1    
    43   22   23 2    
    44   23   24 1    
    45   23   33 1    
    46   24   25 2    
    47   24   54 1    
    48   25   26 1    
    49   25   27 1    
    50   27   32 ar   
    51   27   28 ar   
    52   28   29 ar   
    53   28   55 1    
    54   29   30 ar   
    55   29   56 1    
    56   30   31 ar   
    57   30   57 1    
    58   31   32 ar   
    59   31   58 1    
    60   32   59 1    
    61   33   34 2    
    62   33   35 am   BACKBONE|DICT|INTERRES
    63   35   60 1    
    64   35   61 1    
@<TRIPOS>SUBSTRUCTURE
     1 UNK         1 GROUP             0       ****    0 ROOT    
