ZINC08741095_4656
                    3D
 Schrodinger Suite 2024-2.
 51 55  0  0  1  0            999 V2000
    6.4898   55.2547   19.2714 C   0  0  0  0  0  0
    7.5531   55.7022   20.0494 C   0  0  0  0  0  0
    7.5038   55.6005   21.4358 C   0  0  0  0  0  0
    6.3756   55.0294   22.0748 C   0  0  0  0  0  0
    6.3079   54.8949   23.4847 C   0  0  0  0  0  0
    5.1684   54.3750   24.1085 C   0  0  0  0  0  0
    4.0868   53.9776   23.3105 C   0  0  0  0  0  0
    4.1309   54.0683   21.9226 C   0  0  0  0  0  0
    5.2765   54.5902   21.2800 C   0  0  0  0  0  0
    5.3580   54.7061   19.8691 C   0  0  0  0  0  0
    5.1307   54.2279   25.6056 C   0  0  0  0  0  0
    6.1446   54.5613   26.5055 C   0  0  0  0  0  0
    5.7073   54.0896   28.1160 S   0  0  0  0  0  0
    4.2013   53.4999   27.4855 C   0  0  0  0  0  0
    4.0703   53.6971   26.1941 N   0  0  0  0  0  0
    3.1957   52.8089   28.3098 C   0  0  0  0  0  0
    1.9602   52.4288   27.9200 C   0  0  0  0  0  0
    1.3530   52.6019   26.6931 N   0  0  0  0  0  0
    0.1239   52.0986   26.2436 C   0  0  0  0  0  0
   -0.6639   51.2298   27.0030 C   0  0  0  0  0  0
   -1.8854   50.7862   26.5117 C   0  0  0  0  0  0
   -2.3485   51.2250   25.2725 C   0  0  0  0  0  0
   -1.5556   52.0761   24.5000 C   0  0  0  0  0  0
   -0.3165   52.4966   24.9786 C   0  0  0  0  0  0
   -3.9676   50.7024   24.6845 S   0  0  0  0  0  0
   -4.0082   51.1330   23.2830 O   0  0  0  0  0  0
   -4.0168   49.2574   24.9327 O   0  0  0  0  0  0
   -4.8922   51.5858   25.6015 N   0  5  0  0  0  0
   -5.3815   51.3083   26.8279 C   0  0  0  0  0  0
   -6.1203   52.1410   27.5234 N   0  0  0  0  0  0
   -6.4822   51.6687   28.7015 C   0  0  0  0  0  0
   -6.0396   50.3926   29.0133 C   0  0  0  0  0  0
   -5.1177   49.7919   27.6695 S   0  0  0  0  0  0
    3.6078   52.4934   29.6404 C   0  0  0  0  0  0
    3.9025   52.1879   30.7173 N   0  0  0  0  0  0
    6.5418   55.3391   18.1955 H   0  0  0  0  0  0
    8.4251   56.1269   19.5721 H   0  0  0  0  0  0
    8.3292   55.9506   22.0353 H   0  0  0  0  0  0
    7.1563   55.2155   24.0690 H   0  0  0  0  0  0
    3.1942   53.5731   23.7634 H   0  0  0  0  0  0
    3.2877   53.7476   21.3293 H   0  0  0  0  0  0
    4.5304   54.3701   19.2588 H   0  0  0  0  0  0
    7.1035   55.0052   26.3119 H   0  0  0  0  0  0
    1.3256   51.9214   28.6311 H   0  0  0  0  0  0
    1.8298   53.1622   26.0034 H   0  0  0  0  0  0
   -0.3601   50.8648   27.9739 H   0  0  0  0  0  0
   -2.4617   50.0969   27.1088 H   0  0  0  0  0  0
   -1.9019   52.4130   23.5337 H   0  0  0  0  0  0
    0.2816   53.1602   24.3716 H   0  0  0  0  0  0
   -7.0911   52.2833   29.3482 H   0  0  0  0  0  0
   -6.1947   49.8050   29.9053 H   0  0  0  0  0  0
  1 10  2  0  0  0
  1  2  1  0  0  0
  1 36  1  0  0  0
  2  3  2  0  0  0
  2 37  1  0  0  0
  3  4  1  0  0  0
  3 38  1  0  0  0
  4  9  2  0  0  0
  4  5  1  0  0  0
  5  6  2  0  0  0
  5 39  1  0  0  0
  6  7  1  0  0  0
  6 11  1  0  0  0
  7  8  2  0  0  0
  7 40  1  0  0  0
  8  9  1  0  0  0
  8 41  1  0  0  0
  9 10  1  0  0  0
 10 42  1  0  0  0
 11 15  1  0  0  0
 11 12  2  0  0  0
 12 13  1  0  0  0
 12 43  1  0  0  0
 13 14  1  0  0  0
 14 15  2  0  0  0
 14 16  1  0  0  0
 16 17  2  0  0  0
 16 34  1  0  0  0
 17 18  1  0  0  0
 17 44  1  0  0  0
 18 19  1  0  0  0
 18 45  1  0  0  0
 19 24  2  0  0  0
 19 20  1  0  0  0
 20 21  2  0  0  0
 20 46  1  0  0  0
 21 22  1  0  0  0
 21 47  1  0  0  0
 22 23  2  0  0  0
 22 25  1  0  0  0
 23 24  1  0  0  0
 23 48  1  0  0  0
 24 49  1  0  0  0
 25 26  2  0  0  0
 25 27  2  0  0  0
 25 28  1  0  0  0
 28 29  1  0  0  0
 29 33  1  0  0  0
 29 30  2  0  0  0
 30 31  1  0  0  0
 31 32  2  0  0  0
 31 50  1  0  0  0
 32 33  1  0  0  0
 32 51  1  0  0  0
 34 35  3  0  0  0
M  CHG  1  28  -1
M  END
> <i_i_glide_confnum>
227

> <i_i_glide_lignum>
4657

> <i_i_glide_posenum>
319

> <i_i_glide_rotatable_bonds>
8

> <i_m_Source_File_Index>
1444

> <b_m_subgroup_collapsed>
0

> <r_i_docking_score>
-5.90788

> <r_i_glide_ecoul>
-3.74131

> <r_i_glide_eff_state_penalty>
0

> <r_i_glide_einternal>
6.22395

> <r_i_glide_emodel>
-67.4665

> <r_i_glide_energy>
-51.3437

> <r_i_glide_erotb>
0.619663

> <r_i_glide_esite>
-0.0119663

> <r_i_glide_evdw>
-47.6024

> <r_i_glide_gscore>
-5.90788

> <r_i_glide_hbond>
-0.103461

> <r_i_glide_ligand_efficiency>
-0.168797

> <r_i_glide_ligand_efficiency_ln>
-1.29691

> <r_i_glide_ligand_efficiency_sa>
-0.552145

> <r_i_glide_lipo>
-3.22548

> <r_i_glide_metal>
0

> <r_i_glide_rewards>
-0.245323

> <s_i_glide_gridfile>
wee1_glide-grid

> <s_m_Source_File>
wee1_decoys_glide_SP.sdf

> <s_m_Source_Path>
/Users/zhangxujun/Desktop

> <s_m_entry_id>
1719

> <s_m_entry_name>
wee1_decoys_glide_SP.1444

> <s_m_subgroup_title>
wee1_decoys_glide_SP

> <s_m_subgroupid>
wee1_decoys_glide_SP


$$$$
