@<TRIPOS>MOLECULE
ZINC33121115_163
72   76    1
SMALL
USER_CHARGES


@<TRIPOS>ATOM
      1 C1          2.4103   50.4813   21.2094 C.ar      1 UNK         0.0000 
      2 C2          1.6792   49.7504   22.1369 C.ar      1 UNK         0.0000 
      3 C3          0.3975   50.1597   22.5413 C.ar      1 UNK         0.0000 
      4 C4         -0.1966   51.2772   21.9148 C.ar      1 UNK         0.0000 
      5 C5          0.5574   52.0014   20.9790 C.ar      1 UNK         0.0000 
      6 C6          1.8677   51.6389   20.6643 C.ar      1 UNK         0.0000 
      7 N7          2.6300   52.4969   19.8696 N.pl3     1 UNK         0.0000 
      8 S8          4.2118   53.0966   20.4231 S.o2      1 UNK         0.0000 
      9 O9          5.1045   51.9377   20.4823 O.2       1 UNK         0.0000 
     10 O10         4.5470   54.2523   19.5861 O.2       1 UNK         0.0000 
     11 C11         4.0824   53.6841   22.1122 C.ar      1 UNK         0.0000 
     12 C12         2.8562   53.9153   22.7280 C.ar      1 UNK         0.0000 
     13 C13         2.8093   54.1697   24.0938 C.ar      1 UNK         0.0000 
     14 C14         3.9784   54.2586   24.8576 C.ar      1 UNK         0.0000 
     15 C15         5.2323   54.1415   24.2152 C.ar      1 UNK         0.0000 
     16 C16         5.2567   53.8427   22.8492 C.ar      1 UNK         0.0000 
     17 C17         6.5530   54.2531   24.9874 C.3       1 UNK         0.0000 
     18 C18         6.3907   54.6168   26.4789 C.3       1 UNK         0.0000 
     19 C19         5.1369   53.9900   27.0993 C.3       1 UNK         0.0000 
     20 C20         3.8880   54.4966   26.3598 C.3       1 UNK         0.0000 
     21 C21        -1.5730   51.8052   22.2701 C.2       1 UNK         0.0000 
     22 O22        -2.4524   51.6975   21.4123 O.2       1 UNK         0.0000 
     23 N23        -1.7700   52.4845   23.4425 N.am      1 UNK         0.0000 
     24 C24        -3.0439   53.1786   23.6846 C.3       1 UNK         0.0000 
     25 C25        -4.1753   52.3116   24.2515 C.3       1 UNK         0.0000 
     26 C26        -4.0366   52.0916   25.7627 C.3       1 UNK         0.0000 
     27 C27        -2.7046   51.4481   26.1704 C.3       1 UNK         0.0000 
     28 C28        -1.4417   52.3245   25.9966 C.3       1 UNK         0.0000 
     29 C29        -0.8279   52.4961   24.5738 C.3       1 UNK         0.0000 
     30 N30        -0.2407   49.4565   23.5506 N.pl3     1 UNK         0.0000 
     31 C31        -1.2451   48.4331   23.2260 C.3       1 UNK         0.0000 
     32 C32        -2.1301   47.9688   24.4075 C.3       1 UNK         0.0000 
     33 N33        -1.2955   47.7497   25.6817 N.4       1 UNK         0.0000 
     34 C34        -0.2908   48.8705   25.9833 C.3       1 UNK         0.0000 
     35 C35         0.5424   49.1660   24.7519 C.3       1 UNK         0.0000 
     36 H36         3.4119   50.1675   20.9540 H         1 UNK         0.0000 
     37 H37         2.1464   48.8832   22.5780 H         1 UNK         0.0000 
     38 H38         0.1547   52.8968   20.5267 H         1 UNK         0.0000 
     39 H39         2.6432   52.2549   18.8905 H         1 UNK         0.0000 
     40 H40         1.9368   53.8666   22.1685 H         1 UNK         0.0000 
     41 H41         1.8481   54.3032   24.5676 H         1 UNK         0.0000 
     42 H42         6.2091   53.6897   22.3630 H         1 UNK         0.0000 
     43 H43         7.0693   53.2971   24.9183 H         1 UNK         0.0000 
     44 H44         7.2077   54.9768   24.4982 H         1 UNK         0.0000 
     45 H45         6.3302   55.6988   26.5830 H         1 UNK         0.0000 
     46 H46         7.2788   54.3135   27.0356 H         1 UNK         0.0000 
     47 H47         5.0740   54.2476   28.1575 H         1 UNK         0.0000 
     48 H48         5.1949   52.9002   27.0448 H         1 UNK         0.0000 
     49 H49         3.7739   55.5661   26.5135 H         1 UNK         0.0000 
     50 H50         2.9949   54.0250   26.7717 H         1 UNK         0.0000 
     51 H51        -2.8929   54.0968   24.2445 H         1 UNK         0.0000 
     52 H52        -3.3743   53.5785   22.7347 H         1 UNK         0.0000 
     53 H53        -4.2341   51.3588   23.7219 H         1 UNK         0.0000 
     54 H54        -5.1266   52.8172   24.0811 H         1 UNK         0.0000 
     55 H55        -4.8567   51.4549   26.0992 H         1 UNK         0.0000 
     56 H56        -4.1634   53.0377   26.2914 H         1 UNK         0.0000 
     57 H57        -2.7765   51.1381   27.2146 H         1 UNK         0.0000 
     58 H58        -2.5971   50.5401   25.5928 H         1 UNK         0.0000 
     59 H59        -1.6969   53.2975   26.3998 H         1 UNK         0.0000 
     60 H60        -0.6508   51.9775   26.6623 H         1 UNK         0.0000 
     61 H61        -0.3950   53.4966   24.5695 H         1 UNK         0.0000 
     62 H62         0.0103   51.8174   24.4455 H         1 UNK         0.0000 
     63 H63        -1.8529   48.7227   22.3671 H         1 UNK         0.0000 
     64 H64        -0.6414   47.5727   22.9359 H         1 UNK         0.0000 
     65 H65        -2.6063   47.0076   24.2115 H         1 UNK         0.0000 
     66 H66        -2.9039   48.6914   24.6562 H         1 UNK         0.0000 
     67 H67        -0.7565   46.8965   25.6238 H         1 UNK         0.0000 
     68 H68         0.3159   48.4968   26.8067 H         1 UNK         0.0000 
     69 H69        -0.8394   49.7124   26.3780 H         1 UNK         0.0000 
     70 H70         1.1035   48.2641   24.5239 H         1 UNK         0.0000 
     71 H71         1.2589   49.9604   24.9529 H         1 UNK         0.0000 
     72 H72        -1.8652   47.6642   26.5225 H         1 UNK         0.0000 
@<TRIPOS>BOND
     1    1    6 ar   
     2    1    2 ar   
     3    1   36 1    
     4    2    3 ar   
     5    2   37 1    
     6    3    4 ar   
     7    3   30 1    
     8    4    5 ar   
     9    4   21 1    
    10    5    6 ar   
    11    5   38 1    
    12    6    7 1    
    13    7    8 1    
    14    7   39 1    
    15    8    9 2    
    16    8   10 2    
    17    8   11 1    
    18   11   16 ar   
    19   11   12 ar   
    20   12   13 ar   
    21   12   40 1    
    22   13   14 ar   
    23   13   41 1    
    24   14   20 1    
    25   14   15 ar   
    26   15   16 ar   
    27   15   17 1    
    28   16   42 1    
    29   17   18 1    
    30   17   43 1    
    31   17   44 1    
    32   18   19 1    
    33   18   45 1    
    34   18   46 1    
    35   19   20 1    
    36   19   47 1    
    37   19   48 1    
    38   20   49 1    
    39   20   50 1    
    40   21   22 2    
    41   21   23 am   BACKBONE|DICT|INTERRES
    42   23   29 1    
    43   23   24 1    
    44   24   25 1    
    45   24   51 1    
    46   24   52 1    
    47   25   26 1    
    48   25   53 1    
    49   25   54 1    
    50   26   27 1    
    51   26   55 1    
    52   26   56 1    
    53   27   28 1    
    54   27   57 1    
    55   27   58 1    
    56   28   29 1    
    57   28   59 1    
    58   28   60 1    
    59   29   61 1    
    60   29   62 1    
    61   30   35 1    
    62   30   31 1    
    63   31   32 1    
    64   31   63 1    
    65   31   64 1    
    66   32   33 1    
    67   32   65 1    
    68   32   66 1    
    69   33   34 1    
    70   33   67 1    
    71   33   72 1    
    72   34   35 1    
    73   34   68 1    
    74   34   69 1    
    75   35   70 1    
    76   35   71 1    
@<TRIPOS>SUBSTRUCTURE
     1 UNK         1 GROUP             0       ****    0 ROOT    
