@<TRIPOS>MOLECULE
ZINC35692882_5801
57   60    1
SMALL
USER_CHARGES


@<TRIPOS>ATOM
      1 C1          0.2508   53.8177   30.4815 C.3       1 UNK         0.0000 
      2 C2         -0.1204   52.3669   30.1556 C.3       1 UNK         0.0000 
      3 O3         -0.2679   52.1887   28.7487 O.3       1 UNK         0.0000 
      4 C4          0.7766   51.8236   27.9677 C.2       1 UNK         0.0000 
      5 O5          1.9064   51.5755   28.3939 O.2       1 UNK         0.0000 
      6 C6          0.4230   51.7350   26.5457 C.2       1 UNK         0.0000 
      7 C7          1.1039   52.3309   25.4996 C.2       1 UNK         0.0000 
      8 N8          0.7469   52.0437   24.2002 N.2       1 UNK         0.0000 
      9 C9          0.1064   50.9648   23.9535 C.2       1 UNK         0.0000 
     10 N10        -0.4570   50.1216   24.8995 N.pl3     1 UNK         0.0000 
     11 C11        -0.6788   50.6742   26.2608 C.3       1 UNK         0.0000 
     12 H12        -0.5306   49.8373   26.9436 H         1 UNK         0.0000 
     13 C13        -2.0902   51.2348   26.4358 C.2       1 UNK         0.0000 
     14 C14        -3.0662   50.8643   27.3602 C.2       1 UNK         0.0000 
     15 C15        -4.2812   51.5421   27.2338 C.2       1 UNK         0.0000 
     16 C16        -4.2618   52.4726   26.2125 C.2       1 UNK         0.0000 
     17 S17        -2.7315   52.4967   25.4084 S.3       1 UNK         0.0000 
     18 C18        -0.9674   48.9292   24.4168 C.2       1 UNK         0.0000 
     19 C19        -1.0053   48.9152   23.0713 C.2       1 UNK         0.0000 
     20 S20        -0.3132   50.3669   22.3368 S.3       1 UNK         0.0000 
     21 C21        -1.4715   47.8731   25.2817 C.2       1 UNK         0.0000 
     22 C22        -2.3554   46.8959   25.0235 C.2       1 UNK         0.0000 
     23 O23        -2.9597   46.5581   23.9402 O.co2     1 UNK         0.0000 
     24 N24        -2.7115   46.0482   26.0464 N.pl3     1 UNK         0.0000 
     25 C25        -4.0264   45.9996   26.6876 C.3       1 UNK         0.0000 
     26 C26        -5.1541   45.3325   25.8690 C.3       1 UNK         0.0000 
     27 O27        -4.8959   43.9511   25.6305 O.3       1 UNK         0.0000 
     28 C28        -5.2815   43.0803   26.6894 C.3       1 UNK         0.0000 
     29 C29         2.2783   53.2979   25.5684 C.ar      1 UNK         0.0000 
     30 C30         3.1042   53.4991   24.4398 C.ar      1 UNK         0.0000 
     31 C31         4.2525   54.2827   24.4918 C.ar      1 UNK         0.0000 
     32 C32         4.6092   54.8967   25.6836 C.ar      1 UNK         0.0000 
     33 C33         3.8016   54.7585   26.8046 C.ar      1 UNK         0.0000 
     34 C34         2.6389   53.9976   26.7355 C.ar      1 UNK         0.0000 
     35 H35         0.3036   53.9705   31.5596 H         1 UNK         0.0000 
     36 H36         1.2176   54.0851   30.0544 H         1 UNK         0.0000 
     37 H37        -0.4955   54.5002   30.0821 H         1 UNK         0.0000 
     38 H38        -1.0650   52.1088   30.6348 H         1 UNK         0.0000 
     39 H39         0.6296   51.6968   30.5732 H         1 UNK         0.0000 
     40 H40        -2.8959   50.0960   28.1022 H         1 UNK         0.0000 
     41 H41        -5.1372   51.3556   27.8656 H         1 UNK         0.0000 
     42 H42        -5.0583   53.1283   25.8947 H         1 UNK         0.0000 
     43 H43        -1.3917   48.1181   22.4549 H         1 UNK         0.0000 
     44 H44        -1.0720   47.8819   26.2838 H         1 UNK         0.0000 
     45 H45        -2.0416   46.1609   26.7953 H         1 UNK         0.0000 
     46 H46        -4.3097   47.0224   26.9420 H         1 UNK         0.0000 
     47 H47        -3.9143   45.4838   27.6415 H         1 UNK         0.0000 
     48 H48        -5.2735   45.8352   24.9098 H         1 UNK         0.0000 
     49 H49        -6.1128   45.4566   26.3759 H         1 UNK         0.0000 
     50 H50        -4.9108   42.0745   26.4901 H         1 UNK         0.0000 
     51 H51        -6.3679   43.0249   26.7624 H         1 UNK         0.0000 
     52 H52        -4.8950   43.3943   27.6590 H         1 UNK         0.0000 
     53 H53         2.8910   53.0102   23.5006 H         1 UNK         0.0000 
     54 H54         4.8717   54.3967   23.6140 H         1 UNK         0.0000 
     55 H55         5.5066   55.4953   25.7349 H         1 UNK         0.0000 
     56 H56         4.0664   55.2530   27.7272 H         1 UNK         0.0000 
     57 H57         2.0345   53.9770   27.6243 H         1 UNK         0.0000 
@<TRIPOS>BOND
     1    1    2 1    
     2    1   35 1    
     3    1   36 1    
     4    1   37 1    
     5    2    3 1    
     6    2   38 1    
     7    2   39 1    
     8    3    4 1    
     9    4    5 2    
    10    4    6 1    
    11    6   11 1    
    12    6    7 2    
    13    7    8 1    
    14    7   29 1    
    15    8    9 2    
    16    9   20 1    
    17    9   10 1    
    18   10   11 1    
    19   10   18 1    
    20   11   12 1    
    21   11   13 1    
    22   13   17 1    
    23   13   14 2    
    24   14   15 1    
    25   14   40 1    
    26   15   16 2    
    27   15   41 1    
    28   16   17 1    
    29   16   42 1    
    30   18   19 2    
    31   18   21 1    
    32   19   20 1    
    33   19   43 1    
    34   21   22 2    
    35   21   44 1    
    36   22   23 1    
    37   22   24 1    
    38   24   25 1    
    39   24   45 1    
    40   25   26 1    
    41   25   46 1    
    42   25   47 1    
    43   26   27 1    
    44   26   48 1    
    45   26   49 1    
    46   27   28 1    
    47   28   50 1    
    48   28   51 1    
    49   28   52 1    
    50   29   34 ar   
    51   29   30 ar   
    52   30   31 ar   
    53   30   53 1    
    54   31   32 ar   
    55   31   54 1    
    56   32   33 ar   
    57   32   55 1    
    58   33   34 ar   
    59   33   56 1    
    60   34   57 1    
@<TRIPOS>SUBSTRUCTURE
     1 UNK         1 GROUP             0       ****    0 ROOT    
