@<TRIPOS>MOLECULE
ZINC41006337_4504
77   80    1
SMALL
USER_CHARGES


@<TRIPOS>ATOM
      1 C1          1.6297   54.0739   28.1212 C.3       1 UNK         0.0000 
      2 C2          0.3118   53.3576   28.4453 C.3       1 UNK         0.0000 
      3 C3         -0.0336   52.2723   27.4377 C.ar      1 UNK         0.0000 
      4 C4          0.7368   51.1123   27.3778 C.ar      1 UNK         0.0000 
      5 C5          0.4000   50.0966   26.4892 C.ar      1 UNK         0.0000 
      6 C6         -0.7044   50.2290   25.6557 C.ar      1 UNK         0.0000 
      7 C7         -1.4261   51.4272   25.6559 C.ar      1 UNK         0.0000 
      8 C8         -1.1189   52.4219   26.5742 C.ar      1 UNK         0.0000 
      9 C9         -1.1184   49.0300   24.7844 C.3       1 UNK         0.0000 
     10 H10        -0.2947   48.3136   24.8785 H         1 UNK         0.0000 
     11 C11        -1.2300   49.3625   23.2513 C.3       1 UNK         0.0000 
     12 H12        -1.9396   50.1730   23.0785 H         1 UNK         0.0000 
     13 C13        -1.7466   48.1519   22.4132 C.2       1 UNK         0.0000 
     14 O14        -1.3031   47.8353   21.3081 O.2       1 UNK         0.0000 
     15 C15        -2.9058   47.3564   23.0295 C.3       1 UNK         0.0000 
     16 C16        -2.7481   47.0289   24.5345 C.3       1 UNK         0.0000 
     17 C17        -2.3787   48.2883   25.3733 C.3       1 UNK         0.0000 
     18 H18        -2.1309   47.9463   26.3796 H         1 UNK         0.0000 
     19 C19        -3.5979   49.2296   25.5887 C.2       1 UNK         0.0000 
     20 O20        -4.2332   49.6219   24.6088 O.2       1 UNK         0.0000 
     21 N21        -3.8479   49.5882   26.8696 N.am      1 UNK         0.0000 
     22 C22        -4.8411   50.4469   27.3989 C.ar      1 UNK         0.0000 
     23 C23        -5.8700   51.0165   26.6254 C.ar      1 UNK         0.0000 
     24 C24        -6.8170   51.8573   27.2046 C.ar      1 UNK         0.0000 
     25 C25        -6.7669   52.1373   28.5680 C.ar      1 UNK         0.0000 
     26 C26        -5.7649   51.5606   29.3514 C.ar      1 UNK         0.0000 
     27 C27        -4.7946   50.7328   28.7768 C.ar      1 UNK         0.0000 
     28 C28        -3.6967   50.1728   29.6732 C.3       1 UNK         0.0000 
     29 C29        -7.8027   53.0607   29.1838 C.3       1 UNK         0.0000 
     30 C30        -3.9889   46.2590   25.0461 C.3       1 UNK         0.0000 
     31 O31        -1.6959   46.0996   24.7046 O.3       1 UNK         0.0000 
     32 C32         0.1609   49.8698   22.7577 C.2       1 UNK         0.0000 
     33 O33         1.0556   49.0581   22.5087 O.2       1 UNK         0.0000 
     34 N34         0.3468   51.2071   22.6957 N.am      1 UNK         0.0000 
     35 C35         1.5168   51.8758   22.2728 C.ar      1 UNK         0.0000 
     36 C36         2.3054   51.3862   21.2157 C.ar      1 UNK         0.0000 
     37 C37         3.4420   52.0727   20.7971 C.ar      1 UNK         0.0000 
     38 C38         3.8093   53.2634   21.4231 C.ar      1 UNK         0.0000 
     39 C39         3.0402   53.7543   22.4802 C.ar      1 UNK         0.0000 
     40 C40         1.8888   53.0801   22.9012 C.ar      1 UNK         0.0000 
     41 C41         1.0781   53.6742   24.0458 C.3       1 UNK         0.0000 
     42 C42         5.0339   54.0253   20.9577 C.3       1 UNK         0.0000 
     43 H43         1.8146   54.8854   28.8234 H         1 UNK         0.0000 
     44 H44         2.4762   53.3893   28.1751 H         1 UNK         0.0000 
     45 H45         1.6122   54.4971   27.1177 H         1 UNK         0.0000 
     46 H46        -0.4949   54.0909   28.4927 H         1 UNK         0.0000 
     47 H47         0.3616   52.9090   29.4384 H         1 UNK         0.0000 
     48 H48         1.5795   50.9805   28.0401 H         1 UNK         0.0000 
     49 H49         0.9814   49.1831   26.4879 H         1 UNK         0.0000 
     50 H50        -2.2777   51.5645   25.0051 H         1 UNK         0.0000 
     51 H51        -1.7416   53.2971   26.6114 H         1 UNK         0.0000 
     52 H52        -3.8131   47.9350   22.8608 H         1 UNK         0.0000 
     53 H53        -3.0162   46.4324   22.4609 H         1 UNK         0.0000 
     54 H54        -3.1896   49.2337   27.5588 H         1 UNK         0.0000 
     55 H55        -5.9689   50.8285   25.5692 H         1 UNK         0.0000 
     56 H56        -7.5945   52.2858   26.5875 H         1 UNK         0.0000 
     57 H57        -5.7370   51.7586   30.4133 H         1 UNK         0.0000 
     58 H58        -3.7939   50.4845   30.7142 H         1 UNK         0.0000 
     59 H59        -3.6988   49.0840   29.6476 H         1 UNK         0.0000 
     60 H60        -2.7189   50.4970   29.3174 H         1 UNK         0.0000 
     61 H61        -7.8106   53.0008   30.2751 H         1 UNK         0.0000 
     62 H62        -7.6200   54.0962   28.8816 H         1 UNK         0.0000 
     63 H63        -8.8021   52.7865   28.8390 H         1 UNK         0.0000 
     64 H64        -4.8993   46.8540   24.9551 H         1 UNK         0.0000 
     65 H65        -4.1590   45.3467   24.4763 H         1 UNK         0.0000 
     66 H66        -3.8870   45.9829   26.0967 H         1 UNK         0.0000 
     67 H67        -1.1649   46.3885   25.4579 H         1 UNK         0.0000 
     68 H68        -0.3546   51.7842   23.1310 H         1 UNK         0.0000 
     69 H69         2.0374   50.4764   20.6978 H         1 UNK         0.0000 
     70 H70         4.0233   51.6837   19.9722 H         1 UNK         0.0000 
     71 H71         3.3296   54.6789   22.9596 H         1 UNK         0.0000 
     72 H72         1.1981   53.0625   24.9388 H         1 UNK         0.0000 
     73 H73         1.3831   54.6955   24.2732 H         1 UNK         0.0000 
     74 H74         0.0177   53.7020   23.7955 H         1 UNK         0.0000 
     75 H75         5.6892   53.4030   20.3466 H         1 UNK         0.0000 
     76 H76         5.6176   54.3743   21.8118 H         1 UNK         0.0000 
     77 H77         4.7377   54.8977   20.3732 H         1 UNK         0.0000 
@<TRIPOS>BOND
     1    1    2 1    
     2    1   43 1    
     3    1   44 1    
     4    1   45 1    
     5    2    3 1    
     6    2   46 1    
     7    2   47 1    
     8    3    8 ar   
     9    3    4 ar   
    10    4    5 ar   
    11    4   48 1    
    12    5    6 ar   
    13    5   49 1    
    14    6    7 ar   
    15    6    9 1    
    16    7    8 ar   
    17    7   50 1    
    18    8   51 1    
    19    9   10 1    
    20    9   17 1    
    21    9   11 1    
    22   11   12 1    
    23   11   13 1    
    24   11   32 1    
    25   13   14 2    
    26   13   15 1    
    27   15   16 1    
    28   15   52 1    
    29   15   53 1    
    30   16   17 1    
    31   16   30 1    
    32   16   31 1    
    33   17   18 1    
    34   17   19 1    
    35   19   20 2    
    36   19   21 am   BACKBONE|DICT|INTERRES
    37   21   22 1    
    38   21   54 1    
    39   22   27 ar   
    40   22   23 ar   
    41   23   24 ar   
    42   23   55 1    
    43   24   25 ar   
    44   24   56 1    
    45   25   26 ar   
    46   25   29 1    
    47   26   27 ar   
    48   26   57 1    
    49   27   28 1    
    50   28   58 1    
    51   28   59 1    
    52   28   60 1    
    53   29   61 1    
    54   29   62 1    
    55   29   63 1    
    56   30   64 1    
    57   30   65 1    
    58   30   66 1    
    59   31   67 1    
    60   32   33 2    
    61   32   34 am   BACKBONE|DICT|INTERRES
    62   34   35 1    
    63   34   68 1    
    64   35   40 ar   
    65   35   36 ar   
    66   36   37 ar   
    67   36   69 1    
    68   37   38 ar   
    69   37   70 1    
    70   38   39 ar   
    71   38   42 1    
    72   39   40 ar   
    73   39   71 1    
    74   40   41 1    
    75   41   72 1    
    76   41   73 1    
    77   41   74 1    
    78   42   75 1    
    79   42   76 1    
    80   42   77 1    
@<TRIPOS>SUBSTRUCTURE
     1 UNK         1 GROUP             0       ****    0 ROOT    
