@<TRIPOS>MOLECULE
ZINC14781014_2663
52   56    1
SMALL
USER_CHARGES


@<TRIPOS>ATOM
      1 C1         -6.1155   50.4941   23.9786 C.3       1 UNK         0.0000 
      2 C2         -4.6397   50.9071   24.1329 C.3       1 UNK         0.0000 
      3 H3         -4.1493   50.2329   24.8372 H         1 UNK         0.0000 
      4 C4         -4.5148   52.3271   24.7881 C.2       1 UNK         0.0000 
      5 O5         -5.3560   52.8760   25.4977 O.2       1 UNK         0.0000 
      6 N6         -3.3289   52.8976   24.5058 N.am      1 UNK         0.0000 
      7 C7         -2.3319   52.3649   23.6935 C.ar      1 UNK         0.0000 
      8 C8         -1.0443   52.8910   23.6818 C.ar      1 UNK         0.0000 
      9 C9         -0.0569   52.3228   22.8574 C.ar      1 UNK         0.0000 
     10 C10        -0.3946   51.2548   22.0158 C.ar      1 UNK         0.0000 
     11 C11        -1.6911   50.7292   22.0237 C.ar      1 UNK         0.0000 
     12 C12        -2.6461   51.2790   22.8783 C.ar      1 UNK         0.0000 
     13 O13        -3.9404   50.7964   22.8659 O.3       1 UNK         0.0000 
     14 N14         1.2616   52.8117   22.8111 N.am      1 UNK         0.0000 
     15 C15         1.9532   53.3407   23.8473 C.2       1 UNK         0.0000 
     16 O16         1.5052   53.4452   24.9916 O.2       1 UNK         0.0000 
     17 C17         3.3023   53.7768   23.5425 C.ar      1 UNK         0.0000 
     18 C18         4.2607   54.1019   24.5178 C.ar      1 UNK         0.0000 
     19 C19         5.3973   54.4915   23.8003 C.ar      1 UNK         0.0000 
     20 N20         5.0399   54.4799   22.4576 N.pl3     1 UNK         0.0000 
     21 N21         3.7773   54.0106   22.3351 N.2       1 UNK         0.0000 
     22 C22         5.7560   54.8947   21.2777 C.ar      1 UNK         0.0000 
     23 C23         7.1041   55.2967   21.3213 C.ar      1 UNK         0.0000 
     24 C24         7.7709   55.6962   20.1658 C.ar      1 UNK         0.0000 
     25 C25         7.1026   55.7060   18.9479 C.ar      1 UNK         0.0000 
     26 C26         5.7737   55.3068   18.8733 C.ar      1 UNK         0.0000 
     27 C27         5.1083   54.8961   20.0258 C.ar      1 UNK         0.0000 
     28 F28         7.7529   56.0974   17.8296 F         1 UNK         0.0000 
     29 C29         6.7048   54.9421   24.4412 C.3       1 UNK         0.0000 
     30 C30         6.5162   55.1260   25.9569 C.3       1 UNK         0.0000 
     31 C31         5.6496   54.0501   26.6191 C.3       1 UNK         0.0000 
     32 C32         4.2213   54.0448   26.0485 C.3       1 UNK         0.0000 
     33 H33        -6.6340   51.1352   23.2647 H         1 UNK         0.0000 
     34 H34        -6.1912   49.4690   23.6162 H         1 UNK         0.0000 
     35 H35        -6.6564   50.5400   24.9264 H         1 UNK         0.0000 
     36 H36        -3.1731   53.7761   24.9752 H         1 UNK         0.0000 
     37 H37        -0.8183   53.7312   24.3161 H         1 UNK         0.0000 
     38 H38         0.3448   50.8204   21.3590 H         1 UNK         0.0000 
     39 H39        -1.9494   49.9004   21.3821 H         1 UNK         0.0000 
     40 H40         1.7525   52.7102   21.9339 H         1 UNK         0.0000 
     41 H41         7.7041   55.2674   22.2114 H         1 UNK         0.0000 
     42 H42         8.8122   55.9818   20.2073 H         1 UNK         0.0000 
     43 H43         5.2645   55.3146   17.9223 H         1 UNK         0.0000 
     44 H44         4.0727   54.5986   19.9220 H         1 UNK         0.0000 
     45 H45         7.4842   54.1984   24.2643 H         1 UNK         0.0000 
     46 H46         7.0507   55.8973   24.0457 H         1 UNK         0.0000 
     47 H47         7.4790   55.1733   26.4636 H         1 UNK         0.0000 
     48 H48         6.0426   56.0956   26.0930 H         1 UNK         0.0000 
     49 H49         6.1115   53.0712   26.4834 H         1 UNK         0.0000 
     50 H50         5.6156   54.2095   27.6971 H         1 UNK         0.0000 
     51 H51         3.7005   53.1531   26.4006 H         1 UNK         0.0000 
     52 H52         3.6616   54.8994   26.4342 H         1 UNK         0.0000 
@<TRIPOS>BOND
     1    1    2 1    
     2    1   33 1    
     3    1   34 1    
     4    1   35 1    
     5    2    3 1    
     6    2   13 1    
     7    2    4 1    
     8    4    5 2    
     9    4    6 am   BACKBONE|DICT|INTERRES
    10    6    7 1    
    11    6   36 1    
    12    7   12 ar   
    13    7    8 ar   
    14    8    9 ar   
    15    8   37 1    
    16    9   10 ar   
    17    9   14 1    
    18   10   11 ar   
    19   10   38 1    
    20   11   12 ar   
    21   11   39 1    
    22   12   13 1    
    23   14   15 am   BACKBONE|DICT|INTERRES
    24   14   40 1    
    25   15   16 2    
    26   15   17 1    
    27   17   21 ar   
    28   17   18 ar   
    29   18   32 1    
    30   18   19 ar   
    31   19   20 ar   
    32   19   29 1    
    33   20   21 ar   
    34   20   22 1    
    35   22   27 ar   
    36   22   23 ar   
    37   23   24 ar   
    38   23   41 1    
    39   24   25 ar   
    40   24   42 1    
    41   25   26 ar   
    42   25   28 1    
    43   26   27 ar   
    44   26   43 1    
    45   27   44 1    
    46   29   30 1    
    47   29   45 1    
    48   29   46 1    
    49   30   31 1    
    50   30   47 1    
    51   30   48 1    
    52   31   32 1    
    53   31   49 1    
    54   31   50 1    
    55   32   51 1    
    56   32   52 1    
@<TRIPOS>SUBSTRUCTURE
     1 UNK         1 GROUP             0       ****    0 ROOT    
