ZINC49978549_1699
                    3D
 Schrodinger Suite 2024-2.
 35 36  0  0  1  0            999 V2000
    2.0328   54.1019   23.2824 C   0  0  0  0  0  0
    3.0987   54.0971   24.3620 C   0  0  0  0  0  0
    4.4093   54.4706   24.0623 C   0  0  0  0  0  0
    5.3813   54.4972   25.0627 C   0  0  0  0  0  0
    5.0433   54.1192   26.3641 C   0  0  0  0  0  0
    3.7332   53.7274   26.6827 C   0  0  0  0  0  0
    2.7675   53.7373   25.6692 C   0  0  0  0  0  0
    3.3704   53.2971   27.9771 N   0  0  0  0  0  0
    4.4181   52.7319   28.8277 C   0  0  0  0  0  0
    2.0293   54.0794   28.8657 S   0  0  0  0  0  0
    2.4710   54.2711   30.2456 O   0  0  0  0  0  0
    1.5038   55.1982   28.0817 O   0  0  0  0  0  0
    0.7291   52.8344   28.9189 C   0  0  0  0  0  0
    0.3050   52.0092   27.8875 C   0  0  0  0  0  0
   -0.7340   51.2969   28.4131 N   0  0  0  0  0  0
   -1.2517   50.5646   27.9387 H   0  0  0  0  0  0
   -0.9882   51.6162   29.6818 N   0  0  0  0  0  0
   -0.0953   52.5121   30.0093 C   0  0  0  0  0  0
   -0.0876   52.9916   31.2814 N   0  0  0  0  0  0
    6.8014   54.9098   24.7296 C   0  0  0  0  0  0
    1.8507   53.0905   22.9194 H   0  0  0  0  0  0
    2.3167   54.7366   22.4430 H   0  0  0  0  0  0
    1.0954   54.4971   23.6746 H   0  0  0  0  0  0
    4.6708   54.7486   23.0516 H   0  0  0  0  0  0
    5.8084   54.1350   27.1257 H   0  0  0  0  0  0
    1.7490   53.4625   25.8905 H   0  0  0  0  0  0
    5.0950   52.0968   28.2582 H   0  0  0  0  0  0
    5.0080   53.5284   29.2819 H   0  0  0  0  0  0
    3.9848   52.1293   29.6264 H   0  0  0  0  0  0
    0.6287   51.8547   26.8696 H   0  0  0  0  0  0
    0.6181   53.6386   31.5989 H   0  0  0  0  0  0
   -0.6775   52.5451   31.9933 H   0  0  0  0  0  0
    6.8945   55.9956   24.7153 H   0  0  0  0  0  0
    7.5043   54.4967   25.4510 H   0  0  0  0  0  0
    7.0961   54.5285   23.7510 H   0  0  0  0  0  0
  1  2  1  0  0  0
  1 21  1  0  0  0
  1 22  1  0  0  0
  1 23  1  0  0  0
  2  7  2  0  0  0
  2  3  1  0  0  0
  3  4  2  0  0  0
  3 24  1  0  0  0
  4  5  1  0  0  0
  4 20  1  0  0  0
  5  6  2  0  0  0
  5 25  1  0  0  0
  6  7  1  0  0  0
  6  8  1  0  0  0
  7 26  1  0  0  0
  8  9  1  0  0  0
  8 10  1  0  0  0
  9 27  1  0  0  0
  9 28  1  0  0  0
  9 29  1  0  0  0
 10 11  2  0  0  0
 10 12  2  0  0  0
 10 13  1  0  0  0
 13 18  1  0  0  0
 13 14  2  0  0  0
 14 15  1  0  0  0
 14 30  1  0  0  0
 15 16  1  0  0  0
 15 17  1  0  0  0
 17 18  2  0  0  0
 18 19  1  0  0  0
 19 31  1  0  0  0
 19 32  1  0  0  0
 20 33  1  0  0  0
 20 34  1  0  0  0
 20 35  1  0  0  0
M  END
> <i_i_glide_confnum>
5

> <i_i_glide_lignum>
1700

> <i_i_glide_posenum>
210

> <i_i_glide_rotatable_bonds>
3

> <i_m_Source_File_Index>
1425

> <b_m_subgroup_collapsed>
0

> <r_i_docking_score>
-6.1676

> <r_i_glide_ecoul>
-9.46387

> <r_i_glide_eff_state_penalty>
0

> <r_i_glide_einternal>
3.44156

> <r_i_glide_emodel>
-48.8097

> <r_i_glide_energy>
-37.6058

> <r_i_glide_erotb>
0.689305

> <r_i_glide_esite>
-0.22593

> <r_i_glide_evdw>
-28.1419

> <r_i_glide_gscore>
-6.1676

> <r_i_glide_hbond>
-0.205302

> <r_i_glide_ligand_efficiency>
-0.32461

> <r_i_glide_ligand_efficiency_ln>
-1.56362

> <r_i_glide_ligand_efficiency_sa>
-0.866191

> <r_i_glide_lipo>
-2.14401

> <r_i_glide_metal>
0

> <r_i_glide_rewards>
-1.45498

> <s_i_glide_gridfile>
wee1_glide-grid

> <s_m_Source_File>
wee1_decoys_glide_SP.sdf

> <s_m_Source_Path>
/Users/zhangxujun/Desktop

> <s_m_entry_id>
1700

> <s_m_entry_name>
wee1_decoys_glide_SP.1425

> <s_m_subgroup_title>
wee1_decoys_glide_SP

> <s_m_subgroupid>
wee1_decoys_glide_SP


$$$$
