ZINC13079358_2592
                    3D
 Schrodinger Suite 2024-2.
 40 42  0  0  1  0            999 V2000
    4.8154   54.0962   23.4422 C   0  0  0  0  0  0
    5.9743   54.5772   24.0475 C   0  0  0  0  0  0
    5.9854   54.8234   25.4164 C   0  0  0  0  0  0
    4.8528   54.5881   26.1863 C   0  0  0  0  0  0
    3.6967   54.0976   25.5856 C   0  0  0  0  0  0
    3.6660   53.8467   24.2072 C   0  0  0  0  0  0
    2.4151   53.2919   23.5933 C   0  0  0  0  0  0
    1.1191   53.2664   24.1071 C   0  0  0  0  0  0
    0.1915   52.6241   23.2832 C   0  0  0  0  0  0
    0.7617   52.1097   22.1250 C   0  0  0  0  0  0
    2.4591   52.4875   22.0422 S   0  0  0  0  0  0
    0.0804   51.4477   21.0473 C   0  0  0  0  0  0
   -1.0713   51.7660   20.7383 O   0  0  0  0  0  0
    0.7834   50.4477   20.4784 N   0  0  0  0  0  0
    0.3133   49.7315   19.3888 N   0  0  0  0  0  0
   -0.9030   48.4981   19.7608 S   0  0  0  0  0  0
   -2.1386   48.8837   19.0726 O   0  0  0  0  0  0
   -0.8966   48.2448   21.2076 O   0  0  0  0  0  0
   -0.3365   46.9942   18.9715 C   0  0  0  0  0  0
    0.2500   47.0368   17.7059 C   0  0  0  0  0  0
    0.6728   45.8556   17.1008 C   0  0  0  0  0  0
    0.5199   44.6292   17.7493 C   0  0  0  0  0  0
   -0.0580   44.5693   19.0330 C   0  0  0  0  0  0
   -0.4957   45.7693   19.6196 C   0  0  0  0  0  0
   -0.2228   43.2769   19.7825 C   0  0  0  0  0  0
   -0.8964   43.2965   20.8391 O   0  0  0  0  0  0
    0.9457   43.5190   17.1019 F   0  0  0  0  0  0
    7.1043   55.2976   26.0058 F   0  0  0  0  0  0
    4.8192   53.9183   22.3766 H   0  0  0  0  0  0
    6.8614   54.7656   23.4575 H   0  0  0  0  0  0
    4.8717   54.7804   27.2490 H   0  0  0  0  0  0
    2.8321   53.8983   26.2009 H   0  0  0  0  0  0
    0.8467   53.6970   25.0581 H   0  0  0  0  0  0
   -0.8566   52.5302   23.5290 H   0  0  0  0  0  0
    1.7532   50.2906   20.7070 H   0  0  0  0  0  0
    0.0038   50.3727   18.6528 H   0  0  0  0  0  0
    0.3791   47.9758   17.1892 H   0  0  0  0  0  0
    1.1260   45.8880   16.1199 H   0  0  0  0  0  0
   -0.9502   45.7588   20.6016 H   0  0  0  0  0  0
    0.3036   42.2251   19.3442 O   0  5  0  0  0  0
  1  6  2  0  0  0
  1  2  1  0  0  0
  1 29  1  0  0  0
  2  3  2  0  0  0
  2 30  1  0  0  0
  3  4  1  0  0  0
  3 28  1  0  0  0
  4  5  2  0  0  0
  4 31  1  0  0  0
  5  6  1  0  0  0
  5 32  1  0  0  0
  6  7  1  0  0  0
  7 11  1  0  0  0
  7  8  2  0  0  0
  8  9  1  0  0  0
  8 33  1  0  0  0
  9 10  2  0  0  0
  9 34  1  0  0  0
 10 11  1  0  0  0
 10 12  1  0  0  0
 12 13  2  0  0  0
 12 14  1  0  0  0
 14 15  1  0  0  0
 14 35  1  0  0  0
 15 16  1  0  0  0
 15 36  1  0  0  0
 16 17  2  0  0  0
 16 18  2  0  0  0
 16 19  1  0  0  0
 19 24  2  0  0  0
 19 20  1  0  0  0
 20 21  2  0  0  0
 20 37  1  0  0  0
 21 22  1  0  0  0
 21 38  1  0  0  0
 22 23  2  0  0  0
 22 27  1  0  0  0
 23 24  1  0  0  0
 23 25  1  0  0  0
 24 39  1  0  0  0
 25 26  2  0  0  0
 25 40  1  0  0  0
M  CHG  1  40  -1
M  END
> <i_i_glide_confnum>
142

> <i_i_glide_lignum>
2593

> <i_i_glide_posenum>
322

> <i_i_glide_rotatable_bonds>
7

> <i_m_Source_File_Index>
5639

> <b_m_subgroup_collapsed>
0

> <r_i_docking_score>
-5.09072

> <r_i_glide_ecoul>
-9.14429

> <r_i_glide_eff_state_penalty>
0

> <r_i_glide_einternal>
7.98289

> <r_i_glide_emodel>
-52.9088

> <r_i_glide_energy>
-38.8409

> <r_i_glide_erotb>
0.625326

> <r_i_glide_esite>
-0.116212

> <r_i_glide_evdw>
-29.6966

> <r_i_glide_gscore>
-5.09072

> <r_i_glide_hbond>
-0.411456

> <r_i_glide_ligand_efficiency>
-0.175542

> <r_i_glide_ligand_efficiency_ln>
-1.16565

> <r_i_glide_ligand_efficiency_sa>
-0.539321

> <r_i_glide_lipo>
-2.29878

> <r_i_glide_metal>
0

> <r_i_glide_rewards>
-0.0331219

> <s_i_glide_gridfile>
wee1_glide-grid

> <s_m_Source_File>
wee1_decoys_glide_SP.sdf

> <s_m_Source_Path>
/Users/zhangxujun/Desktop

> <s_m_entry_id>
5914

> <s_m_entry_name>
wee1_decoys_glide_SP.5639

> <s_m_subgroup_title>
wee1_decoys_glide_SP

> <s_m_subgroupid>
wee1_decoys_glide_SP


$$$$
