@<TRIPOS>MOLECULE
ZINC43528178_2164
61   64    1
SMALL
USER_CHARGES


@<TRIPOS>ATOM
      1 C1          0.7887   43.0451   15.0316 C.3       1 UNK         0.0000 
      2 O2          0.2629   43.5727   16.2452 O.3       1 UNK         0.0000 
      3 C3          0.7895   44.7441   16.7547 C.ar      1 UNK         0.0000 
      4 C4          0.2356   45.2065   17.9480 C.ar      1 UNK         0.0000 
      5 C5          0.7047   46.3727   18.5470 C.ar      1 UNK         0.0000 
      6 C6          1.7512   47.0912   17.9511 C.ar      1 UNK         0.0000 
      7 C7          2.3018   46.6360   16.7507 C.ar      1 UNK         0.0000 
      8 C8          1.8273   45.4717   16.1524 C.ar      1 UNK         0.0000 
      9 N9          2.3043   48.2786   18.4652 N.am      1 UNK         0.0000 
     10 C10         2.0234   48.9467   19.5960 C.2       1 UNK         0.0000 
     11 O11         1.2926   48.5522   20.5041 O.2       1 UNK         0.0000 
     12 N12         2.5781   50.1683   19.5836 N.am      1 UNK         0.0000 
     13 C13         2.0044   51.3138   20.2933 C.3       1 UNK         0.0000 
     14 C14         2.4898   51.4369   21.7591 C.3       1 UNK         0.0000 
     15 H15         2.5385   50.4441   22.2150 H         1 UNK         0.0000 
     16 C16         3.8421   52.1961   21.9297 C.3       1 UNK         0.0000 
     17 C17         3.7037   53.4005   22.9322 C.3       1 UNK         0.0000 
     18 H18         4.6671   53.8900   23.0879 H         1 UNK         0.0000 
     19 C19         2.7311   54.3196   22.1869 C.3       1 UNK         0.0000 
     20 C20         1.3109   53.6720   22.1782 C.3       1 UNK         0.0000 
     21 N21         1.3865   52.1747   22.5751 N.4       1 UNK         0.0000 
     22 C22         1.7521   52.1431   24.0775 C.3       1 UNK         0.0000 
     23 C23         2.9997   53.0556   24.3016 C.3       1 UNK         0.0000 
     24 H24         3.6496   52.4968   24.9179 H         1 UNK         0.0000 
     25 C25         2.6866   54.2714   25.2172 C.3       1 UNK         0.0000 
     26 N26         3.0202   53.9634   26.6145 N.3       1 UNK         0.0000 
     27 C27         2.0905   54.4972   27.6084 C.3       1 UNK         0.0000 
     28 C28         2.2623   53.8057   28.9687 C.3       1 UNK         0.0000 
     29 S29         3.9025   54.0869   29.6814 S.3       1 UNK         0.0000 
     30 C30         4.8647   53.5490   28.2408 C.3       1 UNK         0.0000 
     31 C31         4.4285   54.2290   26.9334 C.3       1 UNK         0.0000 
     32 H32         0.2764   42.1121   14.7902 H         1 UNK         0.0000 
     33 H33         1.8541   42.8213   15.1195 H         1 UNK         0.0000 
     34 H34         0.6342   43.7325   14.1964 H         1 UNK         0.0000 
     35 H35        -0.5689   44.6547   18.4114 H         1 UNK         0.0000 
     36 H36         0.2390   46.6956   19.4646 H         1 UNK         0.0000 
     37 H37         3.1013   47.1858   16.2739 H         1 UNK         0.0000 
     38 H38         2.2798   45.1496   15.2279 H         1 UNK         0.0000 
     39 H39         2.9923   48.7052   17.8485 H         1 UNK         0.0000 
     40 H40         3.3502   50.3476   18.9507 H         1 UNK         0.0000 
     41 H41         2.2332   52.2211   19.7316 H         1 UNK         0.0000 
     42 H42         0.9150   51.2334   20.2561 H         1 UNK         0.0000 
     43 H43         4.6636   51.5004   22.0818 H         1 UNK         0.0000 
     44 H44         4.1514   52.5921   20.9606 H         1 UNK         0.0000 
     45 H45         3.1036   54.5095   21.1797 H         1 UNK         0.0000 
     46 H46         2.7056   55.2955   22.6615 H         1 UNK         0.0000 
     47 H47         0.7847   53.6951   21.2360 H         1 UNK         0.0000 
     48 H48         0.7043   54.1479   22.9426 H         1 UNK         0.0000 
     49 H49         0.8669   52.4752   24.6238 H         1 UNK         0.0000 
     50 H50         1.9044   51.0967   24.3447 H         1 UNK         0.0000 
     51 H51         3.2153   55.1700   24.8958 H         1 UNK         0.0000 
     52 H52         1.6249   54.4964   25.1218 H         1 UNK         0.0000 
     53 H53         2.1061   55.5848   27.6820 H         1 UNK         0.0000 
     54 H54         1.0852   54.2451   27.2809 H         1 UNK         0.0000 
     55 H55         2.0411   52.7403   28.9082 H         1 UNK         0.0000 
     56 H56         1.5469   54.2177   29.6790 H         1 UNK         0.0000 
     57 H57         4.8447   52.4654   28.1453 H         1 UNK         0.0000 
     58 H58         5.9020   53.8048   28.4545 H         1 UNK         0.0000 
     59 H59         5.0441   53.7833   26.1502 H         1 UNK         0.0000 
     60 H60         4.6758   55.2915   26.9010 H         1 UNK         0.0000 
     61 H61         0.4946   51.7175   22.4340 H         1 UNK         0.0000 
@<TRIPOS>BOND
     1    1    2 1    
     2    1   32 1    
     3    1   33 1    
     4    1   34 1    
     5    2    3 1    
     6    3    8 ar   
     7    3    4 ar   
     8    4    5 ar   
     9    4   35 1    
    10    5    6 ar   
    11    5   36 1    
    12    6    7 ar   
    13    6    9 1    
    14    7    8 ar   
    15    7   37 1    
    16    8   38 1    
    17    9   10 am   BACKBONE|DICT|INTERRES
    18    9   39 1    
    19   10   11 2    
    20   10   12 am   BACKBONE|DICT|INTERRES
    21   12   13 1    
    22   12   40 1    
    23   13   14 1    
    24   13   41 1    
    25   13   42 1    
    26   14   15 1    
    27   14   21 1    
    28   14   16 1    
    29   16   17 1    
    30   16   43 1    
    31   16   44 1    
    32   17   18 1    
    33   17   23 1    
    34   17   19 1    
    35   19   20 1    
    36   19   45 1    
    37   19   46 1    
    38   20   21 1    
    39   20   47 1    
    40   20   48 1    
    41   21   22 1    
    42   21   61 1    
    43   22   23 1    
    44   22   49 1    
    45   22   50 1    
    46   23   24 1    
    47   23   25 1    
    48   25   26 1    
    49   25   51 1    
    50   25   52 1    
    51   26   31 1    
    52   26   27 1    
    53   27   28 1    
    54   27   53 1    
    55   27   54 1    
    56   28   29 1    
    57   28   55 1    
    58   28   56 1    
    59   29   30 1    
    60   30   31 1    
    61   30   57 1    
    62   30   58 1    
    63   31   59 1    
    64   31   60 1    
@<TRIPOS>SUBSTRUCTURE
     1 UNK         1 GROUP             0       ****    0 ROOT    
