ZINC41644352_2516
                    3D
 Schrodinger Suite 2024-2.
 49 52  0  0  1  0            999 V2000
    1.8182   53.1272   27.8241 C   0  0  0  0  0  0
    2.6708   53.8322   26.7531 C   0  0  1  0  0  0
    2.4817   54.8966   26.8814 H   0  0  0  0  0  0
    4.1693   53.5632   26.9653 C   0  0  0  0  0  0
    5.0466   54.3942   26.0108 C   0  0  0  0  0  0
    4.5425   54.2775   24.5592 C   0  0  0  0  0  0
    3.2406   53.8323   24.2861 C   0  0  0  0  0  0
    2.9394   53.6959   22.5843 S   0  0  0  0  0  0
    4.5482   54.2061   22.1997 C   0  0  0  0  0  0
    5.3021   54.4966   23.3677 C   0  0  0  0  0  0
    6.6998   54.8691   23.3554 C   0  0  0  0  0  0
    7.4688   54.4967   22.4817 O   0  0  0  0  0  0
    7.1044   55.6963   24.3164 N   0  0  0  0  0  0
    4.8514   54.2417   20.8316 N   0  0  0  0  0  0
    5.5045   55.2365   20.1692 C   0  0  0  0  0  0
    5.9044   56.2530   20.7480 O   0  0  0  0  0  0
    5.7246   55.1275   18.6156 C   0  0  1  0  0  0
    5.9887   53.6519   18.1766 C   0  0  0  0  0  0
    7.1044   53.1553   18.0817 O   0  0  0  0  0  0
    4.9022   52.8967   17.9323 N   0  0  0  0  0  0
    3.5710   53.2407   17.7320 C   0  0  0  0  0  0
    2.6546   52.1989   17.5671 C   0  0  0  0  0  0
    1.3201   52.4763   17.2729 C   0  0  0  0  0  0
    0.9018   53.7975   17.1223 C   0  0  0  0  0  0
    1.8166   54.8387   17.2817 C   0  0  0  0  0  0
    3.1454   54.5697   17.6192 C   0  0  0  0  0  0
    4.2964   55.9055   17.7520 S   0  0  0  0  0  0
    6.9717   55.9791   18.2223 C   0  0  0  0  0  0
    2.2159   53.3953   25.3326 C   0  0  0  0  0  0
    1.9482   52.0443   27.7915 H   0  0  0  0  0  0
    2.0863   53.4611   28.8271 H   0  0  0  0  0  0
    0.7566   53.3366   27.6862 H   0  0  0  0  0  0
    4.3856   52.4980   26.8817 H   0  0  0  0  0  0
    4.4416   53.8047   27.9940 H   0  0  0  0  0  0
    5.0426   55.4383   26.3223 H   0  0  0  0  0  0
    6.0754   54.0456   26.1074 H   0  0  0  0  0  0
    6.4633   56.0662   24.9987 H   0  0  0  0  0  0
    8.0740   55.9849   24.2708 H   0  0  0  0  0  0
    4.3766   53.5596   20.2582 H   0  0  0  0  0  0
    5.1340   51.9048   17.8195 H   0  0  0  0  0  0
    2.9800   51.1690   17.6458 H   0  0  0  0  0  0
    0.6188   51.6653   17.1415 H   0  0  0  0  0  0
   -0.1264   54.0160   16.8764 H   0  0  0  0  0  0
    1.4905   55.8611   17.1586 H   0  0  0  0  0  0
    7.8728   55.6645   18.7540 H   0  0  0  0  0  0
    7.1863   55.9081   17.1545 H   0  0  0  0  0  0
    6.8282   57.0397   18.4374 H   0  0  0  0  0  0
    2.1224   52.3097   25.2950 H   0  0  0  0  0  0
    1.2338   53.8127   25.1074 H   0  0  0  0  0  0
  1  2  1  0  0  0
  1 30  1  0  0  0
  1 31  1  0  0  0
  1 32  1  0  0  0
  2  3  1  0  0  0
  2 29  1  0  0  0
  2  4  1  0  0  0
  4  5  1  0  0  0
  4 33  1  0  0  0
  4 34  1  0  0  0
  5  6  1  0  0  0
  5 35  1  0  0  0
  5 36  1  0  0  0
  6 10  1  0  0  0
  6  7  2  0  0  0
  7  8  1  0  0  0
  7 29  1  0  0  0
  8  9  1  0  0  0
  9 10  2  0  0  0
  9 14  1  0  0  0
 10 11  1  0  0  0
 11 12  2  0  0  0
 11 13  1  0  0  0
 13 37  1  0  0  0
 13 38  1  0  0  0
 14 15  1  0  0  0
 14 39  1  0  0  0
 15 16  2  0  0  0
 15 17  1  0  0  0
 17 27  1  0  0  0
 17 18  1  0  0  0
 17 28  1  0  0  0
 18 19  2  0  0  0
 18 20  1  0  0  0
 20 21  1  0  0  0
 20 40  1  0  0  0
 21 26  2  0  0  0
 21 22  1  0  0  0
 22 23  2  0  0  0
 22 41  1  0  0  0
 23 24  1  0  0  0
 23 42  1  0  0  0
 24 25  2  0  0  0
 24 43  1  0  0  0
 25 26  1  0  0  0
 25 44  1  0  0  0
 26 27  1  0  0  0
 28 45  1  0  0  0
 28 46  1  0  0  0
 28 47  1  0  0  0
 29 48  1  0  0  0
 29 49  1  0  0  0
M  END
> <i_i_glide_confnum>
2

> <i_i_glide_lignum>
2517

> <i_i_glide_posenum>
181

> <i_i_glide_rotatable_bonds>
4

> <i_m_Source_File_Index>
246

> <b_m_subgroup_collapsed>
0

> <r_i_docking_score>
-5.6747

> <r_i_glide_ecoul>
-6.60136

> <r_i_glide_eff_state_penalty>
0

> <r_i_glide_einternal>
9.3457

> <r_i_glide_emodel>
-44.2951

> <r_i_glide_energy>
-34.6623

> <r_i_glide_erotb>
0.343107

> <r_i_glide_esite>
-0.151404

> <r_i_glide_evdw>
-28.0609

> <r_i_glide_gscore>
-5.6747

> <r_i_glide_hbond>
-0.371372

> <r_i_glide_ligand_efficiency>
-0.202668

> <r_i_glide_ligand_efficiency_ln>
-1.30989

> <r_i_glide_ligand_efficiency_sa>
-0.615419

> <r_i_glide_lipo>
-2.02109

> <r_i_glide_metal>
0

> <r_i_glide_rewards>
-1.08069

> <s_i_glide_gridfile>
wee1_glide-grid

> <s_m_Source_File>
wee1_decoys_glide_SP.sdf

> <s_m_Source_Path>
/Users/zhangxujun/Desktop

> <s_m_entry_id>
521

> <s_m_entry_name>
wee1_decoys_glide_SP.246

> <s_m_subgroup_title>
wee1_decoys_glide_SP

> <s_m_subgroupid>
wee1_decoys_glide_SP


$$$$
