@<TRIPOS>MOLECULE
ZINC09292103_2378
52   56    1
SMALL
USER_CHARGES


@<TRIPOS>ATOM
      1 C1         -0.5840   52.2160   24.4397 C.3       1 UNK         0.0000 
      2 C2          0.6200   52.7666   23.7177 C.2       1 UNK         0.0000 
      3 C3          1.1195   54.0602   23.6821 C.2       1 UNK         0.0000 
      4 C4          2.2410   54.2172   22.8816 C.2       1 UNK         0.0000 
      5 C5          2.7459   53.0380   22.3641 C.2       1 UNK         0.0000 
      6 S6          1.6570   51.7385   22.7739 S.3       1 UNK         0.0000 
      7 C7          4.0551   52.8077   21.6376 C.3       1 UNK         0.0000 
      8 H8          4.4710   51.8615   21.9856 H         1 UNK         0.0000 
      9 C9          5.1468   53.8815   21.8613 C.ar      1 UNK         0.0000 
     10 C10         5.8515   54.4967   22.9553 C.ar      1 UNK         0.0000 
     11 N11         6.8008   55.3028   22.4977 N.2       1 UNK         0.0000 
     12 N12         6.7023   55.3098   21.1731 N.pl3     1 UNK         0.0000 
     13 H13         7.3198   55.8350   20.5697 H         1 UNK         0.0000 
     14 C14         5.7094   54.4963   20.7562 C.ar      1 UNK         0.0000 
     15 O15         5.4363   54.3133   19.4291 O.3       1 UNK         0.0000 
     16 C16         4.4814   53.3766   19.1922 C.2       1 UNK         0.0000 
     17 C17         3.8191   52.6425   20.1197 C.2       1 UNK         0.0000 
     18 C18         2.8582   51.6766   19.6856 C.1       1 UNK         0.0000 
     19 N19         2.0489   50.9181   19.3505 N.1       1 UNK         0.0000 
     20 N20         4.3400   53.2940   17.8346 N.pl3     1 UNK         0.0000 
     21 C21         5.6914   54.3956   24.4624 C.ar      1 UNK         0.0000 
     22 C22         6.6351   54.9399   25.3486 C.ar      1 UNK         0.0000 
     23 C23         6.4847   54.8124   26.7353 C.ar      1 UNK         0.0000 
     24 C24         5.3760   54.1529   27.2673 C.ar      1 UNK         0.0000 
     25 C25         4.3916   53.6967   26.3924 C.ar      1 UNK         0.0000 
     26 C26         4.5763   53.7844   25.0263 C.ar      1 UNK         0.0000 
     27 O27         5.3156   53.9545   28.6322 O.3       1 UNK         0.0000 
     28 C28         4.3455   53.0306   29.1575 C.3       1 UNK         0.0000 
     29 C29         3.0263   53.6929   29.5222 C.ar      1 UNK         0.0000 
     30 C30         2.7930   55.0566   29.3041 C.ar      1 UNK         0.0000 
     31 C31         1.6282   55.6437   29.7877 C.ar      1 UNK         0.0000 
     32 C32         0.7037   54.8580   30.4701 C.ar      1 UNK         0.0000 
     33 C33         0.8883   53.4889   30.6257 C.ar      1 UNK         0.0000 
     34 C34         2.0543   52.9067   30.1461 C.ar      1 UNK         0.0000 
     35 H35        -1.1390   52.9924   24.9629 H         1 UNK         0.0000 
     36 H36        -0.2970   51.4720   25.1822 H         1 UNK         0.0000 
     37 H37        -1.2787   51.7335   23.7548 H         1 UNK         0.0000 
     38 H38         0.7011   54.8899   24.2262 H         1 UNK         0.0000 
     39 H39         2.7540   55.1561   22.7477 H         1 UNK         0.0000 
     40 H40         3.7950   52.5331   17.4545 H         1 UNK         0.0000 
     41 H41         5.0905   53.6257   17.2476 H         1 UNK         0.0000 
     42 H42         7.5049   55.4458   24.9563 H         1 UNK         0.0000 
     43 H43         7.2373   55.1983   27.4059 H         1 UNK         0.0000 
     44 H44         3.5010   53.1984   26.7430 H         1 UNK         0.0000 
     45 H45         3.8469   53.2857   24.4394 H         1 UNK         0.0000 
     46 H46         4.1901   52.1636   28.5118 H         1 UNK         0.0000 
     47 H47         4.7303   52.6073   30.0812 H         1 UNK         0.0000 
     48 H48         3.5238   55.6871   28.8198 H         1 UNK         0.0000 
     49 H49         1.4584   56.7034   29.6633 H         1 UNK         0.0000 
     50 H50        -0.1839   55.3129   30.8805 H         1 UNK         0.0000 
     51 H51         0.1475   52.8905   31.1383 H         1 UNK         0.0000 
     52 H52         2.2133   51.8480   30.2977 H         1 UNK         0.0000 
@<TRIPOS>BOND
     1    1    2 1    
     2    1   35 1    
     3    1   36 1    
     4    1   37 1    
     5    2    6 1    
     6    2    3 2    
     7    3    4 1    
     8    3   38 1    
     9    4    5 2    
    10    4   39 1    
    11    5    6 1    
    12    5    7 1    
    13    7    8 1    
    14    7   17 1    
    15    7    9 1    
    16    9   14 ar   
    17    9   10 ar   
    18   10   11 ar   
    19   10   21 1    
    20   11   12 ar   
    21   12   13 1    
    22   12   14 ar   
    23   14   15 1    
    24   15   16 1    
    25   16   17 2    
    26   16   20 1    
    27   17   18 1    
    28   18   19 3    
    29   20   40 1    
    30   20   41 1    
    31   21   26 ar   
    32   21   22 ar   
    33   22   23 ar   
    34   22   42 1    
    35   23   24 ar   
    36   23   43 1    
    37   24   25 ar   
    38   24   27 1    
    39   25   26 ar   
    40   25   44 1    
    41   26   45 1    
    42   27   28 1    
    43   28   29 1    
    44   28   46 1    
    45   28   47 1    
    46   29   34 ar   
    47   29   30 ar   
    48   30   31 ar   
    49   30   48 1    
    50   31   32 ar   
    51   31   49 1    
    52   32   33 ar   
    53   32   50 1    
    54   33   34 ar   
    55   33   51 1    
    56   34   52 1    
@<TRIPOS>SUBSTRUCTURE
     1 UNK         1 GROUP             0       ****    0 ROOT    
