ZINC01165495_5911
                    3D
 Schrodinger Suite 2024-2.
 47 49  0  0  1  0            999 V2000
    3.1078   53.7072   21.7402 C   0  0  0  0  0  0
    4.1240   54.3760   22.4812 O   0  0  0  0  0  0
    4.1525   54.2441   23.8580 C   0  0  0  0  0  0
    3.0517   53.8022   24.5986 C   0  0  0  0  0  0
    3.1027   53.6717   25.9945 C   0  0  0  0  0  0
    4.2999   53.9982   26.6417 C   0  0  0  0  0  0
    5.4246   54.4398   25.9234 C   0  0  0  0  0  0
    5.3352   54.5830   24.5344 C   0  0  0  0  0  0
    6.4229   55.0833   23.8523 O   0  0  0  0  0  0
    7.1039   54.1367   23.0423 C   0  0  0  0  0  0
    6.6447   54.7272   26.5065 O   0  0  0  0  0  0
    6.8653   54.3125   27.8458 C   0  0  0  0  0  0
    1.9081   53.1709   26.7889 C   0  0  0  0  0  0
    1.9084   53.2240   28.0206 O   0  0  0  0  0  0
    0.8961   52.6905   26.0356 N   0  0  0  0  0  0
   -0.3508   52.2022   26.3997 C   0  0  0  0  0  0
   -1.4428   52.0720   25.5107 C   0  0  0  0  0  0
   -2.5896   51.5309   26.1696 C   0  0  0  0  0  0
   -2.3292   51.2966   27.5208 C   0  0  0  0  0  0
   -0.7263   51.6969   28.0188 S   0  0  0  0  0  0
   -3.9340   51.2159   25.5792 C   0  0  0  0  0  0
   -5.0937   51.5810   26.2711 C   0  0  0  0  0  0
   -6.3492   51.3307   25.7219 C   0  0  0  0  0  0
   -6.4472   50.7002   24.4853 C   0  0  0  0  0  0
   -5.3014   50.3051   23.7999 C   0  0  0  0  0  0
   -4.0489   50.5587   24.3497 C   0  0  0  0  0  0
   -8.1595   50.3772   23.7223 Br  0  0  0  0  0  0
   -1.3831   52.5126   24.0895 C   0  0  0  0  0  0
   -2.4399   52.9104   23.5495 O   0  0  0  0  0  0
   -0.2587   52.5172   23.5324 O   0  5  0  0  0  0
    3.2839   53.8461   20.6738 H   0  0  0  0  0  0
    3.1163   52.6348   21.9398 H   0  0  0  0  0  0
    2.1161   54.0965   21.9710 H   0  0  0  0  0  0
    2.1419   53.5654   24.0701 H   0  0  0  0  0  0
    4.3528   53.8907   27.7148 H   0  0  0  0  0  0
    7.9043   54.6236   22.4822 H   0  0  0  0  0  0
    7.5455   53.3404   23.6425 H   0  0  0  0  0  0
    6.4316   53.6956   22.3120 H   0  0  0  0  0  0
    7.9043   54.4967   28.1003 H   0  0  0  0  0  0
    6.2422   54.8718   28.5434 H   0  0  0  0  0  0
    6.6858   53.2439   27.9760 H   0  0  0  0  0  0
    0.9781   52.7987   25.0314 H   0  0  0  0  0  0
   -2.9979   50.8612   28.2485 H   0  0  0  0  0  0
   -5.0258   52.0796   27.2262 H   0  0  0  0  0  0
   -7.2424   51.6299   26.2504 H   0  0  0  0  0  0
   -5.3817   49.8120   22.8420 H   0  0  0  0  0  0
   -3.1648   50.2570   23.8089 H   0  0  0  0  0  0
  1  2  1  0  0  0
  1 31  1  0  0  0
  1 32  1  0  0  0
  1 33  1  0  0  0
  2  3  1  0  0  0
  3  8  2  0  0  0
  3  4  1  0  0  0
  4  5  2  0  0  0
  4 34  1  0  0  0
  5  6  1  0  0  0
  5 13  1  0  0  0
  6  7  2  0  0  0
  6 35  1  0  0  0
  7  8  1  0  0  0
  7 11  1  0  0  0
  8  9  1  0  0  0
  9 10  1  0  0  0
 10 36  1  0  0  0
 10 37  1  0  0  0
 10 38  1  0  0  0
 11 12  1  0  0  0
 12 39  1  0  0  0
 12 40  1  0  0  0
 12 41  1  0  0  0
 13 14  2  0  0  0
 13 15  1  0  0  0
 15 16  1  0  0  0
 15 42  1  0  0  0
 16 20  1  0  0  0
 16 17  2  0  0  0
 17 18  1  0  0  0
 17 28  1  0  0  0
 18 19  2  0  0  0
 18 21  1  0  0  0
 19 20  1  0  0  0
 19 43  1  0  0  0
 21 26  2  0  0  0
 21 22  1  0  0  0
 22 23  2  0  0  0
 22 44  1  0  0  0
 23 24  1  0  0  0
 23 45  1  0  0  0
 24 25  2  0  0  0
 24 27  1  0  0  0
 25 26  1  0  0  0
 25 46  1  0  0  0
 26 47  1  0  0  0
 28 29  2  0  0  0
 28 30  1  0  0  0
M  CHG  1  30  -1
M  END
> <i_i_glide_confnum>
4

> <i_i_glide_lignum>
5912

> <i_i_glide_posenum>
153

> <i_i_glide_rotatable_bonds>
8

> <i_m_Source_File_Index>
5661

> <b_m_subgroup_collapsed>
0

> <r_i_docking_score>
-4.30448

> <r_i_glide_ecoul>
-4.2724

> <r_i_glide_eff_state_penalty>
0

> <r_i_glide_einternal>
2.51842

> <r_i_glide_emodel>
-52.3633

> <r_i_glide_energy>
-41.0749

> <r_i_glide_erotb>
0.337302

> <r_i_glide_esite>
0

> <r_i_glide_evdw>
-36.8025

> <r_i_glide_gscore>
-4.30448

> <r_i_glide_hbond>
-0.13401

> <r_i_glide_ligand_efficiency>
-0.143483

> <r_i_glide_ligand_efficiency_ln>
-0.978024

> <r_i_glide_ligand_efficiency_sa>
-0.445834

> <r_i_glide_lipo>
-1.60946

> <r_i_glide_metal>
0

> <r_i_glide_rewards>
-0.417328

> <s_i_glide_gridfile>
wee1_glide-grid

> <s_m_Source_File>
wee1_decoys_glide_SP.sdf

> <s_m_Source_Path>
/Users/zhangxujun/Desktop

> <s_m_entry_id>
5936

> <s_m_entry_name>
wee1_decoys_glide_SP.5661

> <s_m_subgroup_title>
wee1_decoys_glide_SP

> <s_m_subgroupid>
wee1_decoys_glide_SP


$$$$
