ZINC38537107_6152
                    3D
 Schrodinger Suite 2024-2.
 25 26  0  0  1  0            999 V2000
    3.1106   54.0970   24.0735 C   0  0  0  0  0  0
    3.5480   54.0782   25.5223 C   0  0  0  0  0  0
    4.7590   54.5029   26.0888 C   0  0  0  0  0  0
    4.6392   54.2571   27.4477 C   0  0  0  0  0  0
    3.3767   53.7178   27.6112 N   0  0  0  0  0  0
    2.7308   53.6116   26.4375 N   0  0  0  0  0  0
    2.7280   53.3065   28.8019 C   0  0  0  0  0  0
    1.4146   53.7276   29.0792 C   0  0  0  0  0  0
    0.7754   53.3093   30.2473 C   0  0  0  0  0  0
    1.4488   52.4972   31.1598 C   0  0  0  0  0  0
    2.7601   52.0976   30.9032 C   0  0  0  0  0  0
    3.3903   52.4743   29.7186 C   0  0  0  0  0  0
    4.6352   52.0046   29.4692 F   0  0  0  0  0  0
    3.4205   51.3242   31.7971 F   0  0  0  0  0  0
    0.8396   52.1080   32.3016 F   0  0  0  0  0  0
   -0.4953   53.7040   30.4977 F   0  0  0  0  0  0
    0.7540   54.5533   28.2327 F   0  0  0  0  0  0
    5.5039   54.4969   28.4868 N   0  0  0  0  0  0
    5.8955   55.0976   25.4109 C   0  0  0  0  0  0
    6.7983   55.5773   24.8779 N   0  0  0  0  0  0
    3.0463   55.1155   23.6919 H   0  0  0  0  0  0
    3.8187   53.5631   23.4404 H   0  0  0  0  0  0
    2.1351   53.6346   23.9156 H   0  0  0  0  0  0
    6.3764   54.9981   28.3685 H   0  0  0  0  0  0
    5.3061   54.1783   29.4242 H   0  0  0  0  0  0
  1  2  1  0  0  0
  1 21  1  0  0  0
  1 22  1  0  0  0
  1 23  1  0  0  0
  2  6  2  0  0  0
  2  3  1  0  0  0
  3  4  2  0  0  0
  3 19  1  0  0  0
  4  5  1  0  0  0
  4 18  1  0  0  0
  5  6  1  0  0  0
  5  7  1  0  0  0
  7 12  2  0  0  0
  7  8  1  0  0  0
  8  9  2  0  0  0
  8 17  1  0  0  0
  9 10  1  0  0  0
  9 16  1  0  0  0
 10 11  2  0  0  0
 10 15  1  0  0  0
 11 12  1  0  0  0
 11 14  1  0  0  0
 12 13  1  0  0  0
 18 24  1  0  0  0
 18 25  1  0  0  0
 19 20  3  0  0  0
M  END
> <i_i_glide_confnum>
3

> <i_i_glide_lignum>
6153

> <i_i_glide_posenum>
380

> <i_i_glide_rotatable_bonds>
2

> <i_m_Source_File_Index>
3327

> <b_m_subgroup_collapsed>
0

> <r_i_docking_score>
-6.30875

> <r_i_glide_ecoul>
-1.07004

> <r_i_glide_eff_state_penalty>
0

> <r_i_glide_einternal>
0.554955

> <r_i_glide_emodel>
-45.5885

> <r_i_glide_energy>
-33.2932

> <r_i_glide_erotb>
0.219018

> <r_i_glide_esite>
-0.137532

> <r_i_glide_evdw>
-32.2231

> <r_i_glide_gscore>
-6.30875

> <r_i_glide_hbond>
-0.287113

> <r_i_glide_ligand_efficiency>
-0.315438

> <r_i_glide_ligand_efficiency_ln>
-1.57887

> <r_i_glide_ligand_efficiency_sa>
-0.856229

> <r_i_glide_lipo>
-1.71396

> <r_i_glide_metal>
0

> <r_i_glide_rewards>
-2.6175

> <s_i_glide_gridfile>
wee1_glide-grid

> <s_m_Source_File>
wee1_decoys_glide_SP.sdf

> <s_m_Source_Path>
/Users/zhangxujun/Desktop

> <s_m_entry_id>
3602

> <s_m_entry_name>
wee1_decoys_glide_SP.3327

> <s_m_subgroup_title>
wee1_decoys_glide_SP

> <s_m_subgroupid>
wee1_decoys_glide_SP


$$$$
