@<TRIPOS>MOLECULE
ZINC30839898_2560
47   48    1
SMALL
USER_CHARGES


@<TRIPOS>ATOM
      1 C1          6.3161   54.3428   27.8500 C.3       1 UNK         0.0000 
      2 C2          5.1619   53.7745   26.9847 C.3       1 UNK         0.0000 
      3 H3          5.3244   52.6955   27.0235 H         1 UNK         0.0000 
      4 C4          3.7644   53.9751   27.6017 C.ar      1 UNK         0.0000 
      5 C5          3.5361   54.8018   28.7155 C.ar      1 UNK         0.0000 
      6 C6          2.2646   54.9092   29.2806 C.ar      1 UNK         0.0000 
      7 C7          1.2096   54.1558   28.7688 C.ar      1 UNK         0.0000 
      8 C8          1.4232   53.3157   27.6784 C.ar      1 UNK         0.0000 
      9 C9          2.6813   53.2555   27.0821 C.ar      1 UNK         0.0000 
     10 Br10        0.0115   52.2147   27.0304 Br        1 UNK         0.0000 
     11 N11         5.1942   54.0969   25.5398 N.am      1 UNK         0.0000 
     12 C12         6.1561   54.6905   24.8002 C.2       1 UNK         0.0000 
     13 O13         7.1041   55.2966   25.2987 O.2       1 UNK         0.0000 
     14 C14         6.0310   54.5974   23.2894 C.ar      1 UNK         0.0000 
     15 C15         6.8267   55.4218   22.4811 C.ar      1 UNK         0.0000 
     16 C16         6.7257   55.3968   21.0922 C.ar      1 UNK         0.0000 
     17 C17         5.8637   54.4968   20.4753 C.ar      1 UNK         0.0000 
     18 C18         5.1042   53.6150   21.2458 C.ar      1 UNK         0.0000 
     19 C19         5.1661   53.6925   22.6505 C.ar      1 UNK         0.0000 
     20 N20         4.4001   52.6242   20.5408 N.am      1 UNK         0.0000 
     21 C21         3.3676   51.8741   20.9621 C.2       1 UNK         0.0000 
     22 O22         2.7389   52.0563   22.0065 O.2       1 UNK         0.0000 
     23 N23         3.1049   50.8947   20.0822 N.am      1 UNK         0.0000 
     24 C24         1.9297   50.0230   20.0902 C.3       1 UNK         0.0000 
     25 C25         1.8872   49.1915   18.7964 C.3       1 UNK         0.0000 
     26 C26         1.8508   49.1114   21.3327 C.3       1 UNK         0.0000 
     27 H27         6.2515   53.9968   28.8809 H         1 UNK         0.0000 
     28 H28         7.2900   54.0145   27.4882 H         1 UNK         0.0000 
     29 H29         6.3043   55.4316   27.8578 H         1 UNK         0.0000 
     30 H30         4.3399   55.3613   29.1647 H         1 UNK         0.0000 
     31 H31         2.1027   55.5592   30.1277 H         1 UNK         0.0000 
     32 H32         0.2330   54.2085   29.2250 H         1 UNK         0.0000 
     33 H33         2.8245   52.5948   26.2395 H         1 UNK         0.0000 
     34 H34         4.4122   53.7291   25.0211 H         1 UNK         0.0000 
     35 H35         7.5393   56.0965   22.9320 H         1 UNK         0.0000 
     36 H36         7.3428   56.0489   20.4923 H         1 UNK         0.0000 
     37 H37         5.8276   54.4569   19.3961 H         1 UNK         0.0000 
     38 H38         4.5864   53.0071   23.2444 H         1 UNK         0.0000 
     39 H39         4.7051   52.4617   19.5923 H         1 UNK         0.0000 
     40 H40         3.7443   50.7606   19.3064 H         1 UNK         0.0000 
     41 H41         1.0449   50.6671   20.0872 H         1 UNK         0.0000 
     42 H42         1.0247   48.5253   18.7858 H         1 UNK         0.0000 
     43 H43         2.7684   48.5566   18.6986 H         1 UNK         0.0000 
     44 H44         1.8144   49.8217   17.9089 H         1 UNK         0.0000 
     45 H45         0.9538   48.4966   21.2824 H         1 UNK         0.0000 
     46 H46         2.7041   48.4329   21.3897 H         1 UNK         0.0000 
     47 H47         1.7888   49.6776   22.2634 H         1 UNK         0.0000 
@<TRIPOS>BOND
     1    1    2 1    
     2    1   27 1    
     3    1   28 1    
     4    1   29 1    
     5    2    3 1    
     6    2    4 1    
     7    2   11 1    
     8    4    9 ar   
     9    4    5 ar   
    10    5    6 ar   
    11    5   30 1    
    12    6    7 ar   
    13    6   31 1    
    14    7    8 ar   
    15    7   32 1    
    16    8    9 ar   
    17    8   10 1    
    18    9   33 1    
    19   11   12 am   BACKBONE|DICT|INTERRES
    20   11   34 1    
    21   12   13 2    
    22   12   14 1    
    23   14   19 ar   
    24   14   15 ar   
    25   15   16 ar   
    26   15   35 1    
    27   16   17 ar   
    28   16   36 1    
    29   17   18 ar   
    30   17   37 1    
    31   18   19 ar   
    32   18   20 1    
    33   19   38 1    
    34   20   21 am   BACKBONE|DICT|INTERRES
    35   20   39 1    
    36   21   22 2    
    37   21   23 am   BACKBONE|DICT|INTERRES
    38   23   24 1    
    39   23   40 1    
    40   24   25 1    
    41   24   26 1    
    42   24   41 1    
    43   25   42 1    
    44   25   43 1    
    45   25   44 1    
    46   26   45 1    
    47   26   46 1    
    48   26   47 1    
@<TRIPOS>SUBSTRUCTURE
     1 UNK         1 GROUP             0       ****    0 ROOT    
