@<TRIPOS>MOLECULE
ZINC13274921_3305
51   53    1
SMALL
USER_CHARGES


@<TRIPOS>ATOM
      1 C1         -2.1454   46.0348   21.7656 C.3       1 UNK         0.0000 
      2 S2         -2.6240   46.6873   23.4638 S.o2      1 UNK         0.0000 
      3 O3         -1.7141   46.0964   24.4482 O.2       1 UNK         0.0000 
      4 O4         -4.0711   46.5118   23.6182 O.2       1 UNK         0.0000 
      5 N5         -2.2711   48.4169   23.3551 N.pl3     1 UNK         0.0000 
      6 C6         -3.0911   49.3578   24.1359 C.3       1 UNK         0.0000 
      7 C7         -2.4958   49.5394   25.5514 C.3       1 UNK         0.0000 
      8 N8         -1.0572   49.8983   25.5297 N.pl3     1 UNK         0.0000 
      9 C9         -0.2478   49.0021   24.6750 C.3       1 UNK         0.0000 
     10 C10        -0.8697   48.8679   23.2678 C.3       1 UNK         0.0000 
     11 C11        -0.4995   50.8164   26.4178 C.ar      1 UNK         0.0000 
     12 C12         0.7027   50.4971   27.0539 C.ar      1 UNK         0.0000 
     13 C13         1.3263   51.3543   27.9480 C.ar      1 UNK         0.0000 
     14 C14         0.7506   52.5852   28.2116 C.ar      1 UNK         0.0000 
     15 C15        -0.4962   52.8948   27.6730 C.ar      1 UNK         0.0000 
     16 C16        -1.1034   52.0542   26.7222 C.ar      1 UNK         0.0000 
     17 N17        -2.2338   52.5717   25.9169 N.pl3     1 UNK         0.0000 
     18 O18        -2.1941   52.4398   24.6973 O.co2     1 UNK         0.0000 
     19 O19        -3.1313   53.1829   26.4810 O.co2     1 UNK         0.0000 
     20 S20         1.7489   53.8597   28.9628 S.o2      1 UNK         0.0000 
     21 O21         1.9695   53.4779   30.3611 O.2       1 UNK         0.0000 
     22 O22         1.1678   55.1579   28.6050 O.2       1 UNK         0.0000 
     23 N23         3.3267   53.7392   28.1550 N.pl3     1 UNK         0.0000 
     24 C24         3.5906   53.9699   26.7887 C.ar      1 UNK         0.0000 
     25 C25         2.5569   53.9188   25.8415 C.ar      1 UNK         0.0000 
     26 C26         2.8033   54.0909   24.4835 C.ar      1 UNK         0.0000 
     27 C27         4.0972   54.3262   24.0425 C.ar      1 UNK         0.0000 
     28 C28         5.1384   54.3947   24.9617 C.ar      1 UNK         0.0000 
     29 C29         4.9156   54.2055   26.3393 C.ar      1 UNK         0.0000 
     30 C30         6.0975   54.2658   27.2691 C.2       1 UNK         0.0000 
     31 O31         7.1037   54.8893   26.8651 O.co2     1 UNK         0.0000 
     32 H32        -2.3551   44.9713   21.7282 H         1 UNK         0.0000 
     33 H33        -2.7344   46.5550   21.0158 H         1 UNK         0.0000 
     34 H34        -1.0852   46.2094   21.6038 H         1 UNK         0.0000 
     35 H35        -3.1389   50.3120   23.6103 H         1 UNK         0.0000 
     36 H36        -4.1116   48.9753   24.1745 H         1 UNK         0.0000 
     37 H37        -2.4818   48.5709   26.0581 H         1 UNK         0.0000 
     38 H38        -3.1026   50.1944   26.1757 H         1 UNK         0.0000 
     39 H39         0.7918   49.3279   24.6094 H         1 UNK         0.0000 
     40 H40        -0.2660   48.0447   25.2001 H         1 UNK         0.0000 
     41 H41        -0.8452   49.8347   22.7643 H         1 UNK         0.0000 
     42 H42        -0.3165   48.1864   22.6247 H         1 UNK         0.0000 
     43 H43         1.1660   49.5399   26.8701 H         1 UNK         0.0000 
     44 H44         2.2892   51.0923   28.3631 H         1 UNK         0.0000 
     45 H45        -0.8935   53.8763   27.8782 H         1 UNK         0.0000 
     46 H46         4.1412   53.5104   28.7172 H         1 UNK         0.0000 
     47 H47         1.5346   53.7558   26.1289 H         1 UNK         0.0000 
     48 H48         1.9893   54.0476   23.7747 H         1 UNK         0.0000 
     49 H49         4.2945   54.4650   22.9890 H         1 UNK         0.0000 
     50 H50         6.1362   54.5789   24.5862 H         1 UNK         0.0000 
     51 O51         6.0177   53.6985   28.3842 O.co2     1 UNK         0.0000 
@<TRIPOS>BOND
     1    1    2 1    
     2    1   32 1    
     3    1   33 1    
     4    1   34 1    
     5    2    3 2    
     6    2    4 2    
     7    2    5 1    
     8    5   10 1    
     9    5    6 1    
    10    6    7 1    
    11    6   35 1    
    12    6   36 1    
    13    7    8 1    
    14    7   37 1    
    15    7   38 1    
    16    8    9 1    
    17    8   11 1    
    18    9   10 1    
    19    9   39 1    
    20    9   40 1    
    21   10   41 1    
    22   10   42 1    
    23   11   16 ar   
    24   11   12 ar   
    25   12   13 ar   
    26   12   43 1    
    27   13   14 ar   
    28   13   44 1    
    29   14   15 ar   
    30   14   20 1    
    31   15   16 ar   
    32   15   45 1    
    33   16   17 1    
    34   17   18 2    
    35   17   19 1    
    36   20   21 2    
    37   20   22 2    
    38   20   23 1    
    39   23   24 1    
    40   23   46 1    
    41   24   29 ar   
    42   24   25 ar   
    43   25   26 ar   
    44   25   47 1    
    45   26   27 ar   
    46   26   48 1    
    47   27   28 ar   
    48   27   49 1    
    49   28   29 ar   
    50   28   50 1    
    51   29   30 1    
    52   30   31 2    
    53   30   51 1    
@<TRIPOS>SUBSTRUCTURE
     1 UNK         1 GROUP             0       ****    0 ROOT    
