@<TRIPOS>MOLECULE
ZINC14273325_3411
53   55    1
SMALL
USER_CHARGES


@<TRIPOS>ATOM
      1 C1          0.2969   54.3238   30.8725 C.3       1 UNK         0.0000 
      2 C2          0.8244   52.9179   30.4934 C.3       1 UNK         0.0000 
      3 C3          1.3043   52.2329   31.7950 C.3       1 UNK         0.0000 
      4 C4         -0.3599   52.0841   29.9404 C.3       1 UNK         0.0000 
      5 C5          1.9928   52.9897   29.4366 C.3       1 UNK         0.0000 
      6 H6          2.3704   51.9701   29.3365 H         1 UNK         0.0000 
      7 C7          3.1709   53.8971   29.8774 C.3       1 UNK         0.0000 
      8 C8          4.4153   53.7561   28.9863 C.3       1 UNK         0.0000 
      9 C9          4.0281   53.8123   27.5024 C.2       1 UNK         0.0000 
     10 C10         2.6961   53.6288   27.1048 C.2       1 UNK         0.0000 
     11 S11         2.5004   53.6967   25.3966 S.3       1 UNK         0.0000 
     12 C12         4.1855   54.0810   25.1756 C.2       1 UNK         0.0000 
     13 C13         4.8875   54.0989   26.3988 C.2       1 UNK         0.0000 
     14 C14         6.3030   54.4248   26.4957 C.2       1 UNK         0.0000 
     15 O15         6.8744   55.1469   25.6809 O.2       1 UNK         0.0000 
     16 N16         6.9701   53.8492   27.4930 N.am      1 UNK         0.0000 
     17 N17         4.7491   54.2747   23.9129 N.am      1 UNK         0.0000 
     18 C18         4.1937   54.0965   22.6904 C.2       1 UNK         0.0000 
     19 O19         3.0488   53.6855   22.4982 O.2       1 UNK         0.0000 
     20 C20         5.0850   54.4154   21.5070 C.ar      1 UNK         0.0000 
     21 C21         4.6550   54.0995   20.2086 C.ar      1 UNK         0.0000 
     22 C22         5.4494   54.3749   19.0960 C.ar      1 UNK         0.0000 
     23 C23         6.7069   54.9631   19.2631 C.ar      1 UNK         0.0000 
     24 C24         7.1436   55.2969   20.5499 C.ar      1 UNK         0.0000 
     25 C25         6.3392   55.0313   21.6585 C.ar      1 UNK         0.0000 
     26 Cl26        8.7040   55.9838   20.7994 Cl        1 UNK         0.0000 
     27 O27         7.5039   55.2179   18.1731 O.3       1 UNK         0.0000 
     28 C28         8.3957   54.1592   17.8436 C.3       1 UNK         0.0000 
     29 Cl29        4.8604   53.9758   17.5203 Cl        1 UNK         0.0000 
     30 C30         1.5062   53.4473   28.0331 C.3       1 UNK         0.0000 
     31 H31        -0.4954   54.2619   31.6191 H         1 UNK         0.0000 
     32 H32        -0.0967   54.8507   30.0096 H         1 UNK         0.0000 
     33 H33         1.0726   54.9627   31.2880 H         1 UNK         0.0000 
     34 H34         1.9127   51.3585   31.5957 H         1 UNK         0.0000 
     35 H35         1.9050   52.8908   32.4108 H         1 UNK         0.0000 
     36 H36         0.4710   51.9159   32.4220 H         1 UNK         0.0000 
     37 H37        -0.0268   51.1316   29.5283 H         1 UNK         0.0000 
     38 H38        -1.0954   51.8533   30.7121 H         1 UNK         0.0000 
     39 H39        -0.8954   52.6057   29.1481 H         1 UNK         0.0000 
     40 H40         2.8572   54.9399   29.9507 H         1 UNK         0.0000 
     41 H41         3.4825   53.6161   30.8813 H         1 UNK         0.0000 
     42 H42         5.1213   54.5437   29.2525 H         1 UNK         0.0000 
     43 H43         4.9101   52.8066   29.1975 H         1 UNK         0.0000 
     44 H44         6.4955   53.2345   28.1357 H         1 UNK         0.0000 
     45 H45         7.9561   54.0164   27.5961 H         1 UNK         0.0000 
     46 H46         5.7271   54.5230   23.9390 H         1 UNK         0.0000 
     47 H47         3.6895   53.6380   20.0475 H         1 UNK         0.0000 
     48 H48         6.7278   55.2992   22.6322 H         1 UNK         0.0000 
     49 H49         8.9322   54.4143   16.9298 H         1 UNK         0.0000 
     50 H50         9.1374   53.9987   18.6277 H         1 UNK         0.0000 
     51 H51         7.8686   53.2192   17.6677 H         1 UNK         0.0000 
     52 H52         0.8149   52.7232   27.6027 H         1 UNK         0.0000 
     53 H53         0.9729   54.3947   28.0985 H         1 UNK         0.0000 
@<TRIPOS>BOND
     1    1    2 1    
     2    1   31 1    
     3    1   32 1    
     4    1   33 1    
     5    2    3 1    
     6    2    4 1    
     7    2    5 1    
     8    3   34 1    
     9    3   35 1    
    10    3   36 1    
    11    4   37 1    
    12    4   38 1    
    13    4   39 1    
    14    5    6 1    
    15    5   30 1    
    16    5    7 1    
    17    7    8 1    
    18    7   40 1    
    19    7   41 1    
    20    8    9 1    
    21    8   42 1    
    22    8   43 1    
    23    9   13 1    
    24    9   10 2    
    25   10   11 1    
    26   10   30 1    
    27   11   12 1    
    28   12   13 2    
    29   12   17 am   BACKBONE|DICT|INTERRES
    30   13   14 1    
    31   14   15 2    
    32   14   16 am   BACKBONE|DICT|INTERRES
    33   16   44 1    
    34   16   45 1    
    35   17   18 am   BACKBONE|DICT|INTERRES
    36   17   46 1    
    37   18   19 2    
    38   18   20 1    
    39   20   25 ar   
    40   20   21 ar   
    41   21   22 ar   
    42   21   47 1    
    43   22   23 ar   
    44   22   29 1    
    45   23   24 ar   
    46   23   27 1    
    47   24   25 ar   
    48   24   26 1    
    49   25   48 1    
    50   27   28 1    
    51   28   49 1    
    52   28   50 1    
    53   28   51 1    
    54   30   52 1    
    55   30   53 1    
@<TRIPOS>SUBSTRUCTURE
     1 UNK         1 GROUP             0       ****    0 ROOT    
