@<TRIPOS>MOLECULE
ZINC39655894_5539
70   74    1
SMALL
USER_CHARGES


@<TRIPOS>ATOM
      1 C1          7.0996   54.7636   22.6985 C.3       1 UNK         0.0000 
      2 C2          5.7923   54.4410   23.3852 C.ar      1 UNK         0.0000 
      3 C3          5.6425   54.7096   24.7457 C.ar      1 UNK         0.0000 
      4 C4          4.4365   54.4950   25.4126 C.ar      1 UNK         0.0000 
      5 C5          3.3725   54.0026   24.6502 C.ar      1 UNK         0.0000 
      6 N6          2.0728   53.7111   24.9949 N.pl3     1 UNK         0.0000 
      7 C7          1.3846   53.2961   23.8857 C.ar      1 UNK         0.0000 
      8 C8          2.2363   53.1818   22.8072 C.ar      1 UNK         0.0000 
      9 C9          3.5007   53.6970   23.2605 C.ar      1 UNK         0.0000 
     10 C10         4.7367   53.9206   22.6371 C.ar      1 UNK         0.0000 
     11 C11         1.9146   52.6141   21.4384 C.3       1 UNK         0.0000 
     12 C12         2.2819   51.1169   21.2973 C.3       1 UNK         0.0000 
     13 N13         1.7182   50.2468   22.3366 N.am      1 UNK         0.0000 
     14 C14         0.4136   49.9579   22.4776 C.2       1 UNK         0.0000 
     15 O15        -0.4442   50.3539   21.6858 O.2       1 UNK         0.0000 
     16 C16         0.0481   49.0067   23.6450 C.3       1 UNK         0.0000 
     17 H17         0.9558   48.4961   23.9700 H         1 UNK         0.0000 
     18 C18        -0.9607   47.9586   23.1478 C.3       1 UNK         0.0000 
     19 N19        -1.6752   47.5659   24.3625 N.am      1 UNK         0.0000 
     20 C20        -1.3259   48.4233   25.5021 C.3       1 UNK         0.0000 
     21 C21        -0.6526   49.6632   24.8676 C.3       1 UNK         0.0000 
     22 C22        -1.7198   50.7412   24.4915 C.3       1 UNK         0.0000 
     23 C23        -2.4931   51.2655   25.7206 C.3       1 UNK         0.0000 
     24 N24        -1.4784   51.8422   26.7339 N.4       1 UNK         0.0000 
     25 C25        -0.3105   50.8959   27.0919 C.3       1 UNK         0.0000 
     26 C26         0.3497   50.3723   25.8043 C.3       1 UNK         0.0000 
     27 C27        -2.7099   46.6893   24.3091 C.2       1 UNK         0.0000 
     28 O28        -3.0159   46.0936   23.2737 O.2       1 UNK         0.0000 
     29 C29        -3.5489   46.4611   25.5423 C.ar      1 UNK         0.0000 
     30 C30        -2.9628   46.2228   26.7922 C.ar      1 UNK         0.0000 
     31 C31        -3.7602   46.0971   27.9239 C.ar      1 UNK         0.0000 
     32 C32        -5.1465   46.1914   27.8134 C.ar      1 UNK         0.0000 
     33 C33        -5.7403   46.3535   26.5641 C.ar      1 UNK         0.0000 
     34 C34        -4.9446   46.4827   25.4302 C.ar      1 UNK         0.0000 
     35 O35        -5.9433   46.0971   28.9253 O.3       1 UNK         0.0000 
     36 C36        -6.0474   47.2840   29.7102 C.3       1 UNK         0.0000 
     37 F37        -6.9246   47.0393   30.6822 F         1 UNK         0.0000 
     38 F38        -6.5074   48.3130   28.9954 F         1 UNK         0.0000 
     39 F39        -4.8863   47.5973   30.2830 F         1 UNK         0.0000 
     40 H40         6.9737   54.8981   21.6238 H         1 UNK         0.0000 
     41 H41         7.5041   55.7016   23.0800 H         1 UNK         0.0000 
     42 H42         7.8296   53.9751   22.8822 H         1 UNK         0.0000 
     43 H43         6.4796   55.1082   25.2998 H         1 UNK         0.0000 
     44 H44         4.3353   54.7141   26.4651 H         1 UNK         0.0000 
     45 H45         0.3366   53.0567   23.9630 H         1 UNK         0.0000 
     46 H46         1.6445   53.8255   25.9014 H         1 UNK         0.0000 
     47 H47         4.8572   53.7114   21.5844 H         1 UNK         0.0000 
     48 H48         2.4320   53.1802   20.6634 H         1 UNK         0.0000 
     49 H49         0.8557   52.7454   21.2123 H         1 UNK         0.0000 
     50 H50         3.3662   51.0138   21.3540 H         1 UNK         0.0000 
     51 H51         1.9967   50.7481   20.3096 H         1 UNK         0.0000 
     52 H52         2.3738   49.8444   22.9899 H         1 UNK         0.0000 
     53 H53        -0.5000   47.1240   22.6276 H         1 UNK         0.0000 
     54 H54        -1.7124   48.4239   22.5062 H         1 UNK         0.0000 
     55 H55        -2.1281   48.6769   26.1914 H         1 UNK         0.0000 
     56 H56        -0.5406   47.9201   26.0684 H         1 UNK         0.0000 
     57 H57        -1.2859   51.5702   23.9362 H         1 UNK         0.0000 
     58 H58        -2.4499   50.3049   23.8081 H         1 UNK         0.0000 
     59 H59        -3.1680   52.0829   25.4627 H         1 UNK         0.0000 
     60 H60        -3.0682   50.5041   26.2488 H         1 UNK         0.0000 
     61 H61        -1.0965   52.6972   26.3556 H         1 UNK         0.0000 
     62 H62         0.3778   51.4606   27.7221 H         1 UNK         0.0000 
     63 H63        -0.7436   50.0972   27.6818 H         1 UNK         0.0000 
     64 H64         1.1045   49.6450   26.1082 H         1 UNK         0.0000 
     65 H65         0.9024   51.1499   25.2864 H         1 UNK         0.0000 
     66 H66        -1.8888   46.1734   26.9136 H         1 UNK         0.0000 
     67 H67        -3.2924   45.9432   28.8856 H         1 UNK         0.0000 
     68 H68        -6.8162   46.4003   26.4793 H         1 UNK         0.0000 
     69 H69        -5.4208   46.6371   24.4714 H         1 UNK         0.0000 
     70 H70        -1.9657   52.0910   27.5847 H         1 UNK         0.0000 
@<TRIPOS>BOND
     1    1   40 1    
     2    1   41 1    
     3    1   42 1    
     4    1    2 1    
     5    2    3 ar   
     6    2   10 ar   
     7    3    4 ar   
     8    3   43 1    
     9    4    5 ar   
    10    4   44 1    
    11    5    6 ar   
    12    5    9 ar   
    13    6   46 1    
    14    6    7 ar   
    15    7    8 ar   
    16    7   45 1    
    17    8    9 ar   
    18    8   11 1    
    19    9   10 ar   
    20   10   47 1    
    21   11   12 1    
    22   11   48 1    
    23   11   49 1    
    24   12   13 1    
    25   12   50 1    
    26   12   51 1    
    27   13   14 am   BACKBONE|DICT|INTERRES
    28   13   52 1    
    29   14   15 2    
    30   14   16 1    
    31   16   17 1    
    32   16   21 1    
    33   16   18 1    
    34   18   19 1    
    35   18   53 1    
    36   18   54 1    
    37   19   20 1    
    38   19   27 am   BACKBONE|DICT|INTERRES
    39   20   21 1    
    40   20   55 1    
    41   20   56 1    
    42   21   26 1    
    43   21   22 1    
    44   22   23 1    
    45   22   57 1    
    46   22   58 1    
    47   23   24 1    
    48   23   59 1    
    49   23   60 1    
    50   24   25 1    
    51   24   61 1    
    52   24   70 1    
    53   25   26 1    
    54   25   62 1    
    55   25   63 1    
    56   26   64 1    
    57   26   65 1    
    58   27   28 2    
    59   27   29 1    
    60   29   34 ar   
    61   29   30 ar   
    62   30   31 ar   
    63   30   66 1    
    64   31   32 ar   
    65   31   67 1    
    66   32   33 ar   
    67   32   35 1    
    68   33   34 ar   
    69   33   68 1    
    70   34   69 1    
    71   35   36 1    
    72   36   37 1    
    73   36   38 1    
    74   36   39 1    
@<TRIPOS>SUBSTRUCTURE
     1 UNK         1 GROUP             0       ****    0 ROOT    
