@<TRIPOS>MOLECULE
ZINC10216061_2903
63   66    1
SMALL
USER_CHARGES


@<TRIPOS>ATOM
      1 C1          6.7122   55.1568   24.3187 C.3       1 UNK         0.0000 
      2 C2          5.6362   54.7821   25.3197 C.ar      1 UNK         0.0000 
      3 C3          5.9123   54.8269   26.6881 C.ar      1 UNK         0.0000 
      4 C4          4.9275   54.4840   27.6168 C.ar      1 UNK         0.0000 
      5 C5          3.6663   54.0825   27.1755 C.ar      1 UNK         0.0000 
      6 C6          3.3870   54.0035   25.8031 C.ar      1 UNK         0.0000 
      7 C7          4.3690   54.3833   24.8834 C.ar      1 UNK         0.0000 
      8 N8          2.1681   53.5365   25.2825 N.am      1 UNK         0.0000 
      9 C9          1.3212   52.6346   25.8349 C.2       1 UNK         0.0000 
     10 O10         1.4916   52.1179   26.9423 O.2       1 UNK         0.0000 
     11 C11         0.1135   52.2086   24.9532 C.3       1 UNK         0.0000 
     12 H12        -0.4759   53.0858   24.6797 H         1 UNK         0.0000 
     13 C13         0.6492   51.5444   23.6686 C.ar      1 UNK         0.0000 
     14 C14         1.1824   50.2466   23.6812 C.ar      1 UNK         0.0000 
     15 C15         1.7413   49.7069   22.5243 C.ar      1 UNK         0.0000 
     16 C16         1.7726   50.4595   21.3537 C.ar      1 UNK         0.0000 
     17 C17         1.2480   51.7481   21.3287 C.ar      1 UNK         0.0000 
     18 C18         0.6892   52.2873   22.4845 C.ar      1 UNK         0.0000 
     19 C19        -1.6211   52.1834   26.8881 C.3       1 UNK         0.0000 
     20 C20        -2.4246   51.2122   27.7684 C.3       1 UNK         0.0000 
     21 C21        -3.4828   50.4861   26.9306 C.3       1 UNK         0.0000 
     22 C22        -2.8145   49.7079   25.7840 C.3       1 UNK         0.0000 
     23 C23        -1.9655   50.6368   24.8938 C.3       1 UNK         0.0000 
     24 N24        -4.0959   49.4806   27.8150 N.pl3     1 UNK         0.0000 
     25 S25        -5.8335   49.2959   27.9567 S.o2      1 UNK         0.0000 
     26 O26        -6.4541   49.6856   26.6845 O.2       1 UNK         0.0000 
     27 O27        -6.1086   48.0045   28.5969 O.2       1 UNK         0.0000 
     28 C28        -6.2399   50.5679   29.1757 C.2       1 UNK         0.0000 
     29 C29        -5.9452   50.5030   30.5326 C.2       1 UNK         0.0000 
     30 C30        -6.4934   51.5704   31.2514 C.2       1 UNK         0.0000 
     31 C31        -7.1726   52.4719   30.4403 C.2       1 UNK         0.0000 
     32 S32        -7.1428   51.9952   28.7707 S.3       1 UNK         0.0000 
     33 C33         5.2305   54.4998   29.1019 C.3       1 UNK         0.0000 
     34 H34         6.3132   55.2843   23.3135 H         1 UNK         0.0000 
     35 H35         7.4963   54.3979   24.2944 H         1 UNK         0.0000 
     36 H36         7.1841   56.0969   24.6023 H         1 UNK         0.0000 
     37 H37         6.8908   55.1264   27.0352 H         1 UNK         0.0000 
     38 H38         2.9204   53.8205   27.9087 H         1 UNK         0.0000 
     39 H39         4.1641   54.3313   23.8246 H         1 UNK         0.0000 
     40 H40         1.9949   53.7873   24.3212 H         1 UNK         0.0000 
     41 H41         1.1864   49.6594   24.5892 H         1 UNK         0.0000 
     42 H42         2.1688   48.7153   22.5358 H         1 UNK         0.0000 
     43 H43         2.2205   50.0448   20.4609 H         1 UNK         0.0000 
     44 H44         1.2880   52.3334   20.4199 H         1 UNK         0.0000 
     45 H45         0.3107   53.2967   22.4586 H         1 UNK         0.0000 
     46 H46        -0.8659   52.6702   27.5032 H         1 UNK         0.0000 
     47 H47        -2.2398   52.9390   26.4005 H         1 UNK         0.0000 
     48 H48        -1.7335   50.4968   28.2141 H         1 UNK         0.0000 
     49 H49        -2.8954   51.7109   28.6143 H         1 UNK         0.0000 
     50 H50        -4.2245   51.1884   26.5428 H         1 UNK         0.0000 
     51 H51        -3.5692   49.1938   25.1886 H         1 UNK         0.0000 
     52 H52        -2.1682   48.9223   26.1792 H         1 UNK         0.0000 
     53 H53        -2.5512   51.4034   24.3849 H         1 UNK         0.0000 
     54 H54        -1.4419   50.0264   24.1587 H         1 UNK         0.0000 
     55 H55        -3.4686   48.8245   28.2983 H         1 UNK         0.0000 
     56 H56        -5.3858   49.6962   30.9865 H         1 UNK         0.0000 
     57 H57        -6.3978   51.6747   32.3230 H         1 UNK         0.0000 
     58 H58        -7.6963   53.3689   30.7355 H         1 UNK         0.0000 
     59 H59         4.7940   53.6217   29.5796 H         1 UNK         0.0000 
     60 H60         6.3056   54.4687   29.2798 H         1 UNK         0.0000 
     61 H61         4.8126   55.3815   29.5837 H         1 UNK         0.0000 
     62 N62        -0.9046   51.3484   25.7827 N.4       1 UNK         0.0000 
     63 H63        -0.3499   50.6441   26.2555 H         1 UNK         0.0000 
@<TRIPOS>BOND
     1    1    2 1    
     2    1   34 1    
     3    1   35 1    
     4    1   36 1    
     5    2    7 ar   
     6    2    3 ar   
     7    3    4 ar   
     8    3   37 1    
     9    4    5 ar   
    10    4   33 1    
    11    5    6 ar   
    12    5   38 1    
    13    6    7 ar   
    14    6    8 1    
    15    7   39 1    
    16    8    9 am   BACKBONE|DICT|INTERRES
    17    8   40 1    
    18    9   10 2    
    19    9   11 1    
    20   11   12 1    
    21   11   13 1    
    22   11   62 1    
    23   13   18 ar   
    24   13   14 ar   
    25   14   15 ar   
    26   14   41 1    
    27   15   16 ar   
    28   15   42 1    
    29   16   17 ar   
    30   16   43 1    
    31   17   18 ar   
    32   17   44 1    
    33   18   45 1    
    34   19   20 1    
    35   19   46 1    
    36   19   47 1    
    37   19   62 1    
    38   20   21 1    
    39   20   48 1    
    40   20   49 1    
    41   21   22 1    
    42   21   24 1    
    43   21   50 1    
    44   22   23 1    
    45   22   51 1    
    46   22   52 1    
    47   23   53 1    
    48   23   54 1    
    49   23   62 1    
    50   24   25 1    
    51   24   55 1    
    52   25   26 2    
    53   25   27 2    
    54   25   28 1    
    55   28   32 1    
    56   28   29 2    
    57   29   30 1    
    58   29   56 1    
    59   30   31 2    
    60   30   57 1    
    61   31   32 1    
    62   31   58 1    
    63   33   59 1    
    64   33   60 1    
    65   33   61 1    
    66   62   63 1    
@<TRIPOS>SUBSTRUCTURE
     1 UNK         1 GROUP             0       ****    0 ROOT    
