@<TRIPOS>MOLECULE
ZINC34923149_5641
59   62    1
SMALL
USER_CHARGES


@<TRIPOS>ATOM
      1 C1          6.2451   54.2415   23.5319 C.3       1 UNK         0.0000 
      2 C2          5.9266   54.4475   25.0321 C.3       1 UNK         0.0000 
      3 C3          4.5059   54.0969   25.5343 C.2       1 UNK         0.0000 
      4 C4          4.1463   53.6041   26.7682 C.2       1 UNK         0.0000 
      5 C5          2.6916   53.0676   27.0117 C.3       1 UNK         0.0000 
      6 H6          2.7820   52.0169   27.2806 H         1 UNK         0.0000 
      7 N7          1.9055   53.0798   25.7373 N.pl3     1 UNK         0.0000 
      8 C8          0.6581   52.5048   25.5073 C.2       1 UNK         0.0000 
      9 C9          0.2077   52.7581   24.2654 C.2       1 UNK         0.0000 
     10 S10         1.3145   53.6964   23.2826 S.3       1 UNK         0.0000 
     11 C11         2.4582   53.7058   24.6231 C.2       1 UNK         0.0000 
     12 N12         3.6075   54.2373   24.5200 N.2       1 UNK         0.0000 
     13 C13        -0.1441   51.7587   26.4661 C.2       1 UNK         0.0000 
     14 C14        -1.4471   51.9825   26.7287 C.2       1 UNK         0.0000 
     15 O15        -2.2396   52.8718   26.2291 O.co2     1 UNK         0.0000 
     16 N16        -2.1098   51.2010   27.6519 N.pl3     1 UNK         0.0000 
     17 C17        -3.5360   51.0922   27.9547 C.3       1 UNK         0.0000 
     18 C18        -4.2452   50.2477   26.8744 C.3       1 UNK         0.0000 
     19 C19        -5.7564   50.1831   27.1845 C.3       1 UNK         0.0000 
     20 C20        -6.0295   49.6393   28.6086 C.3       1 UNK         0.0000 
     21 C21        -5.1964   50.3549   29.6995 C.3       1 UNK         0.0000 
     22 C22        -3.7012   50.4002   29.3202 C.3       1 UNK         0.0000 
     23 C23         1.9606   53.6892   28.2092 C.ar      1 UNK         0.0000 
     24 C24         1.2526   52.8727   29.1032 C.ar      1 UNK         0.0000 
     25 C25         0.6349   53.4158   30.2270 C.ar      1 UNK         0.0000 
     26 C26         0.7495   54.7801   30.4831 C.ar      1 UNK         0.0000 
     27 C27         1.4817   55.5953   29.6204 C.ar      1 UNK         0.0000 
     28 C28         2.0692   55.0569   28.4813 C.ar      1 UNK         0.0000 
     29 F29         1.6048   56.9091   29.8891 F         1 UNK         0.0000 
     30 C30         5.0777   53.4420   27.9088 C.2       1 UNK         0.0000 
     31 O31         4.8190   52.7266   28.8817 O.2       1 UNK         0.0000 
     32 O32         6.2054   54.1624   27.8064 O.3       1 UNK         0.0000 
     33 C33         7.3267   53.8803   28.6182 C.3       1 UNK         0.0000 
     34 H34         7.2933   54.4539   23.3191 H         1 UNK         0.0000 
     35 H35         6.0471   53.2142   23.2267 H         1 UNK         0.0000 
     36 H36         5.6452   54.8956   22.8981 H         1 UNK         0.0000 
     37 H37         6.1321   55.4845   25.3011 H         1 UNK         0.0000 
     38 H38         6.6591   53.8292   25.5468 H         1 UNK         0.0000 
     39 H39        -0.7429   52.4386   23.8654 H         1 UNK         0.0000 
     40 H40         0.3519   50.9585   26.9982 H         1 UNK         0.0000 
     41 H41        -1.6385   50.3458   27.9271 H         1 UNK         0.0000 
     42 H42        -3.9628   52.0955   27.9973 H         1 UNK         0.0000 
     43 H43        -3.8347   49.2369   26.8502 H         1 UNK         0.0000 
     44 H44        -4.0907   50.6805   25.8850 H         1 UNK         0.0000 
     45 H45        -6.2609   49.5590   26.4457 H         1 UNK         0.0000 
     46 H46        -6.1918   51.1797   27.0873 H         1 UNK         0.0000 
     47 H47        -5.7946   48.5736   28.6303 H         1 UNK         0.0000 
     48 H48        -7.0926   49.7174   28.8415 H         1 UNK         0.0000 
     49 H49        -5.3209   49.8477   30.6583 H         1 UNK         0.0000 
     50 H50        -5.5697   51.3703   29.8391 H         1 UNK         0.0000 
     51 H51        -3.1266   50.8967   30.0997 H         1 UNK         0.0000 
     52 H52        -3.3096   49.3832   29.2727 H         1 UNK         0.0000 
     53 H53         1.1763   51.8093   28.9307 H         1 UNK         0.0000 
     54 H54         0.0828   52.7795   30.9055 H         1 UNK         0.0000 
     55 H55         0.2921   55.2034   31.3632 H         1 UNK         0.0000 
     56 H56         2.6347   55.6966   27.8216 H         1 UNK         0.0000 
     57 H57         8.1590   54.4968   28.2877 H         1 UNK         0.0000 
     58 H58         7.1462   54.0962   29.6758 H         1 UNK         0.0000 
     59 H59         7.6303   52.8431   28.4817 H         1 UNK         0.0000 
@<TRIPOS>BOND
     1    1    2 1    
     2    1   34 1    
     3    1   35 1    
     4    1   36 1    
     5    2    3 1    
     6    2   37 1    
     7    2   38 1    
     8    3   12 1    
     9    3    4 2    
    10    4    5 1    
    11    4   30 1    
    12    5    6 1    
    13    5    7 1    
    14    5   23 1    
    15    7   11 1    
    16    7    8 1    
    17    8    9 2    
    18    8   13 1    
    19    9   10 1    
    20    9   39 1    
    21   10   11 1    
    22   11   12 2    
    23   13   14 2    
    24   13   40 1    
    25   14   15 1    
    26   14   16 1    
    27   16   17 1    
    28   16   41 1    
    29   17   22 1    
    30   17   18 1    
    31   17   42 1    
    32   18   19 1    
    33   18   43 1    
    34   18   44 1    
    35   19   20 1    
    36   19   45 1    
    37   19   46 1    
    38   20   21 1    
    39   20   47 1    
    40   20   48 1    
    41   21   22 1    
    42   21   49 1    
    43   21   50 1    
    44   22   51 1    
    45   22   52 1    
    46   23   28 ar   
    47   23   24 ar   
    48   24   25 ar   
    49   24   53 1    
    50   25   26 ar   
    51   25   54 1    
    52   26   27 ar   
    53   26   55 1    
    54   27   28 ar   
    55   27   29 1    
    56   28   56 1    
    57   30   31 2    
    58   30   32 1    
    59   32   33 1    
    60   33   57 1    
    61   33   58 1    
    62   33   59 1    
@<TRIPOS>SUBSTRUCTURE
     1 UNK         1 GROUP             0       ****    0 ROOT    
