@<TRIPOS>MOLECULE
ZINC08386049_5929
48   51    1
SMALL
USER_CHARGES


@<TRIPOS>ATOM
      1 C1          8.0994   53.0131   15.3862 C.ar      1 UNK         0.0000 
      2 C2          7.3734   53.8897   14.5824 C.ar      1 UNK         0.0000 
      3 C3          6.1963   54.4555   15.0663 C.ar      1 UNK         0.0000 
      4 C4          5.7455   54.1425   16.3522 C.ar      1 UNK         0.0000 
      5 C5          6.4854   53.2665   17.1536 C.ar      1 UNK         0.0000 
      6 C6          7.6603   52.6984   16.6692 C.ar      1 UNK         0.0000 
      7 C7          4.4497   54.7716   16.8924 C.3       1 UNK         0.0000 
      8 C8          4.2702   56.2796   16.6894 C.3       1 UNK         0.0000 
      9 C9          4.4897   55.7469   18.0848 C.3       1 UNK         0.0000 
     10 H10         3.6430   55.7713   18.7729 H         1 UNK         0.0000 
     11 C11         5.8470   56.0761   18.7443 C.2       1 UNK         0.0000 
     12 O12         6.7997   56.5073   18.0875 O.2       1 UNK         0.0000 
     13 N13         5.9044   55.7839   20.0553 N.am      1 UNK         0.0000 
     14 N14         7.0522   55.7529   20.7565 N.2       1 UNK         0.0000 
     15 C15         6.9982   55.2967   21.9498 C.2       1 UNK         0.0000 
     16 C16         5.8898   54.6756   22.7319 C.ar      1 UNK         0.0000 
     17 C17         4.8776   53.9399   22.0899 C.ar      1 UNK         0.0000 
     18 C18         3.7468   53.4750   22.7694 C.ar      1 UNK         0.0000 
     19 C19         3.6576   53.6978   24.1454 C.ar      1 UNK         0.0000 
     20 C20         4.6865   54.3308   24.8351 C.ar      1 UNK         0.0000 
     21 C21         5.8049   54.8217   24.1419 C.ar      1 UNK         0.0000 
     22 Br22        4.5101   54.4963   26.7321 Br        1 UNK         0.0000 
     23 N23         2.6728   52.7466   22.0503 N.pl3     1 UNK         0.0000 
     24 O24         2.8291   52.4967   20.8591 O.co2     1 UNK         0.0000 
     25 O25         1.6706   52.4145   22.6776 O.co2     1 UNK         0.0000 
     26 C26         3.1959   53.8610   16.8018 C.ar      1 UNK         0.0000 
     27 C27         1.9198   54.3641   17.1040 C.ar      1 UNK         0.0000 
     28 C28         0.7914   53.5527   17.0316 C.ar      1 UNK         0.0000 
     29 C29         0.9236   52.2204   16.6571 C.ar      1 UNK         0.0000 
     30 C30         2.1764   51.6967   16.3550 C.ar      1 UNK         0.0000 
     31 C31         3.3017   52.5121   16.4233 C.ar      1 UNK         0.0000 
     32 H32         9.0109   52.5717   15.0109 H         1 UNK         0.0000 
     33 H33         7.7216   54.1287   13.5890 H         1 UNK         0.0000 
     34 H34         5.6330   55.1324   14.4421 H         1 UNK         0.0000 
     35 H35         6.1383   53.0106   18.1447 H         1 UNK         0.0000 
     36 H36         8.2235   52.0118   17.2828 H         1 UNK         0.0000 
     37 H37         5.0625   56.8547   16.2053 H         1 UNK         0.0000 
     38 H38         3.2937   56.6892   16.4324 H         1 UNK         0.0000 
     39 H39         5.0899   55.4464   20.5454 H         1 UNK         0.0000 
     40 H40         7.9045   55.3750   22.5244 H         1 UNK         0.0000 
     41 H41         4.9481   53.7239   21.0335 H         1 UNK         0.0000 
     42 H42         2.8034   53.3396   24.7028 H         1 UNK         0.0000 
     43 H43         1.7840   55.3872   17.4171 H         1 UNK         0.0000 
     44 H44        -0.1804   53.9546   17.2755 H         1 UNK         0.0000 
     45 H45         0.0519   51.5849   16.6090 H         1 UNK         0.0000 
     46 H46         2.2872   50.6566   16.0827 H         1 UNK         0.0000 
     47 H47         4.2556   52.0609   16.1961 H         1 UNK         0.0000 
     48 O48         6.7046   55.4325   24.8155 O.co2     1 UNK         0.0000 
@<TRIPOS>BOND
     1    1    6 ar   
     2    1    2 ar   
     3    1   32 1    
     4    2    3 ar   
     5    2   33 1    
     6    3    4 ar   
     7    3   34 1    
     8    4    5 ar   
     9    4    7 1    
    10    5    6 ar   
    11    5   35 1    
    12    6   36 1    
    13    7    9 1    
    14    7    8 1    
    15    7   26 1    
    16    8    9 1    
    17    8   37 1    
    18    8   38 1    
    19    9   10 1    
    20    9   11 1    
    21   11   12 2    
    22   11   13 am   BACKBONE|DICT|INTERRES
    23   13   14 1    
    24   13   39 1    
    25   14   15 2    
    26   15   16 1    
    27   15   40 1    
    28   16   21 ar   
    29   16   17 ar   
    30   17   18 ar   
    31   17   41 1    
    32   18   19 ar   
    33   18   23 1    
    34   19   20 ar   
    35   19   42 1    
    36   20   21 ar   
    37   20   22 1    
    38   21   48 1    
    39   23   24 2    
    40   23   25 1    
    41   26   31 ar   
    42   26   27 ar   
    43   27   28 ar   
    44   27   43 1    
    45   28   29 ar   
    46   28   44 1    
    47   29   30 ar   
    48   29   45 1    
    49   30   31 ar   
    50   30   46 1    
    51   31   47 1    
@<TRIPOS>SUBSTRUCTURE
     1 UNK         1 GROUP             0       ****    0 ROOT    
