@<TRIPOS>MOLECULE
ZINC12698024_3274
62   64    1
SMALL
USER_CHARGES


@<TRIPOS>ATOM
      1 C1          7.0300   55.8124   24.1454 C.3       1 UNK         0.0000 
      2 C2          6.4558   54.4822   24.6041 C.3       1 UNK         0.0000 
      3 H3          7.2241   53.7284   24.4124 H         1 UNK         0.0000 
      4 C4          5.2209   54.0967   23.7026 C.2       1 UNK         0.0000 
      5 O5          4.0817   54.4965   23.9613 O.2       1 UNK         0.0000 
      6 N6          5.4920   53.3468   22.6027 N.am      1 UNK         0.0000 
      7 C7          4.6478   52.8082   21.6816 C.2       1 UNK         0.0000 
      8 O8          5.1058   52.0959   20.7992 O.2       1 UNK         0.0000 
      9 N9          3.3178   53.0085   21.8064 N.am      1 UNK         0.0000 
     10 C10         2.2726   52.1069   21.3124 C.3       1 UNK         0.0000 
     11 C11         2.1853   51.9281   19.7707 C.3       1 UNK         0.0000 
     12 C12         1.0550   50.9819   19.3213 C.3       1 UNK         0.0000 
     13 C13         1.0922   49.6387   20.0690 C.3       1 UNK         0.0000 
     14 C14         1.0339   49.8525   21.5893 C.3       1 UNK         0.0000 
     15 C15         2.1659   50.7692   22.0891 C.3       1 UNK         0.0000 
     16 N16         6.2444   54.5523   26.0850 N.3       1 UNK         0.0000 
     17 C17         6.4833   53.2510   26.7441 C.3       1 UNK         0.0000 
     18 C18         6.0724   53.0879   28.2398 C.3       1 UNK         0.0000 
     19 N19         4.8524   53.8413   28.5592 N.pl3     1 UNK         0.0000 
     20 C20         4.9058   55.2004   28.0642 C.3       1 UNK         0.0000 
     21 C21         4.9780   55.1370   26.5343 C.3       1 UNK         0.0000 
     22 S22         3.4129   53.1693   29.3709 S.o2      1 UNK         0.0000 
     23 O23         3.8093   51.9376   30.0664 O.2       1 UNK         0.0000 
     24 O24         2.7481   54.2665   30.0812 O.2       1 UNK         0.0000 
     25 C25         2.2502   52.6830   28.0847 C.ar      1 UNK         0.0000 
     26 C26         1.5511   51.4847   28.2010 C.ar      1 UNK         0.0000 
     27 C27         0.6948   51.0658   27.1851 C.ar      1 UNK         0.0000 
     28 C28         0.5315   51.8468   26.0382 C.ar      1 UNK         0.0000 
     29 C29         1.2144   53.0613   25.9355 C.ar      1 UNK         0.0000 
     30 C30         2.0075   53.5051   26.9885 C.ar      1 UNK         0.0000 
     31 C31        -0.4122   51.3779   24.9322 C.3       1 UNK         0.0000 
     32 F32        -1.6679   51.4478   25.3723 F         1 UNK         0.0000 
     33 F33        -0.3168   52.1285   23.8311 F         1 UNK         0.0000 
     34 F34        -0.1441   50.1134   24.6044 F         1 UNK         0.0000 
     35 H35         7.3250   55.7690   23.0962 H         1 UNK         0.0000 
     36 H36         6.3027   56.6074   24.2769 H         1 UNK         0.0000 
     37 H37         7.9043   56.0850   24.7333 H         1 UNK         0.0000 
     38 H38         6.4620   53.1220   22.4527 H         1 UNK         0.0000 
     39 H39         3.0539   53.5827   22.5968 H         1 UNK         0.0000 
     40 H40         1.3544   52.6475   21.5495 H         1 UNK         0.0000 
     41 H41         3.1174   51.5030   19.3934 H         1 UNK         0.0000 
     42 H42         2.0650   52.8971   19.2845 H         1 UNK         0.0000 
     43 H43         1.1288   50.8092   18.2468 H         1 UNK         0.0000 
     44 H44         0.0911   51.4658   19.4877 H         1 UNK         0.0000 
     45 H45         2.0054   49.1011   19.8065 H         1 UNK         0.0000 
     46 H46         0.2616   49.0093   19.7481 H         1 UNK         0.0000 
     47 H47         1.0822   48.8961   22.1098 H         1 UNK         0.0000 
     48 H48         0.0711   50.2915   21.8525 H         1 UNK         0.0000 
     49 H49         2.0392   50.9563   23.1563 H         1 UNK         0.0000 
     50 H50         3.1047   50.2231   21.9792 H         1 UNK         0.0000 
     51 H51         5.7019   52.6717   26.2604 H         1 UNK         0.0000 
     52 H52         7.4984   52.8948   26.5639 H         1 UNK         0.0000 
     53 H53         6.8654   53.4808   28.8782 H         1 UNK         0.0000 
     54 H54         5.9047   52.0459   28.4815 H         1 UNK         0.0000 
     55 H55         5.7657   55.6967   28.5096 H         1 UNK         0.0000 
     56 H56         3.9916   55.6966   28.3967 H         1 UNK         0.0000 
     57 H57         4.8016   56.0969   26.0676 H         1 UNK         0.0000 
     58 H58         4.2075   54.4542   26.2146 H         1 UNK         0.0000 
     59 H59         1.6703   50.8967   29.0912 H         1 UNK         0.0000 
     60 H60         0.1493   50.1375   27.2817 H         1 UNK         0.0000 
     61 H61         1.1022   53.6960   25.0678 H         1 UNK         0.0000 
     62 H62         2.4148   54.4964   26.9552 H         1 UNK         0.0000 
@<TRIPOS>BOND
     1    1    2 1    
     2    1   35 1    
     3    1   36 1    
     4    1   37 1    
     5    2    3 1    
     6    2    4 1    
     7    2   16 1    
     8    4    5 2    
     9    4    6 am   BACKBONE|DICT|INTERRES
    10    6    7 am   BACKBONE|DICT|INTERRES
    11    6   38 1    
    12    7    8 2    
    13    7    9 am   BACKBONE|DICT|INTERRES
    14    9   10 1    
    15    9   39 1    
    16   10   15 1    
    17   10   11 1    
    18   10   40 1    
    19   11   12 1    
    20   11   41 1    
    21   11   42 1    
    22   12   13 1    
    23   12   43 1    
    24   12   44 1    
    25   13   14 1    
    26   13   45 1    
    27   13   46 1    
    28   14   15 1    
    29   14   47 1    
    30   14   48 1    
    31   15   49 1    
    32   15   50 1    
    33   16   21 1    
    34   16   17 1    
    35   17   18 1    
    36   17   51 1    
    37   17   52 1    
    38   18   19 1    
    39   18   53 1    
    40   18   54 1    
    41   19   20 1    
    42   19   22 1    
    43   20   21 1    
    44   20   55 1    
    45   20   56 1    
    46   21   57 1    
    47   21   58 1    
    48   22   23 2    
    49   22   24 2    
    50   22   25 1    
    51   25   30 ar   
    52   25   26 ar   
    53   26   27 ar   
    54   26   59 1    
    55   27   28 ar   
    56   27   60 1    
    57   28   29 ar   
    58   28   31 1    
    59   29   30 ar   
    60   29   61 1    
    61   30   62 1    
    62   31   32 1    
    63   31   33 1    
    64   31   34 1    
@<TRIPOS>SUBSTRUCTURE
     1 UNK         1 GROUP             0       ****    0 ROOT    
