@<TRIPOS>MOLECULE
ZINC67000228_1410
49   51    1
SMALL
USER_CHARGES


@<TRIPOS>ATOM
      1 C1         -4.7702   45.7017   27.6274 C.3       1 UNK         0.0000 
      2 N2         -4.4155   46.9895   27.0191 N.am      1 UNK         0.0000 
      3 C3         -4.9804   48.1383   27.6228 C.ar      1 UNK         0.0000 
      4 C4         -6.0133   48.8368   26.9914 C.ar      1 UNK         0.0000 
      5 C5         -6.5252   49.9934   27.5742 C.ar      1 UNK         0.0000 
      6 C6         -6.0207   50.4635   28.7966 C.ar      1 UNK         0.0000 
      7 C7         -5.0053   49.7354   29.4356 C.ar      1 UNK         0.0000 
      8 C8         -4.4956   48.5766   28.8562 C.ar      1 UNK         0.0000 
      9 N9         -6.5473   51.7157   29.3962 N.pl3     1 UNK         0.0000 
     10 O10        -6.0956   52.0934   30.4749 O.co2     1 UNK         0.0000 
     11 O11        -7.4068   52.3444   28.7852 O.co2     1 UNK         0.0000 
     12 C12        -3.6701   46.9926   25.8611 C.2       1 UNK         0.0000 
     13 O13        -3.3209   45.9571   25.2813 O.2       1 UNK         0.0000 
     14 C14        -3.2839   48.3062   25.2719 C.2       1 UNK         0.0000 
     15 O15        -3.6591   48.6621   24.1533 O.2       1 UNK         0.0000 
     16 N16        -2.4939   49.0327   26.0816 N.am      1 UNK         0.0000 
     17 C17        -2.0779   50.4264   25.8955 C.3       1 UNK         0.0000 
     18 C18        -0.5441   50.6969   25.7046 C.3       1 UNK         0.0000 
     19 C19        -0.2384   52.0970   26.3225 C.3       1 UNK         0.0000 
     20 C20         1.0480   52.7411   25.7952 C.3       1 UNK         0.0000 
     21 C21         0.8952   52.9728   24.2894 C.3       1 UNK         0.0000 
     22 C22         0.5767   51.6691   23.5654 C.ar      1 UNK         0.0000 
     23 C23        -0.1130   50.6116   24.2162 C.ar      1 UNK         0.0000 
     24 C24        -0.3370   49.4326   23.4869 C.ar      1 UNK         0.0000 
     25 C25         0.0651   49.2965   22.1617 C.ar      1 UNK         0.0000 
     26 C26         0.7290   50.3403   21.5328 C.ar      1 UNK         0.0000 
     27 C27         0.9843   51.5125   22.2348 C.ar      1 UNK         0.0000 
     28 O28         0.1899   49.7606   26.4817 O.3       1 UNK         0.0000 
     29 H29        -5.0447   44.9597   26.8759 H         1 UNK         0.0000 
     30 H30        -3.9246   45.3084   28.1939 H         1 UNK         0.0000 
     31 H31        -5.6184   45.8044   28.3053 H         1 UNK         0.0000 
     32 H32        -6.4031   48.4977   26.0422 H         1 UNK         0.0000 
     33 H33        -7.3121   50.5280   27.0609 H         1 UNK         0.0000 
     34 H34        -4.5903   50.0654   30.3785 H         1 UNK         0.0000 
     35 H35        -3.6955   48.0436   29.3509 H         1 UNK         0.0000 
     36 H36        -2.2337   48.6266   26.9908 H         1 UNK         0.0000 
     37 H37        -2.6399   50.9080   25.0921 H         1 UNK         0.0000 
     38 H38        -2.4249   50.9188   26.8060 H         1 UNK         0.0000 
     39 H39        -1.0600   52.7820   26.1032 H         1 UNK         0.0000 
     40 H40        -0.2046   52.0397   27.4125 H         1 UNK         0.0000 
     41 H41         1.2403   53.6858   26.3052 H         1 UNK         0.0000 
     42 H42         1.9044   52.0982   26.0007 H         1 UNK         0.0000 
     43 H43         0.0913   53.6864   24.1024 H         1 UNK         0.0000 
     44 H44         1.8053   53.4242   23.8900 H         1 UNK         0.0000 
     45 H45        -0.8192   48.5930   23.9629 H         1 UNK         0.0000 
     46 H46        -0.1287   48.3786   21.6271 H         1 UNK         0.0000 
     47 H47         1.0533   50.2398   20.5072 H         1 UNK         0.0000 
     48 H48         1.5088   52.3142   21.7349 H         1 UNK         0.0000 
     49 H49        -0.3972   49.3621   27.1403 H         1 UNK         0.0000 
@<TRIPOS>BOND
     1    1    2 1    
     2    1   29 1    
     3    1   30 1    
     4    1   31 1    
     5    2    3 1    
     6    2   12 am   BACKBONE|DICT|INTERRES
     7    3    8 ar   
     8    3    4 ar   
     9    4    5 ar   
    10    4   32 1    
    11    5    6 ar   
    12    5   33 1    
    13    6    7 ar   
    14    6    9 1    
    15    7    8 ar   
    16    7   34 1    
    17    8   35 1    
    18    9   10 2    
    19    9   11 1    
    20   12   13 2    
    21   12   14 1    
    22   14   15 2    
    23   14   16 am   BACKBONE|DICT|INTERRES
    24   16   17 1    
    25   16   36 1    
    26   17   18 1    
    27   17   37 1    
    28   17   38 1    
    29   18   23 1    
    30   18   19 1    
    31   18   28 1    
    32   19   20 1    
    33   19   39 1    
    34   19   40 1    
    35   20   21 1    
    36   20   41 1    
    37   20   42 1    
    38   21   22 1    
    39   21   43 1    
    40   21   44 1    
    41   22   27 ar   
    42   22   23 ar   
    43   23   24 ar   
    44   24   25 ar   
    45   24   45 1    
    46   25   26 ar   
    47   25   46 1    
    48   26   27 ar   
    49   26   47 1    
    50   27   48 1    
    51   28   49 1    
@<TRIPOS>SUBSTRUCTURE
     1 UNK         1 GROUP             0       ****    0 ROOT    
