@<TRIPOS>MOLECULE
ZINC39693562_402
79   81    1
SMALL
USER_CHARGES


@<TRIPOS>ATOM
      1 C1          5.5389   53.3363   28.4817 C.3       1 UNK         0.0000 
      2 C2          5.0226   54.4192   27.5068 C.3       1 UNK         0.0000 
      3 C3          6.2522   55.1197   26.9046 C.3       1 UNK         0.0000 
      4 C4          3.9418   53.8584   26.5056 C.3       1 UNK         0.0000 
      5 H5          4.2835   52.8969   26.1192 H         1 UNK         0.0000 
      6 C6          2.5835   53.5449   27.2311 C.2       1 UNK         0.0000 
      7 O7          2.4587   53.8154   28.4298 O.2       1 UNK         0.0000 
      8 N8          1.5707   52.9219   26.5760 N.am      1 UNK         0.0000 
      9 C9          1.4511   52.8358   25.1279 C.3       1 UNK         0.0000 
     10 C10         0.0099   52.3331   24.8874 C.3       1 UNK         0.0000 
     11 H11        -0.5816   53.2236   24.6638 H         1 UNK         0.0000 
     12 C12        -0.4441   51.6748   26.2204 C.3       1 UNK         0.0000 
     13 C13         0.3353   52.5183   27.2513 C.3       1 UNK         0.0000 
     14 C14        -1.9595   51.7384   26.5526 C.3       1 UNK         0.0000 
     15 C15        -2.8128   50.7142   25.7802 C.3       1 UNK         0.0000 
     16 N16        -2.2850   49.2965   26.0816 N.4       1 UNK         0.0000 
     17 C17        -0.8001   49.1110   25.7357 C.3       1 UNK         0.0000 
     18 C18         0.0214   50.2062   26.4610 C.3       1 UNK         0.0000 
     19 C19        -0.0411   51.4721   23.6041 C.2       1 UNK         0.0000 
     20 O20        -1.0369   51.5541   22.8871 O.2       1 UNK         0.0000 
     21 N21         0.9553   50.5942   23.3701 N.am      1 UNK         0.0000 
     22 C22         0.9803   49.5768   22.3139 C.3       1 UNK         0.0000 
     23 C23         2.3073   49.5279   21.5245 C.3       1 UNK         0.0000 
     24 N24         2.5241   50.6166   20.5703 N.am      1 UNK         0.0000 
     25 C25         1.7396   50.7907   19.4449 C.2       1 UNK         0.0000 
     26 O26         0.7590   50.1104   19.1348 O.2       1 UNK         0.0000 
     27 O27         2.2049   51.8605   18.7581 O.3       1 UNK         0.0000 
     28 C28         1.5664   52.4479   17.6125 C.3       1 UNK         0.0000 
     29 C29         0.1983   53.0497   18.0108 C.3       1 UNK         0.0000 
     30 C30         1.3982   51.4442   16.4468 C.3       1 UNK         0.0000 
     31 C31         2.5265   53.5752   17.1865 C.3       1 UNK         0.0000 
     32 O32         3.6691   54.7489   25.4000 O.3       1 UNK         0.0000 
     33 C33         4.1580   54.4295   24.1394 C.ar      1 UNK         0.0000 
     34 C34         5.4973   54.0966   23.9183 C.ar      1 UNK         0.0000 
     35 C35         5.9732   53.8729   22.6374 C.ar      1 UNK         0.0000 
     36 C36         5.1034   53.8877   21.5564 C.ar      1 UNK         0.0000 
     37 C37         3.7629   54.1787   21.7536 C.ar      1 UNK         0.0000 
     38 C38         3.3014   54.4966   23.0311 C.ar      1 UNK         0.0000 
     39 H39         5.9833   52.4972   27.9447 H         1 UNK         0.0000 
     40 H40         6.3107   53.7433   29.1348 H         1 UNK         0.0000 
     41 H41         4.7534   52.9354   29.1209 H         1 UNK         0.0000 
     42 H42         4.5406   55.1940   28.1045 H         1 UNK         0.0000 
     43 H43         7.0041   54.4100   26.5585 H         1 UNK         0.0000 
     44 H44         5.9926   55.8009   26.0947 H         1 UNK         0.0000 
     45 H45         6.7466   55.6976   27.6805 H         1 UNK         0.0000 
     46 H46         2.2327   52.1582   24.7810 H         1 UNK         0.0000 
     47 H47         1.5187   53.8366   24.7151 H         1 UNK         0.0000 
     48 H48        -0.2200   53.4294   27.4727 H         1 UNK         0.0000 
     49 H49         0.4613   52.0458   28.2279 H         1 UNK         0.0000 
     50 H50        -2.1004   51.5346   27.6170 H         1 UNK         0.0000 
     51 H51        -2.3416   52.7509   26.4118 H         1 UNK         0.0000 
     52 H52        -3.8560   50.7226   26.1018 H         1 UNK         0.0000 
     53 H53        -2.7733   50.8468   24.6988 H         1 UNK         0.0000 
     54 H54        -2.3331   49.0881   27.0842 H         1 UNK         0.0000 
     55 H55        -0.5344   48.1100   26.0830 H         1 UNK         0.0000 
     56 H56        -0.7480   49.1160   24.6510 H         1 UNK         0.0000 
     57 H57         1.0865   50.0764   26.2737 H         1 UNK         0.0000 
     58 H58        -0.0913   50.0368   27.5299 H         1 UNK         0.0000 
     59 H59         1.6994   50.5359   24.0461 H         1 UNK         0.0000 
     60 H60         0.1908   49.8239   21.6015 H         1 UNK         0.0000 
     61 H61         0.6902   48.5908   22.6742 H         1 UNK         0.0000 
     62 H62         2.5129   48.5378   21.1140 H         1 UNK         0.0000 
     63 H63         3.1042   49.6785   22.2531 H         1 UNK         0.0000 
     64 H64         3.3087   51.2387   20.6934 H         1 UNK         0.0000 
     65 H65        -0.2289   53.6443   17.2034 H         1 UNK         0.0000 
     66 H66         0.3045   53.6959   18.8807 H         1 UNK         0.0000 
     67 H67        -0.5255   52.2774   18.2729 H         1 UNK         0.0000 
     68 H68         2.3214   50.9036   16.2485 H         1 UNK         0.0000 
     69 H69         0.6352   50.6934   16.6550 H         1 UNK         0.0000 
     70 H70         1.1071   51.9474   15.5238 H         1 UNK         0.0000 
     71 H71         3.5108   53.1795   16.9313 H         1 UNK         0.0000 
     72 H72         2.1530   54.1168   16.3174 H         1 UNK         0.0000 
     73 H73         2.6710   54.2991   17.9900 H         1 UNK         0.0000 
     74 H74         6.2055   54.0099   24.7128 H         1 UNK         0.0000 
     75 H75         7.0247   53.6963   22.4821 H         1 UNK         0.0000 
     76 H76         5.4720   53.6900   20.5597 H         1 UNK         0.0000 
     77 H77         3.1045   54.1987   20.8998 H         1 UNK         0.0000 
     78 H78         2.2762   54.8096   23.1397 H         1 UNK         0.0000 
     79 H79        -2.8437   48.5941   25.6174 H         1 UNK         0.0000 
@<TRIPOS>BOND
     1    1    2 1    
     2    1   39 1    
     3    1   40 1    
     4    1   41 1    
     5    2    3 1    
     6    2    4 1    
     7    2   42 1    
     8    3   43 1    
     9    3   44 1    
    10    3   45 1    
    11    4    5 1    
    12    4    6 1    
    13    4   32 1    
    14    6    7 2    
    15    6    8 am   BACKBONE|DICT|INTERRES
    16    8   13 1    
    17    8    9 1    
    18    9   10 1    
    19    9   46 1    
    20    9   47 1    
    21   10   11 1    
    22   10   12 1    
    23   10   19 1    
    24   12   18 1    
    25   12   13 1    
    26   12   14 1    
    27   13   48 1    
    28   13   49 1    
    29   14   15 1    
    30   14   50 1    
    31   14   51 1    
    32   15   16 1    
    33   15   52 1    
    34   15   53 1    
    35   16   17 1    
    36   16   54 1    
    37   16   79 1    
    38   17   18 1    
    39   17   55 1    
    40   17   56 1    
    41   18   57 1    
    42   18   58 1    
    43   19   20 2    
    44   19   21 am   BACKBONE|DICT|INTERRES
    45   21   22 1    
    46   21   59 1    
    47   22   23 1    
    48   22   60 1    
    49   22   61 1    
    50   23   24 1    
    51   23   62 1    
    52   23   63 1    
    53   24   25 am   BACKBONE|DICT|INTERRES
    54   24   64 1    
    55   25   26 2    
    56   25   27 1    
    57   27   28 1    
    58   28   29 1    
    59   28   30 1    
    60   28   31 1    
    61   29   65 1    
    62   29   66 1    
    63   29   67 1    
    64   30   68 1    
    65   30   69 1    
    66   30   70 1    
    67   31   71 1    
    68   31   72 1    
    69   31   73 1    
    70   32   33 1    
    71   33   38 ar   
    72   33   34 ar   
    73   34   35 ar   
    74   34   74 1    
    75   35   36 ar   
    76   35   75 1    
    77   36   37 ar   
    78   36   76 1    
    79   37   38 ar   
    80   37   77 1    
    81   38   78 1    
@<TRIPOS>SUBSTRUCTURE
     1 UNK         1 GROUP             0       ****    0 ROOT    
