ZINC00648228_3147
                    3D
 Schrodinger Suite 2024-2.
 59 62  0  0  1  0            999 V2000
   -2.3173   44.7554   17.3496 C   0  0  0  0  0  0
   -1.2791   44.2594   16.3404 C   0  0  0  0  0  0
   -1.5402   43.2475   15.6889 O   0  0  0  0  0  0
   -0.0197   45.0548   16.1771 C   0  0  0  0  0  0
    0.8681   44.7438   15.1378 C   0  0  0  0  0  0
    2.0458   45.4699   14.9699 C   0  0  0  0  0  0
    2.3701   46.5021   15.8484 C   0  0  0  0  0  0
    1.5157   46.8155   16.9087 C   0  0  0  0  0  0
    0.3136   46.0986   17.0522 C   0  0  0  0  0  0
    1.9031   47.8695   17.7589 N   0  0  0  0  0  0
    1.5433   48.0388   19.0514 C   0  0  0  0  0  0
    0.8812   47.2116   19.6812 O   0  0  0  0  0  0
    2.0238   49.3187   19.7509 C   0  0  0  0  0  0
    1.2573   49.5774   21.3963 S   0  0  0  0  0  0
    1.9865   51.0984   21.9230 C   0  0  0  0  0  0
    2.9350   51.7332   21.2753 N   0  0  0  0  0  0
    3.2161   52.8952   21.9776 N   0  0  0  0  0  0
    2.4300   52.9179   23.0269 C   0  0  0  0  0  0
    1.5991   51.8106   23.0461 N   0  0  0  0  0  0
    0.6419   51.4561   24.0276 C   0  0  0  0  0  0
   -0.3608   52.3660   24.3861 C   0  0  0  0  0  0
   -1.2792   52.0265   25.3777 C   0  0  0  0  0  0
   -1.1952   50.7847   26.0053 C   0  0  0  0  0  0
   -0.2122   49.8697   25.6412 C   0  0  0  0  0  0
    0.7044   50.2022   24.6474 C   0  0  0  0  0  0
    2.4163   54.0482   24.0434 C   0  0  0  0  0  0
    3.7550   54.4960   24.4284 N   0  0  0  0  0  0
    4.3758   54.1783   25.6489 C   0  0  0  0  0  0
    5.7522   54.4034   25.7435 C   0  0  0  0  0  0
    6.4316   54.1563   26.9341 C   0  0  0  0  0  0
    5.7337   53.6964   28.0498 C   0  0  0  0  0  0
    4.3541   53.4673   27.9817 C   0  0  0  0  0  0
    3.6842   53.7019   26.7734 C   0  0  0  0  0  0
    3.5896   52.9758   29.2122 C   0  0  0  0  0  0
    4.3049   52.0952   29.9096 F   0  0  0  0  0  0
    3.3253   54.0181   29.9991 F   0  0  0  0  0  0
    2.4316   52.3963   28.8872 F   0  0  0  0  0  0
   -1.9191   44.6979   18.3620 H   0  0  0  0  0  0
   -3.2311   44.1660   17.2893 H   0  0  0  0  0  0
   -2.5692   45.7954   17.1445 H   0  0  0  0  0  0
    0.6464   43.9436   14.4425 H   0  0  0  0  0  0
    2.7045   45.2273   14.1538 H   0  0  0  0  0  0
    3.2885   47.0544   15.7066 H   0  0  0  0  0  0
   -0.3672   46.3678   17.8440 H   0  0  0  0  0  0
    2.6068   48.4982   17.3694 H   0  0  0  0  0  0
    3.1046   49.2759   19.8622 H   0  0  0  0  0  0
    1.7942   50.1773   19.1196 H   0  0  0  0  0  0
   -0.4301   53.3326   23.9062 H   0  0  0  0  0  0
   -2.0499   52.7284   25.6656 H   0  0  0  0  0  0
   -1.8981   50.5200   26.7816 H   0  0  0  0  0  0
   -0.1597   48.9101   26.1364 H   0  0  0  0  0  0
    1.4744   49.4865   24.3809 H   0  0  0  0  0  0
    1.9280   54.8966   23.5656 H   0  0  0  0  0  0
    1.7967   53.8236   24.9061 H   0  0  0  0  0  0
    4.3790   54.6399   23.6472 H   0  0  0  0  0  0
    6.3056   54.7695   24.8894 H   0  0  0  0  0  0
    7.4984   54.3213   27.0020 H   0  0  0  0  0  0
    6.2780   53.5191   28.9622 H   0  0  0  0  0  0
    2.6215   53.5355   26.7376 H   0  0  0  0  0  0
  1  2  1  0  0  0
  1 38  1  0  0  0
  1 39  1  0  0  0
  1 40  1  0  0  0
  2  3  2  0  0  0
  2  4  1  0  0  0
  4  9  2  0  0  0
  4  5  1  0  0  0
  5  6  2  0  0  0
  5 41  1  0  0  0
  6  7  1  0  0  0
  6 42  1  0  0  0
  7  8  2  0  0  0
  7 43  1  0  0  0
  8  9  1  0  0  0
  8 10  1  0  0  0
  9 44  1  0  0  0
 10 11  1  0  0  0
 10 45  1  0  0  0
 11 12  2  0  0  0
 11 13  1  0  0  0
 13 14  1  0  0  0
 13 46  1  0  0  0
 13 47  1  0  0  0
 14 15  1  0  0  0
 15 19  1  0  0  0
 15 16  2  0  0  0
 16 17  1  0  0  0
 17 18  2  0  0  0
 18 19  1  0  0  0
 18 26  1  0  0  0
 19 20  1  0  0  0
 20 25  2  0  0  0
 20 21  1  0  0  0
 21 22  2  0  0  0
 21 48  1  0  0  0
 22 23  1  0  0  0
 22 49  1  0  0  0
 23 24  2  0  0  0
 23 50  1  0  0  0
 24 25  1  0  0  0
 24 51  1  0  0  0
 25 52  1  0  0  0
 26 27  1  0  0  0
 26 53  1  0  0  0
 26 54  1  0  0  0
 27 28  1  0  0  0
 27 55  1  0  0  0
 28 33  2  0  0  0
 28 29  1  0  0  0
 29 30  2  0  0  0
 29 56  1  0  0  0
 30 31  1  0  0  0
 30 57  1  0  0  0
 31 32  2  0  0  0
 31 58  1  0  0  0
 32 33  1  0  0  0
 32 34  1  0  0  0
 33 59  1  0  0  0
 34 35  1  0  0  0
 34 36  1  0  0  0
 34 37  1  0  0  0
M  END
> <i_i_glide_confnum>
223

> <i_i_glide_lignum>
3148

> <i_i_glide_posenum>
312

> <i_i_glide_rotatable_bonds>
11

> <i_m_Source_File_Index>
5245

> <b_m_subgroup_collapsed>
0

> <r_i_docking_score>
-6.33648

> <r_i_glide_ecoul>
-6.00476

> <r_i_glide_eff_state_penalty>
0

> <r_i_glide_einternal>
8.92323

> <r_i_glide_emodel>
-71.6166

> <r_i_glide_energy>
-52.3756

> <r_i_glide_erotb>
0.670715

> <r_i_glide_esite>
-0.195839

> <r_i_glide_evdw>
-46.3708

> <r_i_glide_gscore>
-6.33648

> <r_i_glide_hbond>
-0.16

> <r_i_glide_ligand_efficiency>
-0.171256

> <r_i_glide_ligand_efficiency_ln>
-1.37423

> <r_i_glide_ligand_efficiency_sa>
-0.570664

> <r_i_glide_lipo>
-2.29671

> <r_i_glide_metal>
0

> <r_i_glide_rewards>
-1.1354

> <s_i_glide_gridfile>
wee1_glide-grid

> <s_m_Source_File>
wee1_decoys_glide_SP.sdf

> <s_m_Source_Path>
/Users/zhangxujun/Desktop

> <s_m_entry_id>
5520

> <s_m_entry_name>
wee1_decoys_glide_SP.5245

> <s_m_subgroup_title>
wee1_decoys_glide_SP

> <s_m_subgroupid>
wee1_decoys_glide_SP


$$$$
