@<TRIPOS>MOLECULE
ZINC38597733_1191
67   71    1
SMALL
USER_CHARGES


@<TRIPOS>ATOM
      1 C1          1.0915   52.3955   22.3219 C.2       1 UNK         0.0000 
      2 C2          0.4312   52.1886   23.5359 C.2       1 UNK         0.0000 
      3 C3          0.6909   50.8793   23.9241 C.2       1 UNK         0.0000 
      4 O4          1.4716   50.2828   22.9835 O.3       1 UNK         0.0000 
      5 C5          1.7199   51.2011   22.0156 C.2       1 UNK         0.0000 
      6 C6          0.3044   50.0137   25.1118 C.3       1 UNK         0.0000 
      7 H7          1.1030   49.2956   25.3171 H         1 UNK         0.0000 
      8 C8          0.0095   50.7975   26.4262 C.3       1 UNK         0.0000 
      9 N9          1.1038   51.6962   26.8112 N.am      1 UNK         0.0000 
     10 C10         0.9929   52.7935   27.5763 C.2       1 UNK         0.0000 
     11 O11        -0.0913   53.1470   28.0454 O.2       1 UNK         0.0000 
     12 C12         2.3239   53.5587   27.9051 C.3       1 UNK         0.0000 
     13 C13         3.0064   52.7595   29.0701 C.3       1 UNK         0.0000 
     14 C14         3.3393   53.7822   30.1514 C.3       1 UNK         0.0000 
     15 C15         2.1536   54.7457   30.0740 C.3       1 UNK         0.0000 
     16 C16         1.9832   54.9365   28.5668 C.3       1 UNK         0.0000 
     17 C17         3.2411   53.7921   26.6672 C.ar      1 UNK         0.0000 
     18 C18         2.7085   54.0408   25.3917 C.ar      1 UNK         0.0000 
     19 C19         3.5412   54.2568   24.2968 C.ar      1 UNK         0.0000 
     20 C20         4.9221   54.2703   24.4718 C.ar      1 UNK         0.0000 
     21 C21         5.4707   54.0969   25.7380 C.ar      1 UNK         0.0000 
     22 C22         4.6350   53.8669   26.8268 C.ar      1 UNK         0.0000 
     23 Cl23        5.9608   54.5020   23.1132 Cl        1 UNK         0.0000 
     24 N24        -0.8892   49.1344   24.6294 N.4       1 UNK         0.0000 
     25 C25        -0.8543   47.7072   25.2124 C.3       1 UNK         0.0000 
     26 C26        -1.9815   46.8530   24.5913 C.3       1 UNK         0.0000 
     27 N27        -3.3278   47.4340   24.6904 N.pl3     1 UNK         0.0000 
     28 C28        -3.3577   48.8148   24.1823 C.3       1 UNK         0.0000 
     29 C29        -2.2945   49.7575   24.7896 C.3       1 UNK         0.0000 
     30 C30        -4.1438   47.0419   25.7420 C.ar      1 UNK         0.0000 
     31 C31        -4.9877   45.9402   25.5693 C.ar      1 UNK         0.0000 
     32 C32        -5.7843   45.4898   26.6214 C.ar      1 UNK         0.0000 
     33 C33        -5.7274   46.1331   27.8550 C.ar      1 UNK         0.0000 
     34 C34        -4.8819   47.2207   28.0442 C.ar      1 UNK         0.0000 
     35 C35        -4.0956   47.6737   26.9892 C.ar      1 UNK         0.0000 
     36 F36        -6.4907   45.6938   28.8809 F         1 UNK         0.0000 
     37 H37         1.1123   53.3012   21.7314 H         1 UNK         0.0000 
     38 H38        -0.1631   52.9100   24.0781 H         1 UNK         0.0000 
     39 H39         2.3385   50.8736   21.1915 H         1 UNK         0.0000 
     40 H40        -0.1564   50.0978   27.2494 H         1 UNK         0.0000 
     41 H41        -0.9034   51.3860   26.3281 H         1 UNK         0.0000 
     42 H42         2.0277   51.4567   26.4862 H         1 UNK         0.0000 
     43 H43         2.3355   52.0323   29.5376 H         1 UNK         0.0000 
     44 H44         3.8699   52.1711   28.7593 H         1 UNK         0.0000 
     45 H45         3.4574   53.2954   31.1183 H         1 UNK         0.0000 
     46 H46         4.2722   54.3032   29.9261 H         1 UNK         0.0000 
     47 H47         1.2577   54.2892   30.5011 H         1 UNK         0.0000 
     48 H48         2.3057   55.6983   30.5797 H         1 UNK         0.0000 
     49 H49         2.7022   55.6967   28.2533 H         1 UNK         0.0000 
     50 H50         1.0016   55.3455   28.3198 H         1 UNK         0.0000 
     51 H51         1.6405   54.0610   25.2386 H         1 UNK         0.0000 
     52 H52         3.1172   54.4187   23.3166 H         1 UNK         0.0000 
     53 H53         6.5417   54.1216   25.8747 H         1 UNK         0.0000 
     54 H54         5.0967   53.7427   27.7938 H         1 UNK         0.0000 
     55 H55         0.1033   47.2971   24.8829 H         1 UNK         0.0000 
     56 H56        -0.8954   47.7750   26.3012 H         1 UNK         0.0000 
     57 H57        -1.7928   46.7606   23.5203 H         1 UNK         0.0000 
     58 H58        -1.9582   45.8503   25.0169 H         1 UNK         0.0000 
     59 H59        -4.3554   49.2422   24.2952 H         1 UNK         0.0000 
     60 H60        -3.1656   48.7265   23.1120 H         1 UNK         0.0000 
     61 H61        -2.4736   49.9477   25.8471 H         1 UNK         0.0000 
     62 H62        -2.2668   50.6955   24.2331 H         1 UNK         0.0000 
     63 H63        -5.0368   45.4384   24.6136 H         1 UNK         0.0000 
     64 H64        -6.4421   44.6438   26.4855 H         1 UNK         0.0000 
     65 H65        -4.8184   47.7046   29.0075 H         1 UNK         0.0000 
     66 H66        -3.4183   48.4940   27.1696 H         1 UNK         0.0000 
     67 H67        -0.7473   49.0177   23.6351 H         1 UNK         0.0000 
@<TRIPOS>BOND
     1    1    5 2    
     2    1    2 1    
     3    1   37 1    
     4    2    3 2    
     5    2   38 1    
     6    3    4 1    
     7    3    6 1    
     8    4    5 1    
     9    5   39 1    
    10    6    7 1    
    11    6    8 1    
    12    6   24 1    
    13    8    9 1    
    14    8   40 1    
    15    8   41 1    
    16    9   10 am   BACKBONE|DICT|INTERRES
    17    9   42 1    
    18   10   11 2    
    19   10   12 1    
    20   12   16 1    
    21   12   13 1    
    22   12   17 1    
    23   13   14 1    
    24   13   43 1    
    25   13   44 1    
    26   14   15 1    
    27   14   45 1    
    28   14   46 1    
    29   15   16 1    
    30   15   47 1    
    31   15   48 1    
    32   16   49 1    
    33   16   50 1    
    34   17   22 ar   
    35   17   18 ar   
    36   18   19 ar   
    37   18   51 1    
    38   19   20 ar   
    39   19   52 1    
    40   20   21 ar   
    41   20   23 1    
    42   21   22 ar   
    43   21   53 1    
    44   22   54 1    
    45   24   29 1    
    46   24   25 1    
    47   24   67 1    
    48   25   26 1    
    49   25   55 1    
    50   25   56 1    
    51   26   27 1    
    52   26   57 1    
    53   26   58 1    
    54   27   28 1    
    55   27   30 1    
    56   28   29 1    
    57   28   59 1    
    58   28   60 1    
    59   29   61 1    
    60   29   62 1    
    61   30   35 ar   
    62   30   31 ar   
    63   31   32 ar   
    64   31   63 1    
    65   32   33 ar   
    66   32   64 1    
    67   33   34 ar   
    68   33   36 1    
    69   34   35 ar   
    70   34   65 1    
    71   35   66 1    
@<TRIPOS>SUBSTRUCTURE
     1 UNK         1 GROUP             0       ****    0 ROOT    
