@<TRIPOS>MOLECULE
ZINC12229327_6186
49   51    1
SMALL
USER_CHARGES


@<TRIPOS>ATOM
      1 C1          9.2858   55.5263   16.5271 C.3       1 UNK         0.0000 
      2 C2          8.3146   55.2259   17.6431 C.ar      1 UNK         0.0000 
      3 C3          8.3062   55.7034   18.9536 C.ar      1 UNK         0.0000 
      4 C4          7.2238   55.1180   19.6039 C.ar      1 UNK         0.0000 
      5 N5          6.6509   54.3338   18.6111 N.pl3     1 UNK         0.0000 
      6 N6          7.3111   54.4064   17.4445 N.2       1 UNK         0.0000 
      7 C7          5.4875   53.4525   18.6583 C.3       1 UNK         0.0000 
      8 C8          6.8499   55.2985   20.9943 C.2       1 UNK         0.0000 
      9 O9          7.4822   56.0967   21.6814 O.2       1 UNK         0.0000 
     10 N10         5.8241   54.5435   21.4459 N.am      1 UNK         0.0000 
     11 C11         5.3453   54.4355   22.7550 C.2       1 UNK         0.0000 
     12 C12         4.0835   53.9278   23.1339 C.2       1 UNK         0.0000 
     13 C13         3.8873   54.0088   24.5467 C.2       1 UNK         0.0000 
     14 C14         5.0235   54.4767   25.2245 C.2       1 UNK         0.0000 
     15 S15         6.3038   54.8960   24.1459 S.3       1 UNK         0.0000 
     16 C16         5.2050   54.5034   26.7377 C.3       1 UNK         0.0000 
     17 C17         2.9410   53.3743   26.8355 C.3       1 UNK         0.0000 
     18 C18         2.6527   53.5474   25.3315 C.3       1 UNK         0.0000 
     19 C19         3.8318   54.6324   28.9058 C.3       1 UNK         0.0000 
     20 C20         2.5345   55.3033   29.3946 C.3       1 UNK         0.0000 
     21 C21         4.0990   53.2580   29.5615 C.3       1 UNK         0.0000 
     22 C22         3.1648   53.3248   22.1710 C.2       1 UNK         0.0000 
     23 O23         3.5517   52.8713   21.0989 O.2       1 UNK         0.0000 
     24 N24         1.8706   53.3014   22.4836 N.am      1 UNK         0.0000 
     25 H25        10.0719   56.2098   16.8471 H         1 UNK         0.0000 
     26 H26         9.7777   54.6210   16.1686 H         1 UNK         0.0000 
     27 H27         8.7892   55.9863   15.6722 H         1 UNK         0.0000 
     28 H28         9.0271   56.3817   19.3849 H         1 UNK         0.0000 
     29 H29         4.6046   54.0300   18.9316 H         1 UNK         0.0000 
     30 H30         5.3041   52.9861   17.6876 H         1 UNK         0.0000 
     31 H31         5.6599   52.6530   19.3802 H         1 UNK         0.0000 
     32 H32         5.2641   54.0653   20.7506 H         1 UNK         0.0000 
     33 H33         5.7362   55.3907   27.0839 H         1 UNK         0.0000 
     34 H34         5.7100   53.6081   27.1071 H         1 UNK         0.0000 
     35 H35         3.5415   52.4955   27.0496 H         1 UNK         0.0000 
     36 H36         2.0085   53.3338   27.3991 H         1 UNK         0.0000 
     37 H37         2.2648   52.6010   24.9538 H         1 UNK         0.0000 
     38 H38         1.8601   54.2821   25.1983 H         1 UNK         0.0000 
     39 H39         4.6705   55.2967   29.1272 H         1 UNK         0.0000 
     40 H40         2.5366   55.4479   30.4733 H         1 UNK         0.0000 
     41 H41         1.6488   54.7109   29.1597 H         1 UNK         0.0000 
     42 H42         2.4010   56.2894   28.9438 H         1 UNK         0.0000 
     43 H43         4.2542   53.3645   30.6357 H         1 UNK         0.0000 
     44 H44         3.2628   52.5691   29.4322 H         1 UNK         0.0000 
     45 H45         4.9941   52.7777   29.1607 H         1 UNK         0.0000 
     46 H46         1.5262   53.7378   23.3214 H         1 UNK         0.0000 
     47 H47         1.2244   52.9308   21.8016 H         1 UNK         0.0000 
     48 N48         3.7828   54.5610   27.3516 N.4       1 UNK         0.0000 
     49 H49         3.3335   55.4167   27.0527 H         1 UNK         0.0000 
@<TRIPOS>BOND
     1    1    2 1    
     2    1   25 1    
     3    1   26 1    
     4    1   27 1    
     5    2    6 ar   
     6    2    3 ar   
     7    3    4 ar   
     8    3   28 1    
     9    4    5 ar   
    10    4    8 1    
    11    5    6 ar   
    12    5    7 1    
    13    7   29 1    
    14    7   30 1    
    15    7   31 1    
    16    8    9 2    
    17    8   10 am   BACKBONE|DICT|INTERRES
    18   10   11 am   BACKBONE|DICT|INTERRES
    19   10   32 1    
    20   11   15 1    
    21   11   12 2    
    22   12   13 1    
    23   12   22 1    
    24   13   18 1    
    25   13   14 2    
    26   14   15 1    
    27   14   16 1    
    28   16   33 1    
    29   16   34 1    
    30   16   48 1    
    31   17   18 1    
    32   17   35 1    
    33   17   36 1    
    34   17   48 1    
    35   18   37 1    
    36   18   38 1    
    37   19   20 1    
    38   19   21 1    
    39   19   39 1    
    40   19   48 1    
    41   20   40 1    
    42   20   41 1    
    43   20   42 1    
    44   21   43 1    
    45   21   44 1    
    46   21   45 1    
    47   22   23 2    
    48   22   24 am   BACKBONE|DICT|INTERRES
    49   24   46 1    
    50   24   47 1    
    51   48   49 1    
@<TRIPOS>SUBSTRUCTURE
     1 UNK         1 GROUP             0       ****    0 ROOT    
