@<TRIPOS>MOLECULE
ZINC59294520_2382
62   64    1
SMALL
USER_CHARGES


@<TRIPOS>ATOM
      1 C1          5.9307   54.6382   20.3689 C.3       1 UNK         0.0000 
      2 C2          5.0861   53.4991   20.9707 C.3       1 UNK         0.0000 
      3 H3          5.7132   52.9691   21.6894 H         1 UNK         0.0000 
      4 C4          4.6014   52.5353   19.8747 C.3       1 UNK         0.0000 
      5 C5          3.9128   51.2922   20.4746 C.3       1 UNK         0.0000 
      6 C6          2.8211   51.7328   21.4566 C.2       1 UNK         0.0000 
      7 C7          2.8411   53.0288   21.9970 C.2       1 UNK         0.0000 
      8 S8          1.4586   53.3592   22.9547 S.3       1 UNK         0.0000 
      9 C9          0.8748   51.7270   22.7556 C.2       1 UNK         0.0000 
     10 C10         1.6699   50.9908   21.8537 C.2       1 UNK         0.0000 
     11 C11         1.4151   49.6142   21.4646 C.2       1 UNK         0.0000 
     12 O12         2.3040   48.8255   21.1722 O.2       1 UNK         0.0000 
     13 N13         0.1314   49.2529   21.4042 N.am      1 UNK         0.0000 
     14 N14        -0.1582   51.2572   23.5685 N.am      1 UNK         0.0000 
     15 C15        -1.2313   51.9680   23.9783 C.2       1 UNK         0.0000 
     16 O16        -1.6984   52.8966   23.3153 O.2       1 UNK         0.0000 
     17 C17        -1.9770   51.4459   25.2421 C.3       1 UNK         0.0000 
     18 C18        -2.7506   52.5699   25.9800 C.3       1 UNK         0.0000 
     19 C19        -2.9674   50.3310   24.8462 C.3       1 UNK         0.0000 
     20 O20        -1.0713   50.8465   26.1993 O.3       1 UNK         0.0000 
     21 C21        -0.1403   51.5696   26.9374 C.ar      1 UNK         0.0000 
     22 C22        -0.0329   51.2970   28.2970 C.ar      1 UNK         0.0000 
     23 C23         0.9597   51.8931   29.0767 C.ar      1 UNK         0.0000 
     24 C24         1.8881   52.7721   28.5031 C.ar      1 UNK         0.0000 
     25 C25         1.7379   53.0912   27.1526 C.ar      1 UNK         0.0000 
     26 C26         0.7389   52.5045   26.3919 C.ar      1 UNK         0.0000 
     27 C27         3.0567   53.4065   29.2927 C.3       1 UNK         0.0000 
     28 C28         3.2270   52.8056   30.7097 C.3       1 UNK         0.0000 
     29 C29         2.8221   54.9329   29.3958 C.3       1 UNK         0.0000 
     30 C30         4.3996   53.1616   28.5581 C.3       1 UNK         0.0000 
     31 C31         3.8933   54.1015   21.7402 C.3       1 UNK         0.0000 
     32 H32         5.3345   55.2842   19.7210 H         1 UNK         0.0000 
     33 H33         6.3682   55.2640   21.1483 H         1 UNK         0.0000 
     34 H34         6.7489   54.2483   19.7634 H         1 UNK         0.0000 
     35 H35         3.9549   53.0538   19.1641 H         1 UNK         0.0000 
     36 H36         5.4584   52.2200   19.2818 H         1 UNK         0.0000 
     37 H37         4.6464   50.6708   20.9804 H         1 UNK         0.0000 
     38 H38         3.5037   50.6846   19.6663 H         1 UNK         0.0000 
     39 H39        -0.5905   49.9292   21.5972 H         1 UNK         0.0000 
     40 H40        -0.1076   48.3239   21.0976 H         1 UNK         0.0000 
     41 H41        -0.0778   50.3057   23.8973 H         1 UNK         0.0000 
     42 H42        -3.5333   53.0020   25.3547 H         1 UNK         0.0000 
     43 H43        -3.2358   52.1802   26.8767 H         1 UNK         0.0000 
     44 H44        -2.0958   53.3747   26.3040 H         1 UNK         0.0000 
     45 H45        -3.7582   50.7019   24.1925 H         1 UNK         0.0000 
     46 H46        -2.4660   49.5054   24.3393 H         1 UNK         0.0000 
     47 H47        -3.4490   49.9111   25.7303 H         1 UNK         0.0000 
     48 H48        -0.7140   50.5858   28.7422 H         1 UNK         0.0000 
     49 H49         0.9972   51.6360   30.1203 H         1 UNK         0.0000 
     50 H50         2.4027   53.7924   26.6706 H         1 UNK         0.0000 
     51 H51         0.6954   52.8039   25.3725 H         1 UNK         0.0000 
     52 H52         4.0359   53.2943   31.2514 H         1 UNK         0.0000 
     53 H53         3.4767   51.7447   30.6662 H         1 UNK         0.0000 
     54 H54         2.3222   52.8969   31.3111 H         1 UNK         0.0000 
     55 H55         2.5203   55.3715   28.4432 H         1 UNK         0.0000 
     56 H56         2.0406   55.1761   30.1167 H         1 UNK         0.0000 
     57 H57         3.7304   55.4584   29.6818 H         1 UNK         0.0000 
     58 H58         4.4226   53.5908   27.5570 H         1 UNK         0.0000 
     59 H59         5.2402   53.5994   29.0998 H         1 UNK         0.0000 
     60 H60         4.6093   52.0979   28.4630 H         1 UNK         0.0000 
     61 H61         3.4496   54.8966   21.1478 H         1 UNK         0.0000 
     62 H62         4.2406   54.5357   22.6794 H         1 UNK         0.0000 
@<TRIPOS>BOND
     1    1    2 1    
     2    1   32 1    
     3    1   33 1    
     4    1   34 1    
     5    2    3 1    
     6    2   31 1    
     7    2    4 1    
     8    4    5 1    
     9    4   35 1    
    10    4   36 1    
    11    5    6 1    
    12    5   37 1    
    13    5   38 1    
    14    6   10 1    
    15    6    7 2    
    16    7    8 1    
    17    7   31 1    
    18    8    9 1    
    19    9   10 2    
    20    9   14 am   BACKBONE|DICT|INTERRES
    21   10   11 1    
    22   11   12 2    
    23   11   13 am   BACKBONE|DICT|INTERRES
    24   13   39 1    
    25   13   40 1    
    26   14   15 am   BACKBONE|DICT|INTERRES
    27   14   41 1    
    28   15   16 2    
    29   15   17 1    
    30   17   18 1    
    31   17   19 1    
    32   17   20 1    
    33   18   42 1    
    34   18   43 1    
    35   18   44 1    
    36   19   45 1    
    37   19   46 1    
    38   19   47 1    
    39   20   21 1    
    40   21   26 ar   
    41   21   22 ar   
    42   22   23 ar   
    43   22   48 1    
    44   23   24 ar   
    45   23   49 1    
    46   24   25 ar   
    47   24   27 1    
    48   25   26 ar   
    49   25   50 1    
    50   26   51 1    
    51   27   28 1    
    52   27   29 1    
    53   27   30 1    
    54   28   52 1    
    55   28   53 1    
    56   28   54 1    
    57   29   55 1    
    58   29   56 1    
    59   29   57 1    
    60   30   58 1    
    61   30   59 1    
    62   30   60 1    
    63   31   61 1    
    64   31   62 1    
@<TRIPOS>SUBSTRUCTURE
     1 UNK         1 GROUP             0       ****    0 ROOT    
