@<TRIPOS>MOLECULE
ZINC62648944_1393
42   45    1
SMALL
USER_CHARGES


@<TRIPOS>ATOM
      1 C1          4.9378   56.9224   17.6797 C.ar      1 UNK         0.0000 
      2 C2          5.4098   58.1212   17.1582 C.ar      1 UNK         0.0000 
      3 C3          6.7405   58.4864   17.3449 C.ar      1 UNK         0.0000 
      4 C4          7.6177   57.6597   18.0678 C.ar      1 UNK         0.0000 
      5 C5          7.1200   56.4732   18.6638 C.ar      1 UNK         0.0000 
      6 C6          5.7871   56.1118   18.4242 C.ar      1 UNK         0.0000 
      7 C7          7.9606   55.5228   19.5307 C.3       1 UNK         0.0000 
      8 N8          7.8131   55.6972   20.9817 N.am      1 UNK         0.0000 
      9 C9          6.7699   55.2969   21.7310 C.2       1 UNK         0.0000 
     10 O10         5.6779   54.9754   21.2705 O.2       1 UNK         0.0000 
     11 N11         7.1039   55.2503   23.0338 N.am      1 UNK         0.0000 
     12 C12         6.3033   54.9004   24.1114 C.2       1 UNK         0.0000 
     13 N13         6.7044   55.1238   25.3361 N.2       1 UNK         0.0000 
     14 N14         5.7791   54.7246   26.2902 N.2       1 UNK         0.0000 
     15 C15         4.6925   54.1956   25.7715 C.2       1 UNK         0.0000 
     16 S16         4.7413   54.1118   24.0218 S.3       1 UNK         0.0000 
     17 C17         3.5293   53.7056   26.5828 C.ar      1 UNK         0.0000 
     18 C18         3.5765   53.6620   27.9845 C.ar      1 UNK         0.0000 
     19 C19         2.4721   53.1743   28.6859 C.ar      1 UNK         0.0000 
     20 C20         1.3453   52.7485   27.9835 C.ar      1 UNK         0.0000 
     21 C21         1.3609   52.8340   26.5893 C.ar      1 UNK         0.0000 
     22 N22         2.4275   53.3013   25.8913 N.ar      1 UNK         0.0000 
     23 N23         8.9775   58.0485   18.1183 N.pl3     1 UNK         0.0000 
     24 C24        10.0809   57.3121   17.7552 C.ar      1 UNK         0.0000 
     25 C25        11.1767   58.1309   17.9437 C.ar      1 UNK         0.0000 
     26 C26        10.6373   59.3402   18.3871 C.ar      1 UNK         0.0000 
     27 N27         9.3264   59.3014   18.4810 N.2       1 UNK         0.0000 
     28 H28         3.9112   56.6269   17.5251 H         1 UNK         0.0000 
     29 H29         4.7500   58.7701   16.6013 H         1 UNK         0.0000 
     30 H30         7.0797   59.4160   16.9064 H         1 UNK         0.0000 
     31 H31         5.3978   55.1873   18.8246 H         1 UNK         0.0000 
     32 H32         7.7208   54.4922   19.2558 H         1 UNK         0.0000 
     33 H33         9.0189   55.6206   19.3173 H         1 UNK         0.0000 
     34 H34         8.6008   56.1121   21.4568 H         1 UNK         0.0000 
     35 H35         8.0475   55.5242   23.2819 H         1 UNK         0.0000 
     36 H36         4.4544   53.9909   28.5203 H         1 UNK         0.0000 
     37 H37         2.4881   53.1304   29.7637 H         1 UNK         0.0000 
     38 H38         0.4826   52.3565   28.5043 H         1 UNK         0.0000 
     39 H39         0.5088   52.5101   26.0102 H         1 UNK         0.0000 
     40 H40         9.9865   56.2983   17.3950 H         1 UNK         0.0000 
     41 H41        12.2162   57.8889   17.7683 H         1 UNK         0.0000 
     42 H42        11.1970   60.2309   18.6281 H         1 UNK         0.0000 
@<TRIPOS>BOND
     1    1    6 ar   
     2    1    2 ar   
     3    1   28 1    
     4    2    3 ar   
     5    2   29 1    
     6    3    4 ar   
     7    3   30 1    
     8    4    5 ar   
     9    4   23 1    
    10    5    6 ar   
    11    5    7 1    
    12    6   31 1    
    13    7    8 1    
    14    7   32 1    
    15    7   33 1    
    16    8    9 am   BACKBONE|DICT|INTERRES
    17    8   34 1    
    18    9   10 2    
    19    9   11 am   BACKBONE|DICT|INTERRES
    20   11   12 am   BACKBONE|DICT|INTERRES
    21   11   35 1    
    22   12   16 1    
    23   12   13 2    
    24   13   14 1    
    25   14   15 2    
    26   15   16 1    
    27   15   17 1    
    28   17   22 ar   
    29   17   18 ar   
    30   18   19 ar   
    31   18   36 1    
    32   19   20 ar   
    33   19   37 1    
    34   20   21 ar   
    35   20   38 1    
    36   21   22 ar   
    37   21   39 1    
    38   23   27 ar   
    39   23   24 ar   
    40   24   25 ar   
    41   24   40 1    
    42   25   26 ar   
    43   25   41 1    
    44   26   27 ar   
    45   26   42 1    
@<TRIPOS>SUBSTRUCTURE
     1 UNK         1 GROUP             0       ****    0 ROOT    
