@<TRIPOS>MOLECULE
ZINC33960462_5608
57   60    1
SMALL
USER_CHARGES


@<TRIPOS>ATOM
      1 C1          4.2503   54.5154   29.6820 C.3       1 UNK         0.0000 
      2 C2          3.3024   53.6330   28.8621 C.3       1 UNK         0.0000 
      3 C3          3.4249   52.1420   29.2695 C.3       1 UNK         0.0000 
      4 C4          2.1292   51.5215   28.7120 C.3       1 UNK         0.0000 
      5 C5          1.4516   52.7336   28.0205 C.3       1 UNK         0.0000 
      6 C6          1.7651   53.9181   28.9871 C.3       1 UNK         0.0000 
      7 C7          1.3197   55.3256   28.4817 C.3       1 UNK         0.0000 
      8 C8          1.1727   53.7923   30.4272 C.3       1 UNK         0.0000 
      9 C9          2.2558   53.1336   26.7416 C.3       1 UNK         0.0000 
     10 C10         3.5584   53.6952   27.3318 C.2       1 UNK         0.0000 
     11 N11         4.6008   54.1495   26.7565 N.2       1 UNK         0.0000 
     12 O12         4.4902   54.0958   25.3524 O.3       1 UNK         0.0000 
     13 C13         5.6293   54.4970   24.6922 C.2       1 UNK         0.0000 
     14 O14         6.6499   54.9515   25.2287 O.2       1 UNK         0.0000 
     15 C15         5.4803   54.3792   23.2032 C.ar      1 UNK         0.0000 
     16 C16         6.4458   54.9502   22.3638 C.ar      1 UNK         0.0000 
     17 C17         6.3042   54.8966   20.9781 C.ar      1 UNK         0.0000 
     18 C18         5.2201   54.2303   20.4099 C.ar      1 UNK         0.0000 
     19 C19         4.2507   53.6238   21.2211 C.ar      1 UNK         0.0000 
     20 C20         4.3867   53.7209   22.6141 C.ar      1 UNK         0.0000 
     21 N21         3.1054   52.8963   20.6214 N.pl3     1 UNK         0.0000 
     22 O22         3.0559   52.7913   19.4003 O.co2     1 UNK         0.0000 
     23 O23         2.2552   52.4227   21.3722 O.co2     1 UNK         0.0000 
     24 C24        -0.0448   52.3854   27.7766 C.2       1 UNK         0.0000 
     25 O25        -0.8071   52.2705   28.7340 O.2       1 UNK         0.0000 
     26 N26        -0.4182   52.1868   26.4964 N.am      1 UNK         0.0000 
     27 C27        -1.6812   51.8691   25.9678 C.ar      1 UNK         0.0000 
     28 C28        -2.7096   51.2710   26.7154 C.ar      1 UNK         0.0000 
     29 C29        -3.9449   51.0044   26.1253 C.ar      1 UNK         0.0000 
     30 C30        -4.1604   51.3150   24.7838 C.ar      1 UNK         0.0000 
     31 C31        -3.1381   51.8879   24.0297 C.ar      1 UNK         0.0000 
     32 C32        -1.9039   52.1698   24.6144 C.ar      1 UNK         0.0000 
     33 Cl33       -0.6753   52.8967   23.6320 Cl        1 UNK         0.0000 
     34 Cl34       -5.2081   50.2875   27.0565 Cl        1 UNK         0.0000 
     35 H35         4.2330   54.2566   30.7382 H         1 UNK         0.0000 
     36 H36         5.2875   54.4177   29.3577 H         1 UNK         0.0000 
     37 H37         3.9839   55.5669   29.5856 H         1 UNK         0.0000 
     38 H38         4.3372   51.6894   28.8819 H         1 UNK         0.0000 
     39 H39         3.4664   52.0226   30.3529 H         1 UNK         0.0000 
     40 H40         1.5230   51.1096   29.5208 H         1 UNK         0.0000 
     41 H41         2.3044   50.7021   28.0169 H         1 UNK         0.0000 
     42 H42         1.3443   56.0818   29.2676 H         1 UNK         0.0000 
     43 H43         1.9446   55.7201   27.6826 H         1 UNK         0.0000 
     44 H44         0.3052   55.2924   28.0833 H         1 UNK         0.0000 
     45 H45         1.5042   54.6201   31.0477 H         1 UNK         0.0000 
     46 H46         0.0856   53.8577   30.4225 H         1 UNK         0.0000 
     47 H47         1.4303   52.8730   30.9497 H         1 UNK         0.0000 
     48 H48         2.4411   52.2997   26.0687 H         1 UNK         0.0000 
     49 H49         1.7540   53.9073   26.1587 H         1 UNK         0.0000 
     50 H50         7.3014   55.4662   22.7770 H         1 UNK         0.0000 
     51 H51         7.0468   55.3539   20.3405 H         1 UNK         0.0000 
     52 H52         5.1406   54.1824   19.3320 H         1 UNK         0.0000 
     53 H53         3.6201   53.2845   23.2381 H         1 UNK         0.0000 
     54 H54         0.2886   52.3546   25.7971 H         1 UNK         0.0000 
     55 H55        -2.5655   50.9856   27.7465 H         1 UNK         0.0000 
     56 H56        -5.1167   51.1038   24.3274 H         1 UNK         0.0000 
     57 H57        -3.2952   52.1136   22.9875 H         1 UNK         0.0000 
@<TRIPOS>BOND
     1    1    2 1    
     2    1   35 1    
     3    1   36 1    
     4    1   37 1    
     5    2    6 1    
     6    2   10 1    
     7    2    3 1    
     8    3    4 1    
     9    3   38 1    
    10    3   39 1    
    11    4    5 1    
    12    4   40 1    
    13    4   41 1    
    14    5    6 1    
    15    5    9 1    
    16    5   24 1    
    17    6    7 1    
    18    6    8 1    
    19    7   42 1    
    20    7   43 1    
    21    7   44 1    
    22    8   45 1    
    23    8   46 1    
    24    8   47 1    
    25    9   10 1    
    26    9   48 1    
    27    9   49 1    
    28   10   11 2    
    29   11   12 1    
    30   12   13 1    
    31   13   14 2    
    32   13   15 1    
    33   15   20 ar   
    34   15   16 ar   
    35   16   17 ar   
    36   16   50 1    
    37   17   18 ar   
    38   17   51 1    
    39   18   19 ar   
    40   18   52 1    
    41   19   20 ar   
    42   19   21 1    
    43   20   53 1    
    44   21   22 2    
    45   21   23 1    
    46   24   25 2    
    47   24   26 am   BACKBONE|DICT|INTERRES
    48   26   27 1    
    49   26   54 1    
    50   27   32 ar   
    51   27   28 ar   
    52   28   29 ar   
    53   28   55 1    
    54   29   30 ar   
    55   29   34 1    
    56   30   31 ar   
    57   30   56 1    
    58   31   32 ar   
    59   31   57 1    
    60   32   33 1    
@<TRIPOS>SUBSTRUCTURE
     1 UNK         1 GROUP             0       ****    0 ROOT    
