@<TRIPOS>MOLECULE
ZINC35918834_5050
66   69    1
SMALL
USER_CHARGES


@<TRIPOS>ATOM
      1 C1          2.3348   46.1578   16.1866 C.3       1 UNK         0.0000 
      2 C2          1.5052   46.4980   17.4142 C.ar      1 UNK         0.0000 
      3 C3          1.7285   47.6984   18.0960 C.ar      1 UNK         0.0000 
      4 C4          0.9866   48.0341   19.2386 C.ar      1 UNK         0.0000 
      5 C5          0.0089   47.1343   19.6816 C.ar      1 UNK         0.0000 
      6 C6         -0.2204   45.9354   19.0084 C.ar      1 UNK         0.0000 
      7 C7          0.5271   45.6144   17.8780 C.ar      1 UNK         0.0000 
      8 F8          0.3032   44.4397   17.2426 F         1 UNK         0.0000 
      9 C9          1.1853   49.3546   20.0041 C.3       1 UNK         0.0000 
     10 H10         1.3244   49.0054   21.0284 H         1 UNK         0.0000 
     11 C11        -0.0977   50.2176   19.9491 C.3       1 UNK         0.0000 
     12 C12         0.0505   51.5458   20.7172 C.3       1 UNK         0.0000 
     13 H13        -0.8508   52.1551   20.6331 H         1 UNK         0.0000 
     14 C14         1.2303   52.3258   20.0912 C.3       1 UNK         0.0000 
     15 N15         2.4787   51.5338   20.2254 N.am      1 UNK         0.0000 
     16 C16         2.4864   50.1604   19.6485 C.3       1 UNK         0.0000 
     17 C17         3.5943   52.0188   20.8445 C.2       1 UNK         0.0000 
     18 O18         4.4926   51.2964   21.2808 O.2       1 UNK         0.0000 
     19 N19         3.6727   53.3647   20.9412 N.am      1 UNK         0.0000 
     20 C20         4.8218   54.0542   21.3403 C.ar      1 UNK         0.0000 
     21 C21         5.3446   53.9070   22.6285 C.ar      1 UNK         0.0000 
     22 C22         6.4822   54.6195   22.9972 C.ar      1 UNK         0.0000 
     23 C23         7.0844   55.4737   22.0754 C.ar      1 UNK         0.0000 
     24 C24         6.5670   55.6209   20.7894 C.ar      1 UNK         0.0000 
     25 C25         5.4325   54.9039   20.4202 C.ar      1 UNK         0.0000 
     26 C26         0.1793   51.3206   22.2580 C.2       1 UNK         0.0000 
     27 O27        -0.2574   50.2790   22.7541 O.2       1 UNK         0.0000 
     28 N28         0.7355   52.3152   22.9917 N.am      1 UNK         0.0000 
     29 C29         0.8589   52.3855   24.3930 C.ar      1 UNK         0.0000 
     30 C30        -0.0340   51.7623   25.2752 C.ar      1 UNK         0.0000 
     31 C31         0.1284   51.8894   26.6505 C.ar      1 UNK         0.0000 
     32 C32         1.1790   52.6529   27.1827 C.ar      1 UNK         0.0000 
     33 C33         2.0709   53.2969   26.3063 C.ar      1 UNK         0.0000 
     34 C34         1.8992   53.1582   24.9153 C.ar      1 UNK         0.0000 
     35 O35         3.0834   54.0450   26.8826 O.3       1 UNK         0.0000 
     36 C36         4.1082   54.5947   26.0665 C.3       1 UNK         0.0000 
     37 O37         1.3895   52.8084   28.5429 O.3       1 UNK         0.0000 
     38 C38         0.5303   52.1404   29.4632 C.3       1 UNK         0.0000 
     39 H39         1.6957   46.1003   15.3058 H         1 UNK         0.0000 
     40 H40         3.1201   46.8943   16.0025 H         1 UNK         0.0000 
     41 H41         2.8120   45.1837   16.3077 H         1 UNK         0.0000 
     42 H42         2.4841   48.3646   17.7158 H         1 UNK         0.0000 
     43 H43        -0.5833   47.3652   20.5580 H         1 UNK         0.0000 
     44 H44        -0.9786   45.2524   19.3616 H         1 UNK         0.0000 
     45 H45        -0.9941   49.7031   20.3031 H         1 UNK         0.0000 
     46 H46        -0.3476   50.4543   18.9118 H         1 UNK         0.0000 
     47 H47         1.0456   52.4970   19.0315 H         1 UNK         0.0000 
     48 H48         1.2795   53.2959   20.5713 H         1 UNK         0.0000 
     49 H49         3.3260   49.5837   20.0384 H         1 UNK         0.0000 
     50 H50         2.5820   50.2755   18.5664 H         1 UNK         0.0000 
     51 H51         2.9562   53.9110   20.4805 H         1 UNK         0.0000 
     52 H52         4.8745   53.2391   23.3345 H         1 UNK         0.0000 
     53 H53         6.9005   54.5069   23.9865 H         1 UNK         0.0000 
     54 H54         7.9607   56.0350   22.3632 H         1 UNK         0.0000 
     55 H55         7.0443   56.2773   20.0774 H         1 UNK         0.0000 
     56 H56         5.0320   55.0109   19.4221 H         1 UNK         0.0000 
     57 H57         1.1724   53.0680   22.4807 H         1 UNK         0.0000 
     58 H58        -0.8692   51.1819   24.9154 H         1 UNK         0.0000 
     59 H59        -0.5805   51.3839   27.2882 H         1 UNK         0.0000 
     60 H60         2.5736   53.6456   24.2300 H         1 UNK         0.0000 
     61 H61         4.8006   55.1616   26.6898 H         1 UNK         0.0000 
     62 H62         4.6794   53.8046   25.5773 H         1 UNK         0.0000 
     63 H63         3.7122   55.2777   25.3137 H         1 UNK         0.0000 
     64 H64         0.8780   52.3177   30.4808 H         1 UNK         0.0000 
     65 H65         0.5298   51.0624   29.2947 H         1 UNK         0.0000 
     66 H66        -0.4931   52.5120   29.3949 H         1 UNK         0.0000 
@<TRIPOS>BOND
     1    1    2 1    
     2    1   39 1    
     3    1   40 1    
     4    1   41 1    
     5    2    7 ar   
     6    2    3 ar   
     7    3    4 ar   
     8    3   42 1    
     9    4    5 ar   
    10    4    9 1    
    11    5    6 ar   
    12    5   43 1    
    13    6    7 ar   
    14    6   44 1    
    15    7    8 1    
    16    9   10 1    
    17    9   16 1    
    18    9   11 1    
    19   11   12 1    
    20   11   45 1    
    21   11   46 1    
    22   12   13 1    
    23   12   14 1    
    24   12   26 1    
    25   14   15 1    
    26   14   47 1    
    27   14   48 1    
    28   15   16 1    
    29   15   17 am   BACKBONE|DICT|INTERRES
    30   16   49 1    
    31   16   50 1    
    32   17   18 2    
    33   17   19 am   BACKBONE|DICT|INTERRES
    34   19   20 1    
    35   19   51 1    
    36   20   25 ar   
    37   20   21 ar   
    38   21   22 ar   
    39   21   52 1    
    40   22   23 ar   
    41   22   53 1    
    42   23   24 ar   
    43   23   54 1    
    44   24   25 ar   
    45   24   55 1    
    46   25   56 1    
    47   26   27 2    
    48   26   28 am   BACKBONE|DICT|INTERRES
    49   28   29 1    
    50   28   57 1    
    51   29   34 ar   
    52   29   30 ar   
    53   30   31 ar   
    54   30   58 1    
    55   31   32 ar   
    56   31   59 1    
    57   32   33 ar   
    58   32   37 1    
    59   33   34 ar   
    60   33   35 1    
    61   34   60 1    
    62   35   36 1    
    63   36   61 1    
    64   36   62 1    
    65   36   63 1    
    66   37   38 1    
    67   38   64 1    
    68   38   65 1    
    69   38   66 1    
@<TRIPOS>SUBSTRUCTURE
     1 UNK         1 GROUP             0       ****    0 ROOT    
