@<TRIPOS>MOLECULE
ZINC13265990_1991
53   55    1
SMALL
USER_CHARGES


@<TRIPOS>ATOM
      1 C1          0.9866   51.4052   18.5216 C.3       1 UNK         0.0000 
      2 C2          2.4430   51.1689   18.9622 C.3       1 UNK         0.0000 
      3 C3          2.8234   51.8380   20.3080 C.3       1 UNK         0.0000 
      4 H4          2.7031   52.9159   20.1761 H         1 UNK         0.0000 
      5 C5          4.3067   51.6163   20.6538 C.3       1 UNK         0.0000 
      6 N6          1.9300   51.4782   21.4177 N.am      1 UNK         0.0000 
      7 C7          1.8412   50.2902   22.0561 C.2       1 UNK         0.0000 
      8 O8          2.3044   49.2496   21.5971 O.2       1 UNK         0.0000 
      9 N9          1.2676   50.2700   23.2820 N.am      1 UNK         0.0000 
     10 C10         0.5321   51.2192   23.9106 C.2       1 UNK         0.0000 
     11 O11         0.0222   52.1992   23.3591 O.2       1 UNK         0.0000 
     12 C12         0.3262   50.9959   25.4131 C.3       1 UNK         0.0000 
     13 S13         0.2443   52.4967   26.4538 S.3       1 UNK         0.0000 
     14 C14         1.9243   53.2142   26.3492 C.ar      1 UNK         0.0000 
     15 N15         2.4469   53.3424   25.1811 N.2       1 UNK         0.0000 
     16 C16         3.7280   53.8846   25.0130 C.ar      1 UNK         0.0000 
     17 C17         4.2178   54.0669   23.7210 C.ar      1 UNK         0.0000 
     18 C18         5.5212   54.5583   23.5077 C.ar      1 UNK         0.0000 
     19 C19         6.3206   54.8341   24.6308 C.ar      1 UNK         0.0000 
     20 C20         5.8303   54.6710   25.9263 C.ar      1 UNK         0.0000 
     21 C21         4.5240   54.2075   26.1085 C.ar      1 UNK         0.0000 
     22 C22         3.9296   54.0834   27.4931 C.ar      1 UNK         0.0000 
     23 O23         4.5489   54.4134   28.5115 O.2       1 UNK         0.0000 
     24 N24         2.6285   53.6042   27.4888 N.pl3     1 UNK         0.0000 
     25 C25         1.9950   53.5461   28.7505 C.ar      1 UNK         0.0000 
     26 C26         2.2737   52.4930   29.6310 C.ar      1 UNK         0.0000 
     27 C27         1.6720   52.4717   30.8867 C.ar      1 UNK         0.0000 
     28 C28         0.7914   53.4819   31.2535 C.ar      1 UNK         0.0000 
     29 C29         0.5072   54.5203   30.3793 C.ar      1 UNK         0.0000 
     30 C30         1.1045   54.5593   29.1245 C.ar      1 UNK         0.0000 
     31 F31         0.3035   53.5188   32.5099 F         1 UNK         0.0000 
     32 C32         6.0159   54.8957   22.1231 C.2       1 UNK         0.0000 
     33 O33         7.1052   55.5088   22.0182 O.co2     1 UNK         0.0000 
     34 H34         0.8013   50.9490   17.5450 H         1 UNK         0.0000 
     35 H35         0.7665   52.4723   18.4379 H         1 UNK         0.0000 
     36 H36         0.2812   50.9666   19.2286 H         1 UNK         0.0000 
     37 H37         2.6259   50.0933   19.0152 H         1 UNK         0.0000 
     38 H38         3.1057   51.5412   18.1765 H         1 UNK         0.0000 
     39 H39         4.9463   52.0480   19.8813 H         1 UNK         0.0000 
     40 H40         4.5812   52.0792   21.6013 H         1 UNK         0.0000 
     41 H41         4.5486   50.5548   20.7070 H         1 UNK         0.0000 
     42 H42         1.3477   52.2254   21.7729 H         1 UNK         0.0000 
     43 H43         1.4637   49.4310   23.8071 H         1 UNK         0.0000 
     44 H44        -0.6151   50.4597   25.5406 H         1 UNK         0.0000 
     45 H45         1.1042   50.3485   25.8125 H         1 UNK         0.0000 
     46 H46         3.5746   53.8492   22.8804 H         1 UNK         0.0000 
     47 H47         7.3248   55.2141   24.4907 H         1 UNK         0.0000 
     48 H48         6.4638   54.9213   26.7677 H         1 UNK         0.0000 
     49 H49         2.9673   51.7152   29.3473 H         1 UNK         0.0000 
     50 H50         1.9034   51.6958   31.5991 H         1 UNK         0.0000 
     51 H51        -0.1499   55.3057   30.7040 H         1 UNK         0.0000 
     52 H52         0.8931   55.3802   28.4546 H         1 UNK         0.0000 
     53 O53         5.2893   54.5878   21.1516 O.co2     1 UNK         0.0000 
@<TRIPOS>BOND
     1    1    2 1    
     2    1   34 1    
     3    1   35 1    
     4    1   36 1    
     5    2    3 1    
     6    2   37 1    
     7    2   38 1    
     8    3    4 1    
     9    3    5 1    
    10    3    6 1    
    11    5   39 1    
    12    5   40 1    
    13    5   41 1    
    14    6    7 am   BACKBONE|DICT|INTERRES
    15    6   42 1    
    16    7    8 2    
    17    7    9 am   BACKBONE|DICT|INTERRES
    18    9   10 am   BACKBONE|DICT|INTERRES
    19    9   43 1    
    20   10   11 2    
    21   10   12 1    
    22   12   13 1    
    23   12   44 1    
    24   12   45 1    
    25   13   14 1    
    26   14   24 ar   
    27   14   15 ar   
    28   15   16 ar   
    29   16   21 ar   
    30   16   17 ar   
    31   17   18 ar   
    32   17   46 1    
    33   18   19 ar   
    34   18   32 1    
    35   19   20 ar   
    36   19   47 1    
    37   20   21 ar   
    38   20   48 1    
    39   21   22 ar   
    40   22   23 2    
    41   22   24 ar   
    42   24   25 1    
    43   25   30 ar   
    44   25   26 ar   
    45   26   27 ar   
    46   26   49 1    
    47   27   28 ar   
    48   27   50 1    
    49   28   29 ar   
    50   28   31 1    
    51   29   30 ar   
    52   29   51 1    
    53   30   52 1    
    54   32   33 2    
    55   32   53 1    
@<TRIPOS>SUBSTRUCTURE
     1 UNK         1 GROUP             0       ****    0 ROOT    
