ZINC09237616_4367
                    3D
 Schrodinger Suite 2024-2.
 42 45  0  0  1  0            999 V2000
    1.5047   50.6694   17.5266 C   0  0  0  0  0  0
    1.5528   49.9874   18.8763 C   0  0  0  0  0  0
    1.8552   48.7269   19.0641 N   0  0  0  0  0  0
    1.8094   48.4956   20.4343 N   0  0  0  0  0  0
    1.4703   49.6164   21.0183 C   0  0  0  0  0  0
    1.3028   50.6128   20.0757 N   0  0  0  0  0  0
    0.9780   51.9666   20.2622 N   0  0  0  0  0  0
    1.2145   52.4553   21.6258 C   0  0  1  0  0  0
    0.7047   53.4161   21.6444 H   0  0  0  0  0  0
    0.4838   51.5132   22.6370 C   0  0  1  0  0  0
   -0.5450   51.3492   22.3124 H   0  0  0  0  0  0
    1.2528   49.8461   22.7540 S   0  0  0  0  0  0
    0.2759   52.1676   24.0293 C   0  0  0  0  0  0
   -0.2548   53.2808   24.0812 O   0  0  0  0  0  0
    0.7042   51.5032   25.1222 N   0  0  0  0  0  0
    0.6058   51.9410   26.4449 C   0  0  0  0  0  0
    1.7273   52.5378   27.0275 C   0  0  0  0  0  0
    1.7045   52.9179   28.3688 C   0  0  0  0  0  0
    0.5681   52.6827   29.1405 C   0  0  0  0  0  0
   -0.5478   52.0718   28.5682 C   0  0  0  0  0  0
   -0.5416   51.7042   27.2198 C   0  0  0  0  0  0
   -1.9433   50.9363   26.5560 Cl  0  0  0  0  0  0
    0.5454   53.1878   30.9763 Br  0  0  0  0  0  0
    2.6764   52.8080   21.9764 C   0  0  0  0  0  0
    3.7683   52.2068   21.3300 C   0  0  0  0  0  0
    5.0694   52.5660   21.6659 C   0  0  0  0  0  0
    5.2935   53.5232   22.6499 C   0  0  0  0  0  0
    4.2227   54.1179   23.3069 C   0  0  0  0  0  0
    2.9200   53.7751   22.9595 C   0  0  0  0  0  0
    6.5576   53.8706   22.9787 F   0  0  0  0  0  0
    1.7547   49.9815   16.7172 H   0  0  0  0  0  0
    0.5189   51.0806   17.3110 H   0  0  0  0  0  0
    2.2258   51.4845   17.4682 H   0  0  0  0  0  0
    1.5481   52.5216   19.6377 H   0  0  0  0  0  0
    1.1338   50.6029   24.9762 H   0  0  0  0  0  0
    2.6210   52.7070   26.4435 H   0  0  0  0  0  0
    2.5719   53.3860   28.8106 H   0  0  0  0  0  0
   -1.4179   51.8683   29.1754 H   0  0  0  0  0  0
    3.6372   51.4630   20.5605 H   0  0  0  0  0  0
    5.8974   52.0964   21.1585 H   0  0  0  0  0  0
    4.4033   54.8590   24.0720 H   0  0  0  0  0  0
    2.1004   54.2705   23.4602 H   0  0  0  0  0  0
  1  2  1  0  0  0
  1 31  1  0  0  0
  1 32  1  0  0  0
  1 33  1  0  0  0
  2  6  1  0  0  0
  2  3  2  0  0  0
  3  4  1  0  0  0
  4  5  2  0  0  0
  5 12  1  0  0  0
  5  6  1  0  0  0
  6  7  1  0  0  0
  7  8  1  0  0  0
  7 34  1  0  0  0
  8  9  1  0  0  0
  8 10  1  0  0  0
  8 24  1  0  0  0
 10 11  1  0  0  0
 10 12  1  0  0  0
 10 13  1  0  0  0
 13 14  2  0  0  0
 13 15  1  0  0  0
 15 16  1  0  0  0
 15 35  1  0  0  0
 16 21  2  0  0  0
 16 17  1  0  0  0
 17 18  2  0  0  0
 17 36  1  0  0  0
 18 19  1  0  0  0
 18 37  1  0  0  0
 19 20  2  0  0  0
 19 23  1  0  0  0
 20 21  1  0  0  0
 20 38  1  0  0  0
 21 22  1  0  0  0
 24 29  2  0  0  0
 24 25  1  0  0  0
 25 26  2  0  0  0
 25 39  1  0  0  0
 26 27  1  0  0  0
 26 40  1  0  0  0
 27 28  2  0  0  0
 27 30  1  0  0  0
 28 29  1  0  0  0
 28 41  1  0  0  0
 29 42  1  0  0  0
M  END
> <i_i_glide_confnum>
111

> <i_i_glide_lignum>
4368

> <i_i_glide_posenum>
257

> <i_i_glide_rotatable_bonds>
4

> <i_m_Source_File_Index>
1011

> <b_m_subgroup_collapsed>
0

> <r_i_docking_score>
-3.95502

> <r_i_glide_ecoul>
-0.565957

> <r_i_glide_eff_state_penalty>
0

> <r_i_glide_einternal>
6.91677

> <r_i_glide_emodel>
-45.7133

> <r_i_glide_energy>
-38.1371

> <r_i_glide_erotb>
0.348344

> <r_i_glide_esite>
-0.156525

> <r_i_glide_evdw>
-37.5711

> <r_i_glide_gscore>
-3.95502

> <r_i_glide_hbond>
0

> <r_i_glide_ligand_efficiency>
-0.141251

> <r_i_glide_ligand_efficiency_ln>
-0.912935

> <r_i_glide_ligand_efficiency_sa>
-0.42892

> <r_i_glide_lipo>
-1.42722

> <r_i_glide_metal>
0

> <r_i_glide_rewards>
-0.756169

> <s_i_glide_gridfile>
wee1_glide-grid

> <s_m_Source_File>
wee1_decoys_glide_SP.sdf

> <s_m_Source_Path>
/Users/zhangxujun/Desktop

> <s_m_entry_id>
1286

> <s_m_entry_name>
wee1_decoys_glide_SP.1011

> <s_m_subgroup_title>
wee1_decoys_glide_SP

> <s_m_subgroupid>
wee1_decoys_glide_SP


$$$$
