@<TRIPOS>MOLECULE
ZINC39687193_649
67   71    1
SMALL
USER_CHARGES


@<TRIPOS>ATOM
      1 C1          0.2762   49.2646   21.5210 C.3       1 UNK         0.0000 
      2 C2          0.5496   49.9858   22.8588 C.3       1 UNK         0.0000 
      3 H3          1.0592   49.2558   23.4937 H         1 UNK         0.0000 
      4 C4         -0.7362   50.4008   23.6163 C.3       1 UNK         0.0000 
      5 C5         -1.6149   49.2243   24.0300 C.ar      1 UNK         0.0000 
      6 C6         -1.3133   48.5000   25.1884 C.ar      1 UNK         0.0000 
      7 C7         -2.1118   47.4240   25.5743 C.ar      1 UNK         0.0000 
      8 C8         -3.2207   47.0665   24.8092 C.ar      1 UNK         0.0000 
      9 C9         -3.5258   47.7816   23.6515 C.ar      1 UNK         0.0000 
     10 C10        -2.7268   48.8558   23.2601 C.ar      1 UNK         0.0000 
     11 F11        -3.0372   49.5342   22.1304 F         1 UNK         0.0000 
     12 N12         1.5072   51.0904   22.7199 N.am      1 UNK         0.0000 
     13 C13         1.3585   52.2396   22.0238 C.2       1 UNK         0.0000 
     14 O14         0.3546   52.4859   21.3558 O.2       1 UNK         0.0000 
     15 C15         2.5309   53.2542   22.0113 C.3       1 UNK         0.0000 
     16 H16         2.0902   54.1993   21.7310 H         1 UNK         0.0000 
     17 C17         2.9996   53.4481   23.4659 C.3       1 UNK         0.0000 
     18 N18         4.4380   53.6967   23.3846 N.am      1 UNK         0.0000 
     19 C19         4.9258   53.5993   22.0053 C.3       1 UNK         0.0000 
     20 C20         3.7948   52.9850   21.1368 C.3       1 UNK         0.0000 
     21 C21         4.1098   51.4838   20.8401 C.3       1 UNK         0.0000 
     22 C22         3.1590   50.8320   19.7883 C.3       1 UNK         0.0000 
     23 N23         3.1042   51.6961   18.5140 N.4       1 UNK         0.0000 
     24 C24         2.8026   53.1837   18.7701 C.3       1 UNK         0.0000 
     25 C25         3.8554   53.6968   19.7577 C.3       1 UNK         0.0000 
     26 C26         5.2636   54.0985   24.4021 C.2       1 UNK         0.0000 
     27 O27         6.4324   54.4151   24.1613 O.2       1 UNK         0.0000 
     28 C28         4.8112   54.0957   25.8666 C.ar      1 UNK         0.0000 
     29 C29         5.7586   54.2640   26.8889 C.ar      1 UNK         0.0000 
     30 C30         5.3865   54.0988   28.2225 C.ar      1 UNK         0.0000 
     31 C31         4.0504   53.7467   28.5345 C.ar      1 UNK         0.0000 
     32 C32         3.6042   53.4784   29.8509 C.ar      1 UNK         0.0000 
     33 C33         2.2767   53.1162   30.0817 C.ar      1 UNK         0.0000 
     34 C34         1.3705   53.0356   29.0290 C.ar      1 UNK         0.0000 
     35 C35         1.7763   53.3002   27.7224 C.ar      1 UNK         0.0000 
     36 C36         3.1241   53.6447   27.4563 C.ar      1 UNK         0.0000 
     37 N37         3.5091   53.8366   26.1684 N.ar      1 UNK         0.0000 
     38 H38        -0.4251   48.4425   21.6553 H         1 UNK         0.0000 
     39 H39        -0.1738   49.9268   20.7812 H         1 UNK         0.0000 
     40 H40         1.1864   48.8260   21.1120 H         1 UNK         0.0000 
     41 H41        -1.3193   51.1140   23.0311 H         1 UNK         0.0000 
     42 H42        -0.4606   50.9468   24.5194 H         1 UNK         0.0000 
     43 H43        -0.4651   48.7682   25.8044 H         1 UNK         0.0000 
     44 H44        -1.8725   46.8875   26.4818 H         1 UNK         0.0000 
     45 H45        -3.8505   46.2482   25.1231 H         1 UNK         0.0000 
     46 H46        -4.3870   47.5133   23.0582 H         1 UNK         0.0000 
     47 H47         2.3801   50.9598   23.2086 H         1 UNK         0.0000 
     48 H48         2.4738   54.2987   23.9023 H         1 UNK         0.0000 
     49 H49         2.8904   52.5482   24.0705 H         1 UNK         0.0000 
     50 H50         5.9025   53.1328   21.8706 H         1 UNK         0.0000 
     51 H51         5.0550   54.6419   21.7060 H         1 UNK         0.0000 
     52 H52         5.1252   51.3972   20.4537 H         1 UNK         0.0000 
     53 H53         4.1201   50.9010   21.7584 H         1 UNK         0.0000 
     54 H54         3.5047   49.8514   19.4592 H         1 UNK         0.0000 
     55 H55         2.1230   50.7260   20.0871 H         1 UNK         0.0000 
     56 H56         4.0208   51.5717   18.0808 H         1 UNK         0.0000 
     57 H57         2.8673   53.6799   17.8009 H         1 UNK         0.0000 
     58 H58         1.7812   53.2597   19.1445 H         1 UNK         0.0000 
     59 H59         3.7071   54.7699   19.8859 H         1 UNK         0.0000 
     60 H60         4.8507   53.6038   19.3157 H         1 UNK         0.0000 
     61 H61         6.7938   54.4739   26.6602 H         1 UNK         0.0000 
     62 H62         6.1186   54.2050   29.0117 H         1 UNK         0.0000 
     63 H63         4.3043   53.5350   30.6705 H         1 UNK         0.0000 
     64 H64         1.9405   52.8936   31.0851 H         1 UNK         0.0000 
     65 H65         0.3464   52.7559   29.2287 H         1 UNK         0.0000 
     66 H66         1.0690   53.2214   26.9076 H         1 UNK         0.0000 
     67 H67         2.4473   51.2975   17.8581 H         1 UNK         0.0000 
@<TRIPOS>BOND
     1    1    2 1    
     2    1   38 1    
     3    1   39 1    
     4    1   40 1    
     5    2    3 1    
     6    2    4 1    
     7    2   12 1    
     8    4    5 1    
     9    4   41 1    
    10    4   42 1    
    11    5   10 ar   
    12    5    6 ar   
    13    6    7 ar   
    14    6   43 1    
    15    7    8 ar   
    16    7   44 1    
    17    8    9 ar   
    18    8   45 1    
    19    9   10 ar   
    20    9   46 1    
    21   10   11 1    
    22   12   13 am   BACKBONE|DICT|INTERRES
    23   12   47 1    
    24   13   14 2    
    25   13   15 1    
    26   15   16 1    
    27   15   20 1    
    28   15   17 1    
    29   17   18 1    
    30   17   48 1    
    31   17   49 1    
    32   18   19 1    
    33   18   26 am   BACKBONE|DICT|INTERRES
    34   19   20 1    
    35   19   50 1    
    36   19   51 1    
    37   20   25 1    
    38   20   21 1    
    39   21   22 1    
    40   21   52 1    
    41   21   53 1    
    42   22   23 1    
    43   22   54 1    
    44   22   55 1    
    45   23   24 1    
    46   23   56 1    
    47   23   67 1    
    48   24   25 1    
    49   24   57 1    
    50   24   58 1    
    51   25   59 1    
    52   25   60 1    
    53   26   27 2    
    54   26   28 1    
    55   28   37 ar   
    56   28   29 ar   
    57   29   30 ar   
    58   29   61 1    
    59   30   31 ar   
    60   30   62 1    
    61   31   36 ar   
    62   31   32 ar   
    63   32   33 ar   
    64   32   63 1    
    65   33   34 ar   
    66   33   64 1    
    67   34   35 ar   
    68   34   65 1    
    69   35   36 ar   
    70   35   66 1    
    71   36   37 ar   
@<TRIPOS>SUBSTRUCTURE
     1 UNK         1 GROUP             0       ****    0 ROOT    
