@<TRIPOS>MOLECULE
ZINC42649485_3779
43   47    1
SMALL
USER_CHARGES


@<TRIPOS>ATOM
      1 C1          6.6920   55.0801   21.7399 C.ar      1 UNK         0.0000 
      2 C2          5.9044   54.5330   20.7260 C.ar      1 UNK         0.0000 
      3 C3          4.7835   53.7735   21.0866 C.ar      1 UNK         0.0000 
      4 C4          3.7880   53.0216   20.3963 C.ar      1 UNK         0.0000 
      5 N5          2.9093   52.5163   21.2211 N.2       1 UNK         0.0000 
      6 N6          3.2738   52.8971   22.4574 N.pl3     1 UNK         0.0000 
      7 H7          2.7254   52.6059   23.2521 H         1 UNK         0.0000 
      8 C8          4.4450   53.6360   22.4561 C.ar      1 UNK         0.0000 
      9 C9          5.2191   54.1974   23.4844 C.ar      1 UNK         0.0000 
     10 C10         6.3686   54.8967   23.0827 C.ar      1 UNK         0.0000 
     11 N11         4.7634   54.1427   24.8116 N.am      1 UNK         0.0000 
     12 C12         5.4262   54.3852   25.9619 C.2       1 UNK         0.0000 
     13 O13         6.6547   54.4485   26.0545 O.2       1 UNK         0.0000 
     14 C14         4.5503   54.6521   27.2147 C.3       1 UNK         0.0000 
     15 C15         5.0257   53.9845   28.5269 C.3       1 UNK         0.0000 
     16 C16         4.6134   52.5140   28.5645 C.3       1 UNK         0.0000 
     17 C17         3.0688   52.3543   28.4503 C.3       1 UNK         0.0000 
     18 C18         2.3783   53.0725   29.6331 C.3       1 UNK         0.0000 
     19 C19         2.7587   54.5697   29.5855 C.3       1 UNK         0.0000 
     20 C20         4.3044   54.6831   29.6817 C.3       1 UNK         0.0000 
     21 C21         2.2730   55.1783   28.2488 C.3       1 UNK         0.0000 
     22 C22         3.0044   54.4769   27.0683 C.3       1 UNK         0.0000 
     23 C23         2.6003   52.9882   27.1108 C.3       1 UNK         0.0000 
     24 H24         7.5762   55.6472   21.4849 H         1 UNK         0.0000 
     25 H25         6.1722   54.6638   19.6875 H         1 UNK         0.0000 
     26 H26         3.7042   52.8559   19.3315 H         1 UNK         0.0000 
     27 H27         7.0093   55.3660   23.8142 H         1 UNK         0.0000 
     28 H28         3.7747   53.9772   24.9088 H         1 UNK         0.0000 
     29 H29         4.8099   55.6967   27.3293 H         1 UNK         0.0000 
     30 H30         6.1069   54.0815   28.6535 H         1 UNK         0.0000 
     31 H31         5.1162   52.0967   27.7035 H         1 UNK         0.0000 
     32 H32         4.9998   52.0123   29.4524 H         1 UNK         0.0000 
     33 H33         2.7987   51.2970   28.4700 H         1 UNK         0.0000 
     34 H34         1.2953   52.9496   29.5755 H         1 UNK         0.0000 
     35 H35         2.6843   52.6266   30.5808 H         1 UNK         0.0000 
     36 H36         2.2869   55.1003   30.4138 H         1 UNK         0.0000 
     37 H37         4.6396   54.2780   30.6326 H         1 UNK         0.0000 
     38 H38         4.6177   55.7124   29.6817 H         1 UNK         0.0000 
     39 H39         2.4300   56.2529   28.2503 H         1 UNK         0.0000 
     40 H40         1.1928   55.0555   28.1496 H         1 UNK         0.0000 
     41 H41         2.7044   54.8967   26.1174 H         1 UNK         0.0000 
     42 H42         1.5214   52.8747   26.9915 H         1 UNK         0.0000 
     43 H43         3.0491   52.4967   26.2542 H         1 UNK         0.0000 
@<TRIPOS>BOND
     1    1   10 ar   
     2    1    2 ar   
     3    1   24 1    
     4    2    3 ar   
     5    2   25 1    
     6    3    8 ar   
     7    3    4 ar   
     8    4    5 ar   
     9    4   26 1    
    10    5    6 ar   
    11    6    7 1    
    12    6    8 ar   
    13    8    9 ar   
    14    9   10 ar   
    15    9   11 1    
    16   10   27 1    
    17   11   12 am   BACKBONE|DICT|INTERRES
    18   11   28 1    
    19   12   13 2    
    20   12   14 1    
    21   14   22 1    
    22   14   15 1    
    23   14   29 1    
    24   15   20 1    
    25   15   16 1    
    26   15   30 1    
    27   16   17 1    
    28   16   31 1    
    29   16   32 1    
    30   17   23 1    
    31   17   18 1    
    32   17   33 1    
    33   18   19 1    
    34   18   34 1    
    35   18   35 1    
    36   19   20 1    
    37   19   21 1    
    38   19   36 1    
    39   20   37 1    
    40   20   38 1    
    41   21   22 1    
    42   21   39 1    
    43   21   40 1    
    44   22   23 1    
    45   22   41 1    
    46   23   42 1    
    47   23   43 1    
@<TRIPOS>SUBSTRUCTURE
     1 UNK         1 GROUP             0       ****    0 ROOT    
