ZINC54107659_6172
                    3D
 Schrodinger Suite 2024-2.
 36 38  0  0  1  0            999 V2000
    0.3983   51.3243   27.6424 C   0  0  0  0  0  0
   -0.7159   50.8967   26.9239 C   0  0  0  0  0  0
   -0.9966   51.4123   25.6638 C   0  0  0  0  0  0
   -0.1238   52.3437   25.0725 C   0  0  0  0  0  0
    0.9982   52.7578   25.7965 C   0  0  0  0  0  0
    1.2597   52.2729   27.0790 C   0  0  0  0  0  0
    2.3894   52.8114   27.7054 N   0  0  0  0  0  0
    2.9517   52.5583   28.9047 C   0  0  0  0  0  0
    2.5790   51.6967   29.6952 O   0  0  0  0  0  0
    4.1622   53.4453   29.2817 C   0  0  1  0  0  0
    4.3043   53.3289   30.3566 H   0  0  0  0  0  0
    5.4172   53.1413   28.4715 C   0  0  0  0  0  0
    5.3445   54.0505   27.2440 C   0  0  0  0  0  0
    4.2242   54.8967   27.4969 O   0  0  0  0  0  0
    3.9194   54.8967   28.8932 C   0  0  0  0  0  0
   -0.3970   52.8966   23.6858 C   0  0  0  0  0  0
   -1.8659   52.6798   23.2817 C   0  0  0  0  0  0
   -2.3317   51.2453   23.5839 C   0  0  0  0  0  0
   -2.1500   50.9443   25.0038 N   0  0  0  0  0  0
    0.5625   50.9100   28.6250 H   0  0  0  0  0  0
   -1.3787   50.1587   27.3474 H   0  0  0  0  0  0
    1.6647   53.4827   25.3498 H   0  0  0  0  0  0
    2.8618   53.5362   27.1811 H   0  0  0  0  0  0
    5.5040   52.0967   28.1952 H   0  0  0  0  0  0
    6.3168   53.3769   29.0395 H   0  0  0  0  0  0
    5.1803   53.4769   26.3306 H   0  0  0  0  0  0
    6.2551   54.6425   27.1383 H   0  0  0  0  0  0
    4.5699   55.5886   29.4281 H   0  0  0  0  0  0
    2.9002   55.2512   29.0606 H   0  0  0  0  0  0
   -0.1486   53.9588   23.6817 H   0  0  0  0  0  0
    0.2608   52.4009   22.9704 H   0  0  0  0  0  0
   -2.0027   52.8967   22.2226 H   0  0  0  0  0  0
   -2.5039   53.3853   23.8174 H   0  0  0  0  0  0
   -1.6994   50.5308   23.0540 H   0  0  0  0  0  0
   -3.3628   51.0661   23.2773 H   0  0  0  0  0  0
   -2.5580   50.0717   25.3098 H   0  0  0  0  0  0
  1  6  2  0  0  0
  1  2  1  0  0  0
  1 20  1  0  0  0
  2  3  2  0  0  0
  2 21  1  0  0  0
  3 19  1  0  0  0
  3  4  1  0  0  0
  4  5  2  0  0  0
  4 16  1  0  0  0
  5  6  1  0  0  0
  5 22  1  0  0  0
  6  7  1  0  0  0
  7  8  1  0  0  0
  7 23  1  0  0  0
  8  9  2  0  0  0
  8 10  1  0  0  0
 10 11  1  0  0  0
 10 15  1  0  0  0
 10 12  1  0  0  0
 12 13  1  0  0  0
 12 24  1  0  0  0
 12 25  1  0  0  0
 13 14  1  0  0  0
 13 26  1  0  0  0
 13 27  1  0  0  0
 14 15  1  0  0  0
 15 28  1  0  0  0
 15 29  1  0  0  0
 16 17  1  0  0  0
 16 30  1  0  0  0
 16 31  1  0  0  0
 17 18  1  0  0  0
 17 32  1  0  0  0
 17 33  1  0  0  0
 18 19  1  0  0  0
 18 34  1  0  0  0
 18 35  1  0  0  0
 19 36  1  0  0  0
M  END
> <i_i_glide_confnum>
98

> <i_i_glide_lignum>
6173

> <i_i_glide_posenum>
320

> <i_i_glide_rotatable_bonds>
3

> <i_m_Source_File_Index>
1204

> <b_m_subgroup_collapsed>
0

> <r_i_docking_score>
-4.56274

> <r_i_glide_ecoul>
-3.49635

> <r_i_glide_eff_state_penalty>
0

> <r_i_glide_einternal>
3.0677

> <r_i_glide_emodel>
-35.5881

> <r_i_glide_energy>
-26.4098

> <r_i_glide_erotb>
0.861699

> <r_i_glide_esite>
-0.01315

> <r_i_glide_evdw>
-22.9134

> <r_i_glide_gscore>
-4.56274

> <r_i_glide_hbond>
-0.273263

> <r_i_glide_ligand_efficiency>
-0.253486

> <r_i_glide_ligand_efficiency_ln>
-1.17283

> <r_i_glide_ligand_efficiency_sa>
-0.66432

> <r_i_glide_lipo>
-1.4728

> <r_i_glide_metal>
0

> <r_i_glide_rewards>
-1.9951

> <s_i_glide_gridfile>
wee1_glide-grid

> <s_m_Source_File>
wee1_decoys_glide_SP.sdf

> <s_m_Source_Path>
/Users/zhangxujun/Desktop

> <s_m_entry_id>
1479

> <s_m_entry_name>
wee1_decoys_glide_SP.1204

> <s_m_subgroup_title>
wee1_decoys_glide_SP

> <s_m_subgroupid>
wee1_decoys_glide_SP


$$$$
