@<TRIPOS>MOLECULE
ZINC12250161_428
62   65    1
SMALL
USER_CHARGES


@<TRIPOS>ATOM
      1 C1          1.7361   53.9695   23.9186 C.3       1 UNK         0.0000 
      2 C2          3.1834   54.0708   24.3894 C.ar      1 UNK         0.0000 
      3 C3          3.4403   54.1112   25.7632 C.ar      1 UNK         0.0000 
      4 C4          4.7422   54.2422   26.2376 C.ar      1 UNK         0.0000 
      5 C5          5.8023   54.3301   25.3410 C.ar      1 UNK         0.0000 
      6 C6          5.5780   54.2589   23.9630 C.ar      1 UNK         0.0000 
      7 C7          4.2585   54.1007   23.4791 C.ar      1 UNK         0.0000 
      8 N8          3.9684   54.0038   22.1043 N.am      1 UNK         0.0000 
      9 C9          4.3822   53.0026   21.3021 C.2       1 UNK         0.0000 
     10 O10         5.1044   52.0788   21.6802 O.2       1 UNK         0.0000 
     11 C11         3.8690   53.0837   19.9474 C.2       1 UNK         0.0000 
     12 C12         3.1954   52.0427   19.3808 C.2       1 UNK         0.0000 
     13 N13         2.7046   52.1498   18.1007 N.pl3     1 UNK         0.0000 
     14 C14         2.8542   53.2548   17.2988 C.2       1 UNK         0.0000 
     15 C15         3.5036   54.3484   17.7558 C.2       1 UNK         0.0000 
     16 C16         4.1162   54.4120   19.1692 C.3       1 UNK         0.0000 
     17 H17         3.5682   55.1993   19.6805 H         1 UNK         0.0000 
     18 C18         5.5852   54.8110   19.0907 C.2       1 UNK         0.0000 
     19 C19         6.3048   55.9230   19.5101 C.2       1 UNK         0.0000 
     20 C20         7.6339   55.7182   19.1346 C.2       1 UNK         0.0000 
     21 C21         7.6665   54.4973   18.4842 C.2       1 UNK         0.0000 
     22 O22         6.4281   53.9424   18.4695 O.3       1 UNK         0.0000 
     23 C23         3.6679   55.4865   16.9083 C.1       1 UNK         0.0000 
     24 N24         3.7953   56.4286   16.2489 N.1       1 UNK         0.0000 
     25 S25         2.1203   53.0992   15.6664 S.3       1 UNK         0.0000 
     26 C26         2.1466   51.3191   15.2493 C.3       1 UNK         0.0000 
     27 C27         1.0620   50.5002   15.9570 C.2       1 UNK         0.0000 
     28 O28        -0.1200   50.7985   15.7897 O.2       1 UNK         0.0000 
     29 N29         1.5044   49.4891   16.7321 N.am      1 UNK         0.0000 
     30 C30         0.7827   48.6246   17.5725 C.ar      1 UNK         0.0000 
     31 C31         1.4790   47.5063   18.0363 C.ar      1 UNK         0.0000 
     32 C32         0.8522   46.5961   18.8824 C.ar      1 UNK         0.0000 
     33 C33        -0.4641   46.8124   19.2806 C.ar      1 UNK         0.0000 
     34 C34        -1.1631   47.9319   18.8362 C.ar      1 UNK         0.0000 
     35 C35        -0.5427   48.8406   17.9831 C.ar      1 UNK         0.0000 
     36 C36         2.8446   50.6953   20.0086 C.3       1 UNK         0.0000 
     37 C37         6.7815   54.4164   23.0440 C.3       1 UNK         0.0000 
     38 H38         1.0468   53.7809   24.7422 H         1 UNK         0.0000 
     39 H39         1.4400   54.8912   23.4156 H         1 UNK         0.0000 
     40 H40         1.6222   53.1504   23.2078 H         1 UNK         0.0000 
     41 H41         2.6263   54.0608   26.4721 H         1 UNK         0.0000 
     42 H42         4.9291   54.2847   27.3007 H         1 UNK         0.0000 
     43 H43         6.8060   54.4455   25.7226 H         1 UNK         0.0000 
     44 H44         3.2362   54.5997   21.7494 H         1 UNK         0.0000 
     45 H45         2.2853   51.3259   17.6977 H         1 UNK         0.0000 
     46 H46         5.9059   56.7833   20.0256 H         1 UNK         0.0000 
     47 H47         8.4716   56.3794   19.3036 H         1 UNK         0.0000 
     48 H48         8.4538   53.9193   18.0220 H         1 UNK         0.0000 
     49 H49         3.1462   50.9155   15.4149 H         1 UNK         0.0000 
     50 H50         1.9519   51.2323   14.1808 H         1 UNK         0.0000 
     51 H51         2.5091   49.2971   16.6907 H         1 UNK         0.0000 
     52 H52         2.5061   47.3386   17.7403 H         1 UNK         0.0000 
     53 H53         1.3886   45.7295   19.2362 H         1 UNK         0.0000 
     54 H54        -0.9451   46.1086   19.9436 H         1 UNK         0.0000 
     55 H55        -2.1818   48.0976   19.1539 H         1 UNK         0.0000 
     56 H56        -1.1041   49.7061   17.6685 H         1 UNK         0.0000 
     57 H57         1.7695   50.5176   19.9564 H         1 UNK         0.0000 
     58 H58         3.3450   49.8928   19.4641 H         1 UNK         0.0000 
     59 H59         3.1310   50.6091   21.0559 H         1 UNK         0.0000 
     60 H60         7.4940   55.1249   23.4655 H         1 UNK         0.0000 
     61 H61         7.2872   53.4611   22.9098 H         1 UNK         0.0000 
     62 H62         6.5059   54.8179   22.0706 H         1 UNK         0.0000 
@<TRIPOS>BOND
     1    1    2 1    
     2    1   38 1    
     3    1   39 1    
     4    1   40 1    
     5    2    7 ar   
     6    2    3 ar   
     7    3    4 ar   
     8    3   41 1    
     9    4    5 ar   
    10    4   42 1    
    11    5    6 ar   
    12    5   43 1    
    13    6    7 ar   
    14    6   37 1    
    15    7    8 1    
    16    8    9 am   BACKBONE|DICT|INTERRES
    17    8   44 1    
    18    9   10 2    
    19    9   11 1    
    20   11   16 1    
    21   11   12 2    
    22   12   13 1    
    23   12   36 1    
    24   13   14 1    
    25   13   45 1    
    26   14   15 2    
    27   14   25 1    
    28   15   16 1    
    29   15   23 1    
    30   16   17 1    
    31   16   18 1    
    32   18   22 1    
    33   18   19 2    
    34   19   20 1    
    35   19   46 1    
    36   20   21 2    
    37   20   47 1    
    38   21   22 1    
    39   21   48 1    
    40   23   24 3    
    41   25   26 1    
    42   26   27 1    
    43   26   49 1    
    44   26   50 1    
    45   27   28 2    
    46   27   29 am   BACKBONE|DICT|INTERRES
    47   29   30 1    
    48   29   51 1    
    49   30   35 ar   
    50   30   31 ar   
    51   31   32 ar   
    52   31   52 1    
    53   32   33 ar   
    54   32   53 1    
    55   33   34 ar   
    56   33   54 1    
    57   34   35 ar   
    58   34   55 1    
    59   35   56 1    
    60   36   57 1    
    61   36   58 1    
    62   36   59 1    
    63   37   60 1    
    64   37   61 1    
    65   37   62 1    
@<TRIPOS>SUBSTRUCTURE
     1 UNK         1 GROUP             0       ****    0 ROOT    
