@<TRIPOS>MOLECULE
ZINC34785235_4494
66   70    1
SMALL
USER_CHARGES


@<TRIPOS>ATOM
      1 C1         -5.6350   50.7505   26.5986 C.ar      1 UNK         0.0000 
      2 C2         -4.6230   50.8726   27.5505 C.ar      1 UNK         0.0000 
      3 C3         -3.3230   50.4970   27.2234 C.ar      1 UNK         0.0000 
      4 C4         -3.0339   50.0006   25.9495 C.ar      1 UNK         0.0000 
      5 C5         -4.0570   49.8696   25.0039 C.ar      1 UNK         0.0000 
      6 C6         -5.3575   50.2508   25.3283 C.ar      1 UNK         0.0000 
      7 C7         -1.6032   49.6102   25.5895 C.3       1 UNK         0.0000 
      8 C8         -0.9729   50.4928   24.4871 C.3       1 UNK         0.0000 
      9 C9         -0.9470   51.9844   24.8651 C.3       1 UNK         0.0000 
     10 C10        -0.4490   52.8377   23.6891 C.3       1 UNK         0.0000 
     11 N11         0.9175   52.3688   23.3317 N.am      1 UNK         0.0000 
     12 C12         1.0809   50.9199   23.0190 C.3       1 UNK         0.0000 
     13 C13         0.4869   50.1051   24.1930 C.3       1 UNK         0.0000 
     14 C14         1.8834   53.3095   23.1166 C.2       1 UNK         0.0000 
     15 O15         1.6664   54.5029   23.2817 O.2       1 UNK         0.0000 
     16 N16         3.1046   52.8633   22.7619 N.am      1 UNK         0.0000 
     17 C17         4.1774   53.6756   22.4162 C.ar      1 UNK         0.0000 
     18 C18         5.1537   54.2808   23.2527 C.ar      1 UNK         0.0000 
     19 N19         6.0617   54.8961   22.5238 N.2       1 UNK         0.0000 
     20 N20         5.7036   54.7561   21.2367 N.pl3     1 UNK         0.0000 
     21 C21         4.5839   53.9543   21.1149 C.ar      1 UNK         0.0000 
     22 N22         4.0624   53.5681   19.9083 N.pl3     1 UNK         0.0000 
     23 C23         6.4569   55.4152   20.2293 C.ar      1 UNK         0.0000 
     24 C24         7.8558   55.4367   20.2869 C.ar      1 UNK         0.0000 
     25 C25         8.5830   56.1017   19.3068 C.ar      1 UNK         0.0000 
     26 C26         7.9264   56.7755   18.2737 C.ar      1 UNK         0.0000 
     27 C27         6.5290   56.7555   18.2159 C.ar      1 UNK         0.0000 
     28 C28         5.7988   56.0748   19.1863 C.ar      1 UNK         0.0000 
     29 C29         8.7475   57.5357   17.2330 C.3       1 UNK         0.0000 
     30 F30         9.4412   58.5044   17.8327 F         1 UNK         0.0000 
     31 F31         7.9860   58.0928   16.2891 F         1 UNK         0.0000 
     32 F32         9.6025   56.7026   16.6385 F         1 UNK         0.0000 
     33 C33         5.2813   54.3204   24.7498 C.ar      1 UNK         0.0000 
     34 C34         4.1549   54.4477   25.5702 C.ar      1 UNK         0.0000 
     35 C35         4.2871   54.4939   26.9543 C.ar      1 UNK         0.0000 
     36 C36         5.5520   54.4278   27.5317 C.ar      1 UNK         0.0000 
     37 C37         6.6869   54.3200   26.7339 C.ar      1 UNK         0.0000 
     38 C38         6.5512   54.2689   25.3470 C.ar      1 UNK         0.0000 
     39 H39        -6.6427   51.0414   26.8523 H         1 UNK         0.0000 
     40 H40        -4.8447   51.2479   28.5385 H         1 UNK         0.0000 
     41 H41        -2.5408   50.5775   27.9673 H         1 UNK         0.0000 
     42 H42        -3.8440   49.4803   24.0192 H         1 UNK         0.0000 
     43 H43        -6.1497   50.1545   24.5996 H         1 UNK         0.0000 
     44 H44        -1.6061   48.5664   25.2750 H         1 UNK         0.0000 
     45 H45        -0.9767   49.6388   26.4817 H         1 UNK         0.0000 
     46 H46        -1.5487   50.3761   23.5687 H         1 UNK         0.0000 
     47 H47        -0.3593   52.1596   25.7695 H         1 UNK         0.0000 
     48 H48        -1.9485   52.3191   25.1323 H         1 UNK         0.0000 
     49 H49        -0.4802   53.8785   24.0191 H         1 UNK         0.0000 
     50 H50        -1.1049   52.7061   22.8262 H         1 UNK         0.0000 
     51 H51         0.5348   50.6995   22.1014 H         1 UNK         0.0000 
     52 H52         2.1229   50.6144   22.9170 H         1 UNK         0.0000 
     53 H53         0.5433   49.0401   23.9603 H         1 UNK         0.0000 
     54 H54         1.1020   50.2085   25.0893 H         1 UNK         0.0000 
     55 H55         3.2160   51.8772   22.5952 H         1 UNK         0.0000 
     56 H56         3.1677   53.1026   19.8410 H         1 UNK         0.0000 
     57 H57         4.5657   53.6957   19.0410 H         1 UNK         0.0000 
     58 H58         8.3837   54.9420   21.0897 H         1 UNK         0.0000 
     59 H59         9.6624   56.1118   19.3567 H         1 UNK         0.0000 
     60 H60         5.9969   57.2676   17.4255 H         1 UNK         0.0000 
     61 H61         4.7183   56.0790   19.1269 H         1 UNK         0.0000 
     62 H62         3.1694   54.5341   25.1501 H         1 UNK         0.0000 
     63 H63         3.4110   54.5914   27.5796 H         1 UNK         0.0000 
     64 H64         5.6574   54.4726   28.6076 H         1 UNK         0.0000 
     65 H65         7.6632   54.2763   27.1966 H         1 UNK         0.0000 
     66 H66         7.4364   54.1829   24.7311 H         1 UNK         0.0000 
@<TRIPOS>BOND
     1    1    6 ar   
     2    1    2 ar   
     3    1   39 1    
     4    2    3 ar   
     5    2   40 1    
     6    3    4 ar   
     7    3   41 1    
     8    4    5 ar   
     9    4    7 1    
    10    5    6 ar   
    11    5   42 1    
    12    6   43 1    
    13    7    8 1    
    14    7   44 1    
    15    7   45 1    
    16    8   13 1    
    17    8    9 1    
    18    8   46 1    
    19    9   10 1    
    20    9   47 1    
    21    9   48 1    
    22   10   11 1    
    23   10   49 1    
    24   10   50 1    
    25   11   12 1    
    26   11   14 am   BACKBONE|DICT|INTERRES
    27   12   13 1    
    28   12   51 1    
    29   12   52 1    
    30   13   53 1    
    31   13   54 1    
    32   14   15 2    
    33   14   16 am   BACKBONE|DICT|INTERRES
    34   16   17 1    
    35   16   55 1    
    36   17   21 ar   
    37   17   18 ar   
    38   18   19 ar   
    39   18   33 1    
    40   19   20 ar   
    41   20   21 ar   
    42   20   23 1    
    43   21   22 1    
    44   22   56 1    
    45   22   57 1    
    46   23   28 ar   
    47   23   24 ar   
    48   24   25 ar   
    49   24   58 1    
    50   25   26 ar   
    51   25   59 1    
    52   26   27 ar   
    53   26   29 1    
    54   27   28 ar   
    55   27   60 1    
    56   28   61 1    
    57   29   30 1    
    58   29   31 1    
    59   29   32 1    
    60   33   38 ar   
    61   33   34 ar   
    62   34   35 ar   
    63   34   62 1    
    64   35   36 ar   
    65   35   63 1    
    66   36   37 ar   
    67   36   64 1    
    68   37   38 ar   
    69   37   65 1    
    70   38   66 1    
@<TRIPOS>SUBSTRUCTURE
     1 UNK         1 GROUP             0       ****    0 ROOT    
