@<TRIPOS>MOLECULE
ZINC03007134_5423
69   72    1
SMALL
USER_CHARGES


@<TRIPOS>ATOM
      1 C1         10.4872   49.2887   14.5369 C.3       1 UNK         0.0000 
      2 C2          9.9924   50.7102   14.2182 C.3       1 UNK         0.0000 
      3 C3          8.5042   50.8952   14.5860 C.3       1 UNK         0.0000 
      4 C4          8.0021   52.3142   14.2516 C.3       1 UNK         0.0000 
      5 N5          8.8772   53.3344   14.8852 N.pl3     1 UNK         0.0000 
      6 C6         10.3352   53.2110   14.6218 C.3       1 UNK         0.0000 
      7 C7         10.8301   51.7859   14.9462 C.3       1 UNK         0.0000 
      8 S8          8.2118   54.9653   15.0688 S.o2      1 UNK         0.0000 
      9 O9          6.9484   55.0505   14.3257 O.2       1 UNK         0.0000 
     10 O10         9.2861   55.9446   14.8506 O.2       1 UNK         0.0000 
     11 C11         7.7979   55.0455   16.8067 C.ar      1 UNK         0.0000 
     12 C12         6.5125   54.7082   17.2353 C.ar      1 UNK         0.0000 
     13 C13         6.1928   54.7820   18.5887 C.ar      1 UNK         0.0000 
     14 C14         7.1592   55.1866   19.5230 C.ar      1 UNK         0.0000 
     15 C15         8.4511   55.5031   19.0767 C.ar      1 UNK         0.0000 
     16 C16         8.7701   55.4323   17.7267 C.ar      1 UNK         0.0000 
     17 C17         6.8401   55.3045   20.9945 C.2       1 UNK         0.0000 
     18 O18         7.4823   56.0940   21.6831 O.2       1 UNK         0.0000 
     19 N19         5.8356   54.5313   21.4558 N.am      1 UNK         0.0000 
     20 C20         5.3555   54.4124   22.7611 C.2       1 UNK         0.0000 
     21 C21         4.0971   53.8691   23.1067 C.2       1 UNK         0.0000 
     22 C22         3.8970   53.9712   24.5219 C.2       1 UNK         0.0000 
     23 C23         5.0255   54.4409   25.2103 C.2       1 UNK         0.0000 
     24 S24         6.3043   54.8885   24.1477 S.3       1 UNK         0.0000 
     25 C25         5.1928   54.4571   26.7207 C.3       1 UNK         0.0000 
     26 C26         2.9005   53.3881   26.8129 C.3       1 UNK         0.0000 
     27 C27         2.6476   53.5245   25.2965 C.3       1 UNK         0.0000 
     28 C28         3.8152   54.6355   28.8772 C.3       1 UNK         0.0000 
     29 C29         2.5257   55.3216   29.3729 C.3       1 UNK         0.0000 
     30 C30         4.0796   53.2646   29.5409 C.3       1 UNK         0.0000 
     31 C31         3.1660   53.3013   22.1022 C.2       1 UNK         0.0000 
     32 O32         3.5048   53.0368   20.9449 O.2       1 UNK         0.0000 
     33 O33         1.9206   53.1114   22.5857 O.3       1 UNK         0.0000 
     34 C34         0.9055   52.5285   21.7796 C.3       1 UNK         0.0000 
     35 H35        10.4377   49.0824   15.6076 H         1 UNK         0.0000 
     36 H36         9.8865   48.5350   14.0266 H         1 UNK         0.0000 
     37 H37        11.5209   49.1522   14.2148 H         1 UNK         0.0000 
     38 H38        10.0909   50.8843   13.1450 H         1 UNK         0.0000 
     39 H39         8.3521   50.6963   15.6476 H         1 UNK         0.0000 
     40 H40         7.9029   50.1442   14.0711 H         1 UNK         0.0000 
     41 H41         6.9715   52.4458   14.5864 H         1 UNK         0.0000 
     42 H42         8.0791   52.4214   13.1680 H         1 UNK         0.0000 
     43 H43        10.4984   53.3544   13.5534 H         1 UNK         0.0000 
     44 H44        10.8839   53.9493   15.2084 H         1 UNK         0.0000 
     45 H45        11.8848   51.6763   14.6834 H         1 UNK         0.0000 
     46 H46        10.7934   51.6190   16.0252 H         1 UNK         0.0000 
     47 H47         5.7606   54.3961   16.5249 H         1 UNK         0.0000 
     48 H48         5.1853   54.5332   18.8861 H         1 UNK         0.0000 
     49 H49         9.2198   55.8100   19.7732 H         1 UNK         0.0000 
     50 H50         9.7702   55.6817   17.4018 H         1 UNK         0.0000 
     51 H51         5.2478   54.0947   20.7588 H         1 UNK         0.0000 
     52 H52         5.7459   55.3271   27.0780 H         1 UNK         0.0000 
     53 H53         5.6725   53.5511   27.0925 H         1 UNK         0.0000 
     54 H54         3.4620   52.4941   27.0611 H         1 UNK         0.0000 
     55 H55         1.9525   53.3920   27.3527 H         1 UNK         0.0000 
     56 H56         2.2733   52.5670   24.9361 H         1 UNK         0.0000 
     57 H57         1.8536   54.2491   25.1158 H         1 UNK         0.0000 
     58 H58         4.6592   55.2967   29.0934 H         1 UNK         0.0000 
     59 H59         2.5419   55.4738   30.4502 H         1 UNK         0.0000 
     60 H60         1.6308   54.7383   29.1529 H         1 UNK         0.0000 
     61 H61         2.3975   56.3061   28.9183 H         1 UNK         0.0000 
     62 H62         4.2776   53.3811   30.6063 H         1 UNK         0.0000 
     63 H63         3.2309   52.5864   29.4409 H         1 UNK         0.0000 
     64 H64         4.9544   52.7675   29.1186 H         1 UNK         0.0000 
     65 H65        -0.0226   52.4574   22.3475 H         1 UNK         0.0000 
     66 H66         0.7110   53.1299   20.8913 H         1 UNK         0.0000 
     67 H67         1.1830   51.5226   21.4606 H         1 UNK         0.0000 
     68 N68         3.7676   54.5556   27.3229 N.4       1 UNK         0.0000 
     69 H69         3.3453   55.4193   27.0096 H         1 UNK         0.0000 
@<TRIPOS>BOND
     1    1    2 1    
     2    1   35 1    
     3    1   36 1    
     4    1   37 1    
     5    2    7 1    
     6    2    3 1    
     7    2   38 1    
     8    3    4 1    
     9    3   39 1    
    10    3   40 1    
    11    4    5 1    
    12    4   41 1    
    13    4   42 1    
    14    5    6 1    
    15    5    8 1    
    16    6    7 1    
    17    6   43 1    
    18    6   44 1    
    19    7   45 1    
    20    7   46 1    
    21    8    9 2    
    22    8   10 2    
    23    8   11 1    
    24   11   16 ar   
    25   11   12 ar   
    26   12   13 ar   
    27   12   47 1    
    28   13   14 ar   
    29   13   48 1    
    30   14   15 ar   
    31   14   17 1    
    32   15   16 ar   
    33   15   49 1    
    34   16   50 1    
    35   17   18 2    
    36   17   19 am   BACKBONE|DICT|INTERRES
    37   19   20 am   BACKBONE|DICT|INTERRES
    38   19   51 1    
    39   20   24 1    
    40   20   21 2    
    41   21   22 1    
    42   21   31 1    
    43   22   27 1    
    44   22   23 2    
    45   23   24 1    
    46   23   25 1    
    47   25   52 1    
    48   25   53 1    
    49   25   68 1    
    50   26   27 1    
    51   26   54 1    
    52   26   55 1    
    53   26   68 1    
    54   27   56 1    
    55   27   57 1    
    56   28   29 1    
    57   28   30 1    
    58   28   58 1    
    59   28   68 1    
    60   29   59 1    
    61   29   60 1    
    62   29   61 1    
    63   30   62 1    
    64   30   63 1    
    65   30   64 1    
    66   31   32 2    
    67   31   33 1    
    68   33   34 1    
    69   34   65 1    
    70   34   66 1    
    71   34   67 1    
    72   68   69 1    
@<TRIPOS>SUBSTRUCTURE
     1 UNK         1 GROUP             0       ****    0 ROOT    
