@<TRIPOS>MOLECULE
ZINC14111086_2131
59   62    1
SMALL
USER_CHARGES


@<TRIPOS>ATOM
      1 C1         -0.0933   52.6076   30.5829 C.ar      1 UNK         0.0000 
      2 C2          0.9869   53.3765   30.1586 C.ar      1 UNK         0.0000 
      3 C3          1.3762   53.3884   28.8129 C.ar      1 UNK         0.0000 
      4 C4          0.6085   52.6498   27.8959 C.ar      1 UNK         0.0000 
      5 C5         -0.4609   51.8496   28.3213 C.ar      1 UNK         0.0000 
      6 C6         -0.8090   51.8344   29.6714 C.ar      1 UNK         0.0000 
      7 N7         -1.2179   51.0635   27.4403 N.am      1 UNK         0.0000 
      8 C8         -0.8023   50.4964   26.2907 C.2       1 UNK         0.0000 
      9 O9          0.3570   50.5297   25.8765 O.2       1 UNK         0.0000 
     10 C10        -1.8673   49.7395   25.4875 C.3       1 UNK         0.0000 
     11 C11        -2.2135   50.3842   24.1158 C.3       1 UNK         0.0000 
     12 N12        -1.0662   50.6246   23.2210 N.am      1 UNK         0.0000 
     13 C13        -0.5501   49.6449   22.4261 C.2       1 UNK         0.0000 
     14 O14        -0.8756   48.4588   22.3591 O.2       1 UNK         0.0000 
     15 C15         0.4728   50.3390   21.5481 C.3       1 UNK         0.0000 
     16 H16        -0.0713   50.6134   20.6395 H         1 UNK         0.0000 
     17 C17         1.7344   49.5987   21.0586 C.3       1 UNK         0.0000 
     18 C18         2.5540   50.5947   20.1894 C.3       1 UNK         0.0000 
     19 C19         2.8049   51.9657   20.8834 C.3       1 UNK         0.0000 
     20 C20         1.5230   52.5989   21.4939 C.3       1 UNK         0.0000 
     21 C21         0.8512   51.5275   22.3724 C.3       1 UNK         0.0000 
     22 H22         1.5885   51.2908   23.1475 H         1 UNK         0.0000 
     23 C23        -0.4237   51.8258   23.1350 C.2       1 UNK         0.0000 
     24 O24        -0.7216   52.8963   23.6683 O.2       1 UNK         0.0000 
     25 C25         2.6208   54.1354   28.3845 C.2       1 UNK         0.0000 
     26 O26         3.1986   54.8961   29.1656 O.2       1 UNK         0.0000 
     27 N27         3.0443   53.8556   27.1324 N.am      1 UNK         0.0000 
     28 C28         4.2489   54.1807   26.5016 C.ar      1 UNK         0.0000 
     29 C29         5.4301   54.4966   27.1869 C.ar      1 UNK         0.0000 
     30 C30         6.6007   54.7445   26.4741 C.ar      1 UNK         0.0000 
     31 C31         6.5992   54.6818   25.0783 C.ar      1 UNK         0.0000 
     32 C32         5.4331   54.3470   24.3822 C.ar      1 UNK         0.0000 
     33 C33         4.2606   54.0981   25.1056 C.ar      1 UNK         0.0000 
     34 C34         5.4417   54.2302   22.8576 C.3       1 UNK         0.0000 
     35 F35         6.3307   55.0623   22.3098 F         1 UNK         0.0000 
     36 F36         5.7697   52.9835   22.5252 F         1 UNK         0.0000 
     37 F37         4.2425   54.4965   22.3376 F         1 UNK         0.0000 
     38 H38        -0.3651   52.5981   31.6283 H         1 UNK         0.0000 
     39 H39         1.5279   53.9517   30.8931 H         1 UNK         0.0000 
     40 H40         0.8428   52.6757   26.8438 H         1 UNK         0.0000 
     41 H41        -1.6252   51.2192   30.0279 H         1 UNK         0.0000 
     42 H42        -2.0960   50.7238   27.8009 H         1 UNK         0.0000 
     43 H43        -2.7625   49.5041   26.0648 H         1 UNK         0.0000 
     44 H44        -1.3881   48.7763   25.2988 H         1 UNK         0.0000 
     45 H45        -2.6728   51.3520   24.3231 H         1 UNK         0.0000 
     46 H46        -2.9930   49.8088   23.6130 H         1 UNK         0.0000 
     47 H47         1.4826   48.7499   20.4198 H         1 UNK         0.0000 
     48 H48         2.3747   49.2972   21.8915 H         1 UNK         0.0000 
     49 H49         3.5045   50.1453   19.9008 H         1 UNK         0.0000 
     50 H50         2.0259   50.7709   19.2506 H         1 UNK         0.0000 
     51 H51         3.5427   51.8221   21.6740 H         1 UNK         0.0000 
     52 H52         3.2606   52.6608   20.1759 H         1 UNK         0.0000 
     53 H53         1.8346   53.4648   22.0803 H         1 UNK         0.0000 
     54 H54         0.8867   52.8943   20.6579 H         1 UNK         0.0000 
     55 H55         2.4259   53.2872   26.5752 H         1 UNK         0.0000 
     56 H56         5.4652   54.5330   28.2653 H         1 UNK         0.0000 
     57 H57         7.5044   54.9690   27.0195 H         1 UNK         0.0000 
     58 H58         7.5048   54.8777   24.5281 H         1 UNK         0.0000 
     59 H59         3.3587   53.8245   24.5769 H         1 UNK         0.0000 
@<TRIPOS>BOND
     1    1    6 ar   
     2    1    2 ar   
     3    1   38 1    
     4    2    3 ar   
     5    2   39 1    
     6    3    4 ar   
     7    3   25 1    
     8    4    5 ar   
     9    4   40 1    
    10    5    6 ar   
    11    5    7 1    
    12    6   41 1    
    13    7    8 am   BACKBONE|DICT|INTERRES
    14    7   42 1    
    15    8    9 2    
    16    8   10 1    
    17   10   11 1    
    18   10   43 1    
    19   10   44 1    
    20   11   12 1    
    21   11   45 1    
    22   11   46 1    
    23   12   23 am   BACKBONE|DICT|INTERRES
    24   12   13 am   BACKBONE|DICT|INTERRES
    25   13   14 2    
    26   13   15 1    
    27   15   16 1    
    28   15   21 1    
    29   15   17 1    
    30   17   18 1    
    31   17   47 1    
    32   17   48 1    
    33   18   19 1    
    34   18   49 1    
    35   18   50 1    
    36   19   20 1    
    37   19   51 1    
    38   19   52 1    
    39   20   21 1    
    40   20   53 1    
    41   20   54 1    
    42   21   22 1    
    43   21   23 1    
    44   23   24 2    
    45   25   26 2    
    46   25   27 am   BACKBONE|DICT|INTERRES
    47   27   28 1    
    48   27   55 1    
    49   28   33 ar   
    50   28   29 ar   
    51   29   30 ar   
    52   29   56 1    
    53   30   31 ar   
    54   30   57 1    
    55   31   32 ar   
    56   31   58 1    
    57   32   33 ar   
    58   32   34 1    
    59   33   59 1    
    60   34   35 1    
    61   34   36 1    
    62   34   37 1    
@<TRIPOS>SUBSTRUCTURE
     1 UNK         1 GROUP             0       ****    0 ROOT    
