@<TRIPOS>MOLECULE
ZINC02349493_4259
56   60    1
SMALL
USER_CHARGES


@<TRIPOS>ATOM
      1 C1          5.5024   54.3680   23.2178 C.ar      1 UNK         0.0000 
      2 C2          5.7637   54.9433   24.4601 C.ar      1 UNK         0.0000 
      3 C3          4.8137   54.8970   25.4794 C.ar      1 UNK         0.0000 
      4 C4          3.6032   54.1911   25.2826 C.ar      1 UNK         0.0000 
      5 C5          3.3584   53.5580   24.0286 C.ar      1 UNK         0.0000 
      6 C6          4.3026   53.6968   22.9821 C.ar      1 UNK         0.0000 
      7 N7          2.2809   52.7328   23.8826 N.ar      1 UNK         0.0000 
      8 C8          1.4866   52.4909   24.9338 C.ar      1 UNK         0.0000 
      9 C9          0.4559   51.5182   25.1634 C.ar      1 UNK         0.0000 
     10 C10        -0.0630   51.8323   26.4266 C.ar      1 UNK         0.0000 
     11 N11         0.6380   52.8965   26.9849 N.pl3     1 UNK         0.0000 
     12 C12         1.6841   53.2153   26.1310 C.ar      1 UNK         0.0000 
     13 N13         2.7040   54.0631   26.2967 N.ar      1 UNK         0.0000 
     14 C14         0.2613   53.6241   28.2119 C.3       1 UNK         0.0000 
     15 C15         0.9142   53.1029   29.5016 C.3       1 UNK         0.0000 
     16 C16         2.4255   53.2168   29.5290 C.2       1 UNK         0.0000 
     17 C17         3.1916   52.1105   29.5455 C.2       1 UNK         0.0000 
     18 C18         4.7044   52.1214   29.5128 C.3       1 UNK         0.0000 
     19 C19         5.2114   53.4031   28.8425 C.3       1 UNK         0.0000 
     20 C20         4.5713   54.6431   29.4700 C.3       1 UNK         0.0000 
     21 C21         3.0250   54.6297   29.4773 C.3       1 UNK         0.0000 
     22 N22        -1.1039   51.2626   27.1151 N.pl3     1 UNK         0.0000 
     23 C23        -0.0074   50.4771   24.2910 C.2       1 UNK         0.0000 
     24 O24        -0.2278   50.6895   23.0994 O.2       1 UNK         0.0000 
     25 N25        -0.0739   49.2696   24.8777 N.am      1 UNK         0.0000 
     26 C26        -0.3223   48.0093   24.1831 C.3       1 UNK         0.0000 
     27 C27        -1.6951   47.4551   24.4869 C.2       1 UNK         0.0000 
     28 C28        -2.1896   46.9346   25.6816 C.2       1 UNK         0.0000 
     29 C29        -3.5144   46.4975   25.6214 C.2       1 UNK         0.0000 
     30 C30        -4.0647   46.6656   24.3641 C.2       1 UNK         0.0000 
     31 S31        -2.9351   47.3834   23.2649 S.3       1 UNK         0.0000 
     32 H32         6.2411   54.4366   22.4326 H         1 UNK         0.0000 
     33 H33         6.7003   55.4573   24.6198 H         1 UNK         0.0000 
     34 H34         5.0124   55.3583   26.4350 H         1 UNK         0.0000 
     35 H35         4.1176   53.2216   22.0286 H         1 UNK         0.0000 
     36 H36         0.4715   54.6858   28.0818 H         1 UNK         0.0000 
     37 H37        -0.8201   53.5682   28.3076 H         1 UNK         0.0000 
     38 H38         0.5320   53.6738   30.3488 H         1 UNK         0.0000 
     39 H39         0.5877   52.0773   29.6869 H         1 UNK         0.0000 
     40 H40         2.6879   51.1581   29.5427 H         1 UNK         0.0000 
     41 H41         5.1002   51.9804   30.5157 H         1 UNK         0.0000 
     42 H42         5.0840   51.2967   28.9337 H         1 UNK         0.0000 
     43 H43         6.2999   53.4625   28.8817 H         1 UNK         0.0000 
     44 H44         4.9625   53.3612   27.7830 H         1 UNK         0.0000 
     45 H45         4.9456   55.5177   28.9572 H         1 UNK         0.0000 
     46 H46         4.9281   54.7495   30.4817 H         1 UNK         0.0000 
     47 H47         2.6682   55.1251   28.5784 H         1 UNK         0.0000 
     48 H48         2.6145   55.2648   30.2623 H         1 UNK         0.0000 
     49 H49        -1.5576   50.4202   26.7829 H         1 UNK         0.0000 
     50 H50        -1.2938   51.4934   28.0788 H         1 UNK         0.0000 
     51 H51         0.0904   49.2079   25.8727 H         1 UNK         0.0000 
     52 H52         0.4245   47.3051   24.5498 H         1 UNK         0.0000 
     53 H53        -0.1362   48.0967   23.1105 H         1 UNK         0.0000 
     54 H54        -1.6004   46.8927   26.5869 H         1 UNK         0.0000 
     55 H55        -4.0452   46.0863   26.4685 H         1 UNK         0.0000 
     56 H56        -5.0675   46.4294   24.0402 H         1 UNK         0.0000 
@<TRIPOS>BOND
     1    1    6 ar   
     2    1    2 ar   
     3    1   32 1    
     4    2    3 ar   
     5    2   33 1    
     6    3    4 ar   
     7    3   34 1    
     8    4   13 ar   
     9    4    5 ar   
    10    5    6 ar   
    11    5    7 ar   
    12    6   35 1    
    13    7    8 ar   
    14    8   12 ar   
    15    8    9 ar   
    16    9   10 ar   
    17    9   23 1    
    18   10   11 ar   
    19   10   22 1    
    20   11   12 ar   
    21   11   14 1    
    22   12   13 ar   
    23   14   15 1    
    24   14   36 1    
    25   14   37 1    
    26   15   16 1    
    27   15   38 1    
    28   15   39 1    
    29   16   21 1    
    30   16   17 2    
    31   17   18 1    
    32   17   40 1    
    33   18   19 1    
    34   18   41 1    
    35   18   42 1    
    36   19   20 1    
    37   19   43 1    
    38   19   44 1    
    39   20   21 1    
    40   20   45 1    
    41   20   46 1    
    42   21   47 1    
    43   21   48 1    
    44   22   49 1    
    45   22   50 1    
    46   23   24 2    
    47   23   25 am   BACKBONE|DICT|INTERRES
    48   25   26 1    
    49   25   51 1    
    50   26   27 1    
    51   26   52 1    
    52   26   53 1    
    53   27   31 1    
    54   27   28 2    
    55   28   29 1    
    56   28   54 1    
    57   29   30 2    
    58   29   55 1    
    59   30   31 1    
    60   30   56 1    
@<TRIPOS>SUBSTRUCTURE
     1 UNK         1 GROUP             0       ****    0 ROOT    
