@<TRIPOS>MOLECULE
ZINC39210897_2824
45   49    1
SMALL
USER_CHARGES


@<TRIPOS>ATOM
      1 C1         -0.4766   52.0979   19.0641 C.ar      1 UNK         0.0000 
      2 C2         -0.3023   51.9826   17.6878 C.ar      1 UNK         0.0000 
      3 C3         -1.1439   51.1547   16.9507 C.ar      1 UNK         0.0000 
      4 C4         -2.1601   50.4409   17.5788 C.ar      1 UNK         0.0000 
      5 C5         -2.3357   50.5531   18.9559 C.ar      1 UNK         0.0000 
      6 C6         -1.4922   51.3809   19.7114 C.ar      1 UNK         0.0000 
      7 C7         -1.6836   51.4979   21.1715 C.2       1 UNK         0.0000 
      8 N8         -2.7807   51.2967   21.7757 N.2       1 UNK         0.0000 
      9 N9         -2.7112   51.6074   23.0012 N.2       1 UNK         0.0000 
     10 C10        -1.5514   52.0015   23.2951 C.2       1 UNK         0.0000 
     11 C11        -0.5856   51.8978   22.1489 C.3       1 UNK         0.0000 
     12 H12        -0.2137   52.8929   21.8941 H         1 UNK         0.0000 
     13 C13         0.6244   50.9175   22.4042 C.3       1 UNK         0.0000 
     14 H14         0.2689   50.1033   23.0402 H         1 UNK         0.0000 
     15 C15         1.9044   51.5043   23.1040 C.3       1 UNK         0.0000 
     16 H16         2.5396   50.6882   23.4501 H         1 UNK         0.0000 
     17 C17         1.9043   52.6447   24.1074 C.2       1 UNK         0.0000 
     18 N18         2.4588   53.6871   23.6198 N.2       1 UNK         0.0000 
     19 N19         2.9073   53.4975   22.4402 N.2       1 UNK         0.0000 
     20 C20         2.6407   52.3219   22.0803 C.2       1 UNK         0.0000 
     21 O21         2.9021   51.8033   20.8341 O.3       1 UNK         0.0000 
     22 C22         2.1735   50.7159   20.4444 C.2       1 UNK         0.0000 
     23 C23         1.1076   50.2117   21.1160 C.2       1 UNK         0.0000 
     24 C24         0.4386   49.0391   20.6511 C.1       1 UNK         0.0000 
     25 N25        -0.1015   48.0952   20.2577 N.1       1 UNK         0.0000 
     26 N26         2.7044   50.2386   19.2787 N.pl3     1 UNK         0.0000 
     27 C27         1.4389   52.5025   25.5058 C.ar      1 UNK         0.0000 
     28 C28         0.6108   51.4415   25.9012 C.ar      1 UNK         0.0000 
     29 C29         0.2005   51.3184   27.2272 C.ar      1 UNK         0.0000 
     30 C30         0.6274   52.2486   28.1709 C.ar      1 UNK         0.0000 
     31 C31         1.4760   53.2886   27.8027 C.ar      1 UNK         0.0000 
     32 C32         1.8885   53.4095   26.4784 C.ar      1 UNK         0.0000 
     33 Br33        0.0524   52.0975   29.9787 Br        1 UNK         0.0000 
     34 F34        -0.9748   51.0448   15.6142 F         1 UNK         0.0000 
     35 H35         0.1940   52.7454   19.6121 H         1 UNK         0.0000 
     36 H36         0.4856   52.5307   17.1918 H         1 UNK         0.0000 
     37 H37        -2.8063   49.7999   16.9973 H         1 UNK         0.0000 
     38 H38        -3.1244   49.9847   19.4296 H         1 UNK         0.0000 
     39 H39        -1.3055   52.3756   24.2831 H         1 UNK         0.0000 
     40 H40         3.6396   50.4966   18.9703 H         1 UNK         0.0000 
     41 H41         2.2546   49.4997   18.7575 H         1 UNK         0.0000 
     42 H42         0.2765   50.6943   25.1990 H         1 UNK         0.0000 
     43 H43        -0.4446   50.5012   27.5243 H         1 UNK         0.0000 
     44 H44         1.8138   53.9998   28.5417 H         1 UNK         0.0000 
     45 H45         2.5558   54.2190   26.2185 H         1 UNK         0.0000 
@<TRIPOS>BOND
     1    1    6 ar   
     2    1    2 ar   
     3    1   35 1    
     4    2    3 ar   
     5    2   36 1    
     6    3    4 ar   
     7    3   34 1    
     8    4    5 ar   
     9    4   37 1    
    10    5    6 ar   
    11    5   38 1    
    12    6    7 1    
    13    7   11 1    
    14    7    8 2    
    15    8    9 1    
    16    9   10 2    
    17   10   11 1    
    18   10   39 1    
    19   11   12 1    
    20   11   13 1    
    21   13   14 1    
    22   13   23 1    
    23   13   15 1    
    24   15   16 1    
    25   15   20 1    
    26   15   17 1    
    27   17   18 2    
    28   17   27 1    
    29   18   19 1    
    30   19   20 2    
    31   20   21 1    
    32   21   22 1    
    33   22   23 2    
    34   22   26 1    
    35   23   24 1    
    36   24   25 3    
    37   26   40 1    
    38   26   41 1    
    39   27   32 ar   
    40   27   28 ar   
    41   28   29 ar   
    42   28   42 1    
    43   29   30 ar   
    44   29   43 1    
    45   30   31 ar   
    46   30   33 1    
    47   31   32 ar   
    48   31   44 1    
    49   32   45 1    
@<TRIPOS>SUBSTRUCTURE
     1 UNK         1 GROUP             0       ****    0 ROOT    
