@<TRIPOS>MOLECULE
ZINC59020902_3037
49   52    1
SMALL
USER_CHARGES


@<TRIPOS>ATOM
      1 C1         -0.5784   44.8353   15.3000 C.3       1 UNK         0.0000 
      2 C2          0.2419   45.0963   16.5557 C.2       1 UNK         0.0000 
      3 N3          0.2707   46.2798   17.0445 N.2       1 UNK         0.0000 
      4 N4          1.0662   46.5570   18.1683 N.pl3     1 UNK         0.0000 
      5 C5          1.1225   47.7927   18.7675 C.ar      1 UNK         0.0000 
      6 N6          0.2964   48.2733   19.6578 N.2       1 UNK         0.0000 
      7 C7          0.7635   49.4992   19.8673 C.ar      1 UNK         0.0000 
      8 N8          1.8605   49.8138   19.2039 N.2       1 UNK         0.0000 
      9 N9          2.0795   48.7162   18.4813 N.pl3     1 UNK         0.0000 
     10 S10        -0.0946   50.6151   20.9375 S.3       1 UNK         0.0000 
     11 C11         0.9589   52.1129   20.8920 C.3       1 UNK         0.0000 
     12 C12         1.9453   52.2493   22.0598 C.2       1 UNK         0.0000 
     13 O13         2.0059   51.3914   22.9406 O.2       1 UNK         0.0000 
     14 N14         2.7136   53.3550   22.0318 N.am      1 UNK         0.0000 
     15 C15         3.6490   53.6984   22.9899 C.2       1 UNK         0.0000 
     16 C16         3.5529   53.8078   24.3945 C.2       1 UNK         0.0000 
     17 C17         4.7704   54.2296   24.9406 C.2       1 UNK         0.0000 
     18 C18         5.7582   54.4170   24.0048 C.2       1 UNK         0.0000 
     19 S19         5.2333   54.0971   22.3933 S.3       1 UNK         0.0000 
     20 C20         7.0675   54.8361   24.6027 C.3       1 UNK         0.0000 
     21 C21         6.7046   55.0398   26.0841 C.3       1 UNK         0.0000 
     22 C22         5.2951   54.4716   26.3332 C.3       1 UNK         0.0000 
     23 C23         2.4040   53.5202   25.2366 C.1       1 UNK         0.0000 
     24 N24         1.5034   53.2880   25.9201 N.1       1 UNK         0.0000 
     25 C25         0.9187   43.9042   17.1085 C.ar      1 UNK         0.0000 
     26 C26         0.6784   43.4872   18.4257 C.ar      1 UNK         0.0000 
     27 C27         1.3523   42.3885   18.9522 C.ar      1 UNK         0.0000 
     28 C28         2.2630   41.6935   18.1588 C.ar      1 UNK         0.0000 
     29 C29         2.5036   42.0882   16.8459 C.ar      1 UNK         0.0000 
     30 C30         1.8309   43.1883   16.3222 C.ar      1 UNK         0.0000 
     31 Br31        3.1778   40.1898   18.8770 Br        1 UNK         0.0000 
     32 H32         0.0418   44.4707   14.4820 H         1 UNK         0.0000 
     33 H33        -1.3739   44.1150   15.4912 H         1 UNK         0.0000 
     34 H34        -1.0610   45.7448   14.9393 H         1 UNK         0.0000 
     35 H35         1.5763   45.7578   18.5150 H         1 UNK         0.0000 
     36 H36         0.2806   52.9610   20.9483 H         1 UNK         0.0000 
     37 H37         1.4723   52.2071   19.9377 H         1 UNK         0.0000 
     38 H38         2.7309   53.8858   21.1716 H         1 UNK         0.0000 
     39 H39         7.4620   55.7510   24.1565 H         1 UNK         0.0000 
     40 H40         7.8177   54.0579   24.4815 H         1 UNK         0.0000 
     41 H41         6.7104   56.0993   26.3255 H         1 UNK         0.0000 
     42 H42         7.4386   54.5740   26.7446 H         1 UNK         0.0000 
     43 H43         5.3514   53.5403   26.8973 H         1 UNK         0.0000 
     44 H44         4.6840   55.1711   26.9061 H         1 UNK         0.0000 
     45 H45        -0.0278   44.0207   19.0481 H         1 UNK         0.0000 
     46 H46         1.1823   42.0834   19.9730 H         1 UNK         0.0000 
     47 H47         3.2134   41.5490   16.2334 H         1 UNK         0.0000 
     48 H48         2.0368   43.4895   15.3049 H         1 UNK         0.0000 
     49 H49         2.8330   48.6425   17.7980 H         1 UNK         0.0000 
@<TRIPOS>BOND
     1    1    2 1    
     2    1   32 1    
     3    1   33 1    
     4    1   34 1    
     5    2    3 2    
     6    2   25 1    
     7    3    4 1    
     8    4    5 1    
     9    4   35 1    
    10    5    9 ar   
    11    5    6 ar   
    12    6    7 ar   
    13    7    8 ar   
    14    7   10 1    
    15    8    9 ar   
    16    9   49 1    
    17   10   11 1    
    18   11   12 1    
    19   11   36 1    
    20   11   37 1    
    21   12   13 2    
    22   12   14 am   BACKBONE|DICT|INTERRES
    23   14   15 am   BACKBONE|DICT|INTERRES
    24   14   38 1    
    25   15   19 1    
    26   15   16 2    
    27   16   17 1    
    28   16   23 1    
    29   17   22 1    
    30   17   18 2    
    31   18   19 1    
    32   18   20 1    
    33   20   21 1    
    34   20   39 1    
    35   20   40 1    
    36   21   22 1    
    37   21   41 1    
    38   21   42 1    
    39   22   43 1    
    40   22   44 1    
    41   23   24 3    
    42   25   30 ar   
    43   25   26 ar   
    44   26   27 ar   
    45   26   45 1    
    46   27   28 ar   
    47   27   46 1    
    48   28   29 ar   
    49   28   31 1    
    50   29   30 ar   
    51   29   47 1    
    52   30   48 1    
@<TRIPOS>SUBSTRUCTURE
     1 UNK         1 GROUP             0       ****    0 ROOT    
