@<TRIPOS>MOLECULE
ZINC22643402_3314
56   59    1
SMALL
USER_CHARGES


@<TRIPOS>ATOM
      1 C1          4.1027   54.1812   29.5594 C.3       1 UNK         0.0000 
      2 C2          3.2881   52.8871   29.5398 C.2       1 UNK         0.0000 
      3 O3          3.4087   52.1043   30.4842 O.2       1 UNK         0.0000 
      4 C4          2.3600   52.6676   28.3850 C.ar      1 UNK         0.0000 
      5 C5          1.4915   51.5688   28.3872 C.ar      1 UNK         0.0000 
      6 C6          0.6544   51.3179   27.3007 C.ar      1 UNK         0.0000 
      7 C7          0.6559   52.1825   26.2027 C.ar      1 UNK         0.0000 
      8 C8          1.5043   53.2945   26.2102 C.ar      1 UNK         0.0000 
      9 C9          2.3525   53.5323   27.2838 C.ar      1 UNK         0.0000 
     10 S10        -0.4353   51.8528   24.7939 S.o2      1 UNK         0.0000 
     11 O11        -1.4851   50.9788   25.3258 O.2       1 UNK         0.0000 
     12 O12        -0.8770   53.1641   24.3053 O.2       1 UNK         0.0000 
     13 N13         0.5533   51.0908   23.8380 N.2       1 UNK         0.0000 
     14 C14         1.4672   51.6748   22.9932 C.ar      1 UNK         0.0000 
     15 C15         1.7119   53.0512   22.8822 C.ar      1 UNK         0.0000 
     16 C16         2.7134   53.5514   22.0679 C.ar      1 UNK         0.0000 
     17 C17         3.4572   52.6907   21.2574 C.ar      1 UNK         0.0000 
     18 C18         3.2036   51.3160   21.3208 C.ar      1 UNK         0.0000 
     19 C19         2.2313   50.8225   22.1894 C.ar      1 UNK         0.0000 
     20 C20         4.5479   53.2194   20.3614 C.2       1 UNK         0.0000 
     21 O21         5.5044   52.5021   20.0817 O.2       1 UNK         0.0000 
     22 N22         4.4020   54.4877   19.9174 N.am      1 UNK         0.0000 
     23 C23         5.3945   55.2935   19.3237 C.ar      1 UNK         0.0000 
     24 C24         6.7495   55.2099   19.6759 C.ar      1 UNK         0.0000 
     25 C25         7.6977   56.0453   19.0870 C.ar      1 UNK         0.0000 
     26 C26         7.2896   57.0395   18.1876 C.ar      1 UNK         0.0000 
     27 C27         5.9410   57.1083   17.8176 C.ar      1 UNK         0.0000 
     28 C28         4.9986   56.2469   18.3842 C.ar      1 UNK         0.0000 
     29 C29         5.7545   58.0931   16.7028 C.3       1 UNK         0.0000 
     30 C30         7.1020   58.7889   16.6430 C.3       1 UNK         0.0000 
     31 N31         8.0351   57.9703   17.4236 N.am      1 UNK         0.0000 
     32 C32         9.3060   58.4349   17.5922 C.2       1 UNK         0.0000 
     33 O33         9.7269   59.4456   17.0250 O.2       1 UNK         0.0000 
     34 C34        10.3012   57.6954   18.4804 C.3       1 UNK         0.0000 
     35 H35         3.4422   55.0432   29.4665 H         1 UNK         0.0000 
     36 H36         4.7969   54.1996   28.7193 H         1 UNK         0.0000 
     37 H37         4.6726   54.2822   30.4814 H         1 UNK         0.0000 
     38 H38         1.4611   50.8956   29.2305 H         1 UNK         0.0000 
     39 H39         0.0014   50.4543   27.3174 H         1 UNK         0.0000 
     40 H40         1.5045   54.0022   25.4011 H         1 UNK         0.0000 
     41 H41         2.9961   54.3982   27.2346 H         1 UNK         0.0000 
     42 H42         1.1426   53.7843   23.4179 H         1 UNK         0.0000 
     43 H43         2.8767   54.6197   22.0573 H         1 UNK         0.0000 
     44 H44         3.7659   50.6217   20.7115 H         1 UNK         0.0000 
     45 H45         2.0727   49.7547   22.2399 H         1 UNK         0.0000 
     46 H46         3.4784   54.8900   20.0154 H         1 UNK         0.0000 
     47 H47         7.0814   54.4968   20.4109 H         1 UNK         0.0000 
     48 H48         8.7255   55.8942   19.3706 H         1 UNK         0.0000 
     49 H49         3.9623   56.3058   18.0831 H         1 UNK         0.0000 
     50 H50         5.5786   57.5715   15.7614 H         1 UNK         0.0000 
     51 H51         4.9426   58.8117   16.8272 H         1 UNK         0.0000 
     52 H52         6.9976   59.6965   17.2342 H         1 UNK         0.0000 
     53 H53         7.4286   59.1369   15.6621 H         1 UNK         0.0000 
     54 H54         9.9929   57.6985   19.5245 H         1 UNK         0.0000 
     55 H55        10.4252   56.6670   18.1408 H         1 UNK         0.0000 
     56 H56        11.2814   58.1701   18.4302 H         1 UNK         0.0000 
@<TRIPOS>BOND
     1    1    2 1    
     2    1   35 1    
     3    1   36 1    
     4    1   37 1    
     5    2    3 2    
     6    2    4 1    
     7    4    9 ar   
     8    4    5 ar   
     9    5    6 ar   
    10    5   38 1    
    11    6    7 ar   
    12    6   39 1    
    13    7    8 ar   
    14    7   10 1    
    15    8    9 ar   
    16    8   40 1    
    17    9   41 1    
    18   10   11 2    
    19   10   12 2    
    20   10   13 1    
    21   13   14 1    
    22   14   19 ar   
    23   14   15 ar   
    24   15   16 ar   
    25   15   42 1    
    26   16   17 ar   
    27   16   43 1    
    28   17   18 ar   
    29   17   20 1    
    30   18   19 ar   
    31   18   44 1    
    32   19   45 1    
    33   20   21 2    
    34   20   22 am   BACKBONE|DICT|INTERRES
    35   22   23 1    
    36   22   46 1    
    37   23   28 ar   
    38   23   24 ar   
    39   24   25 ar   
    40   24   47 1    
    41   25   26 ar   
    42   25   48 1    
    43   26   31 1    
    44   26   27 ar   
    45   27   28 ar   
    46   27   29 1    
    47   28   49 1    
    48   29   30 1    
    49   29   50 1    
    50   29   51 1    
    51   30   31 1    
    52   30   52 1    
    53   30   53 1    
    54   31   32 am   BACKBONE|DICT|INTERRES
    55   32   33 2    
    56   32   34 1    
    57   34   54 1    
    58   34   55 1    
    59   34   56 1    
@<TRIPOS>SUBSTRUCTURE
     1 UNK         1 GROUP             0       ****    0 ROOT    
