ZINC04026099_3857
                    3D
 Schrodinger Suite 2024-2.
 59 62  0  0  1  0            999 V2000
   -1.1192   47.4788   24.8817 C   0  0  0  0  0  0
   -1.3973   48.3889   23.6688 C   0  0  2  0  0  0
   -1.7479   47.7140   22.8848 H   0  0  0  0  0  0
   -0.1105   49.0508   23.1303 C   0  0  0  0  0  0
   -0.5025   50.4790   22.7079 C   0  0  2  0  0  0
   -1.0016   50.4037   21.7405 H   0  0  0  0  0  0
    0.6471   51.5302   22.5437 C   0  0  2  0  0  0
    0.1841   52.3909   22.0606 H   0  0  0  0  0  0
    1.7607   51.0134   21.5903 C   0  0  0  0  0  0
    2.9930   51.9088   21.5959 C   0  0  0  0  0  0
    3.2530   52.8936   22.4831 C   0  0  0  0  0  0
    4.4815   53.8011   22.3372 C   0  0  0  0  0  0
    5.2718   53.8850   23.6566 C   0  0  2  0  0  0
    5.6840   52.8969   23.8391 H   0  0  0  0  0  0
    4.3840   54.2807   24.8452 C   0  0  0  0  0  0
    3.1051   53.4402   24.9833 C   0  0  0  0  0  0
    2.3001   53.1976   23.6694 C   0  0  2  0  0  0
    1.2711   52.0201   23.8825 C   0  0  1  0  0  0
    1.8204   51.1573   24.2629 H   0  0  0  0  0  0
    0.1865   52.3441   24.9516 C   0  0  0  0  0  0
   -0.8707   51.2434   25.0921 C   0  0  0  0  0  0
   -1.5909   50.8839   23.7489 C   0  0  2  0  0  0
   -2.4355   49.5495   23.9188 C   0  0  1  0  0  0
   -3.5807   49.4299   22.8445 C   0  0  0  0  0  0
   -3.3264   49.2660   21.6492 O   0  0  0  0  0  0
   -5.0491   49.5393   23.2680 C   0  0  0  0  0  0
   -3.0777   49.4718   25.1940 O   0  0  0  0  0  0
   -2.4228   52.1163   23.2677 C   0  0  0  0  0  0
    1.5993   54.4967   23.2861 C   0  0  0  0  0  0
    6.3650   54.7749   23.5594 O   0  0  0  0  0  0
   -0.7428   48.0428   25.7361 H   0  0  0  0  0  0
   -2.0198   46.9556   25.2029 H   0  0  0  0  0  0
   -0.3739   46.7227   24.6431 H   0  0  0  0  0  0
    0.6236   49.1253   23.9346 H   0  0  0  0  0  0
    0.3495   48.4972   22.3117 H   0  0  0  0  0  0
    2.0793   50.0030   21.8451 H   0  0  0  0  0  0
    1.3697   50.9650   20.5734 H   0  0  0  0  0  0
    3.7059   51.7623   20.7962 H   0  0  0  0  0  0
    5.1335   53.4432   21.5383 H   0  0  0  0  0  0
    4.1612   54.7966   22.0298 H   0  0  0  0  0  0
    4.9562   54.2706   25.7740 H   0  0  0  0  0  0
    4.0585   55.2971   24.7015 H   0  0  0  0  0  0
    2.4662   53.9152   25.7298 H   0  0  0  0  0  0
    3.3739   52.4967   25.4372 H   0  0  0  0  0  0
    0.6500   52.5383   25.9190 H   0  0  0  0  0  0
   -0.3331   53.2672   24.7138 H   0  0  0  0  0  0
   -1.6038   51.5476   25.8406 H   0  0  0  0  0  0
   -0.3826   50.3693   25.5223 H   0  0  0  0  0  0
   -5.2250   50.4817   23.7880 H   0  0  0  0  0  0
   -5.3136   48.7132   23.9275 H   0  0  0  0  0  0
   -5.7044   49.5004   22.3977 H   0  0  0  0  0  0
   -2.4134   49.2975   25.8689 H   0  0  0  0  0  0
   -1.8295   53.0253   23.1817 H   0  0  0  0  0  0
   -2.8585   51.9623   22.2809 H   0  0  0  0  0  0
   -3.2427   52.3293   23.9543 H   0  0  0  0  0  0
    0.8861   54.8438   24.0276 H   0  0  0  0  0  0
    2.3332   55.2958   23.2293 H   0  0  0  0  0  0
    1.1044   54.4333   22.3228 H   0  0  0  0  0  0
    6.9367   54.4965   22.8407 H   0  0  0  0  0  0
  1  2  1  0  0  0
  1 31  1  0  0  0
  1 32  1  0  0  0
  1 33  1  0  0  0
  2  3  1  0  0  0
  2 23  1  0  0  0
  2  4  1  0  0  0
  4  5  1  0  0  0
  4 34  1  0  0  0
  4 35  1  0  0  0
  5  6  1  0  0  0
  5 22  1  0  0  0
  5  7  1  0  0  0
  7  8  1  0  0  0
  7 18  1  0  0  0
  7  9  1  0  0  0
  9 10  1  0  0  0
  9 36  1  0  0  0
  9 37  1  0  0  0
 10 11  2  0  0  0
 10 38  1  0  0  0
 11 17  1  0  0  0
 11 12  1  0  0  0
 12 13  1  0  0  0
 12 39  1  0  0  0
 12 40  1  0  0  0
 13 14  1  0  0  0
 13 15  1  0  0  0
 13 30  1  0  0  0
 15 16  1  0  0  0
 15 41  1  0  0  0
 15 42  1  0  0  0
 16 17  1  0  0  0
 16 43  1  0  0  0
 16 44  1  0  0  0
 17 18  1  0  0  0
 17 29  1  0  0  0
 18 19  1  0  0  0
 18 20  1  0  0  0
 20 21  1  0  0  0
 20 45  1  0  0  0
 20 46  1  0  0  0
 21 22  1  0  0  0
 21 47  1  0  0  0
 21 48  1  0  0  0
 22 23  1  0  0  0
 22 28  1  0  0  0
 23 24  1  0  0  0
 23 27  1  0  0  0
 24 25  2  0  0  0
 24 26  1  0  0  0
 26 49  1  0  0  0
 26 50  1  0  0  0
 26 51  1  0  0  0
 27 52  1  0  0  0
 28 53  1  0  0  0
 28 54  1  0  0  0
 28 55  1  0  0  0
 29 56  1  0  0  0
 29 57  1  0  0  0
 29 58  1  0  0  0
 30 59  1  0  0  0
M  END
> <i_i_glide_confnum>
1

> <i_i_glide_lignum>
3858

> <i_i_glide_posenum>
31

> <i_i_glide_rotatable_bonds>
3

> <i_m_Source_File_Index>
680

> <b_m_subgroup_collapsed>
0

> <r_i_docking_score>
-4.07959

> <r_i_glide_ecoul>
-1.4388

> <r_i_glide_eff_state_penalty>
0

> <r_i_glide_einternal>
0.139663

> <r_i_glide_emodel>
-30.2713

> <r_i_glide_energy>
-24.2365

> <r_i_glide_erotb>
0

> <r_i_glide_esite>
0

> <r_i_glide_evdw>
-22.7977

> <r_i_glide_gscore>
-4.07959

> <r_i_glide_hbond>
0

> <r_i_glide_ligand_efficiency>
-0.163184

> <r_i_glide_ligand_efficiency_ln>
-0.966985

> <r_i_glide_ligand_efficiency_sa>
-0.477152

> <r_i_glide_lipo>
-1.67732

> <r_i_glide_metal>
0

> <r_i_glide_rewards>
-1.04657

> <s_i_glide_gridfile>
wee1_glide-grid

> <s_m_Source_File>
wee1_decoys_glide_SP.sdf

> <s_m_Source_Path>
/Users/zhangxujun/Desktop

> <s_m_entry_id>
955

> <s_m_entry_name>
wee1_decoys_glide_SP.680

> <s_m_subgroup_title>
wee1_decoys_glide_SP

> <s_m_subgroupid>
wee1_decoys_glide_SP


$$$$
