@<TRIPOS>MOLECULE
ZINC22510573_5894
57   59    1
SMALL
USER_CHARGES


@<TRIPOS>ATOM
      1 C1         10.6097   52.5356   16.6406 C.3       1 UNK         0.0000 
      2 C2          9.3730   53.3010   17.0741 C.ar      1 UNK         0.0000 
      3 C3          8.1065   52.7442   16.8818 C.ar      1 UNK         0.0000 
      4 C4          6.9735   53.4320   17.3081 C.ar      1 UNK         0.0000 
      5 C5          7.1042   54.6783   17.9304 C.ar      1 UNK         0.0000 
      6 C6          8.3713   55.2345   18.1242 C.ar      1 UNK         0.0000 
      7 C7          9.5035   54.5457   17.6938 C.ar      1 UNK         0.0000 
      8 S8          5.6261   55.5467   18.4737 S.o2      1 UNK         0.0000 
      9 O9          4.7777   55.5901   17.2782 O.2       1 UNK         0.0000 
     10 O10         6.0844   56.8356   19.0085 O.2       1 UNK         0.0000 
     11 N11         5.1099   54.5262   19.5482 N.2       1 UNK         0.0000 
     12 C12         5.3949   54.5581   20.8927 C.ar      1 UNK         0.0000 
     13 C13         6.4750   55.2657   21.4469 C.ar      1 UNK         0.0000 
     14 C14         6.7044   55.2966   22.8197 C.ar      1 UNK         0.0000 
     15 C15         5.8825   54.5959   23.7046 C.ar      1 UNK         0.0000 
     16 C16         4.8114   53.8710   23.1620 C.ar      1 UNK         0.0000 
     17 C17         4.5706   53.8486   21.7902 C.ar      1 UNK         0.0000 
     18 Cl18        3.2202   52.8957   21.2598 Cl        1 UNK         0.0000 
     19 C19         6.1535   54.6475   25.1927 C.2       1 UNK         0.0000 
     20 O20         7.1041   55.2930   25.6373 O.2       1 UNK         0.0000 
     21 N21         5.2923   53.9514   25.9569 N.am      1 UNK         0.0000 
     22 C22         5.2974   53.5893   27.3833 C.3       1 UNK         0.0000 
     23 H23         5.7696   52.6061   27.4116 H         1 UNK         0.0000 
     24 C24         6.1875   54.4925   28.2653 C.3       1 UNK         0.0000 
     25 C25         3.8709   53.3459   27.9446 C.ar      1 UNK         0.0000 
     26 C26         3.6345   53.2537   29.3231 C.ar      1 UNK         0.0000 
     27 C27         2.3651   52.9610   29.8191 C.ar      1 UNK         0.0000 
     28 C28         1.2908   52.7258   28.9488 C.ar      1 UNK         0.0000 
     29 C29         1.5037   52.8007   27.5657 C.ar      1 UNK         0.0000 
     30 C30         2.7776   53.1413   27.0854 C.ar      1 UNK         0.0000 
     31 O31         0.4296   52.5071   26.7415 O.3       1 UNK         0.0000 
     32 C32         0.6014   52.4973   25.3266 C.3       1 UNK         0.0000 
     33 O33         0.0140   52.3992   29.3729 O.3       1 UNK         0.0000 
     34 C34        -0.2874   52.3494   30.7612 C.3       1 UNK         0.0000 
     35 H35        10.4597   51.4626   16.7650 H         1 UNK         0.0000 
     36 H36        10.8409   52.7343   15.5941 H         1 UNK         0.0000 
     37 H37        11.4720   52.8019   17.2540 H         1 UNK         0.0000 
     38 H38         7.9969   51.7765   16.4144 H         1 UNK         0.0000 
     39 H39         5.9940   52.9936   17.1678 H         1 UNK         0.0000 
     40 H40         8.4832   56.1970   18.6047 H         1 UNK         0.0000 
     41 H41        10.4815   54.9764   17.8565 H         1 UNK         0.0000 
     42 H42         7.1707   55.8000   20.8225 H         1 UNK         0.0000 
     43 H43         7.5330   55.8782   23.1890 H         1 UNK         0.0000 
     44 H44         4.1345   53.3114   23.7894 H         1 UNK         0.0000 
     45 H45         4.5958   53.4481   25.4313 H         1 UNK         0.0000 
     46 H46         6.2545   54.1321   29.2816 H         1 UNK         0.0000 
     47 H47         7.2215   54.4939   27.9257 H         1 UNK         0.0000 
     48 H48         5.8483   55.5255   28.2792 H         1 UNK         0.0000 
     49 H49         4.4300   53.3842   30.0376 H         1 UNK         0.0000 
     50 H50         2.2384   52.8944   30.8881 H         1 UNK         0.0000 
     51 H51         2.9282   53.1913   26.0194 H         1 UNK         0.0000 
     52 H52        -0.3431   52.2292   24.8527 H         1 UNK         0.0000 
     53 H53         0.8891   53.4775   24.9450 H         1 UNK         0.0000 
     54 H54         1.3450   51.7592   25.0182 H         1 UNK         0.0000 
     55 H55        -1.2950   51.9475   30.8810 H         1 UNK         0.0000 
     56 H56        -0.2604   53.3438   31.2091 H         1 UNK         0.0000 
     57 H57         0.3858   51.6968   31.3180 H         1 UNK         0.0000 
@<TRIPOS>BOND
     1    1    2 1    
     2    1   35 1    
     3    1   36 1    
     4    1   37 1    
     5    2    7 ar   
     6    2    3 ar   
     7    3    4 ar   
     8    3   38 1    
     9    4    5 ar   
    10    4   39 1    
    11    5    6 ar   
    12    5    8 1    
    13    6    7 ar   
    14    6   40 1    
    15    7   41 1    
    16    8    9 2    
    17    8   10 2    
    18    8   11 1    
    19   11   12 1    
    20   12   17 ar   
    21   12   13 ar   
    22   13   14 ar   
    23   13   42 1    
    24   14   15 ar   
    25   14   43 1    
    26   15   16 ar   
    27   15   19 1    
    28   16   17 ar   
    29   16   44 1    
    30   17   18 1    
    31   19   20 2    
    32   19   21 am   BACKBONE|DICT|INTERRES
    33   21   22 1    
    34   21   45 1    
    35   22   23 1    
    36   22   24 1    
    37   22   25 1    
    38   24   46 1    
    39   24   47 1    
    40   24   48 1    
    41   25   30 ar   
    42   25   26 ar   
    43   26   27 ar   
    44   26   49 1    
    45   27   28 ar   
    46   27   50 1    
    47   28   29 ar   
    48   28   33 1    
    49   29   30 ar   
    50   29   31 1    
    51   30   51 1    
    52   31   32 1    
    53   32   52 1    
    54   32   53 1    
    55   32   54 1    
    56   33   34 1    
    57   34   55 1    
    58   34   56 1    
    59   34   57 1    
@<TRIPOS>SUBSTRUCTURE
     1 UNK         1 GROUP             0       ****    0 ROOT    
