@<TRIPOS>MOLECULE
ZINC65993698_1399
51   54    1
SMALL
USER_CHARGES


@<TRIPOS>ATOM
      1 C1          6.6601   55.8677   25.2748 C.3       1 UNK         0.0000 
      2 C2          6.0996   54.4393   25.0845 C.3       1 UNK         0.0000 
      3 C3          5.1145   54.1518   26.2226 C.ar      1 UNK         0.0000 
      4 C4          5.5976   53.6642   27.4385 C.ar      1 UNK         0.0000 
      5 C5          4.7203   53.3899   28.4840 C.ar      1 UNK         0.0000 
      6 C6          3.3423   53.6149   28.3460 C.ar      1 UNK         0.0000 
      7 C7          2.8653   54.0973   27.1204 C.ar      1 UNK         0.0000 
      8 C8          3.7390   54.3588   26.0688 C.ar      1 UNK         0.0000 
      9 N9          2.4277   53.4102   29.4148 N.am      1 UNK         0.0000 
     10 C10         1.1068   54.0586   29.4633 C.3       1 UNK         0.0000 
     11 C11         0.5858   53.8158   30.8588 C.3       1 UNK         0.0000 
     12 C12         1.3046   52.5630   31.2779 C.3       1 UNK         0.0000 
     13 C13         2.5676   52.4964   30.4217 C.2       1 UNK         0.0000 
     14 O14         3.5027   51.7268   30.6509 O.2       1 UNK         0.0000 
     15 N15         5.4996   54.1907   23.7618 N.am      1 UNK         0.0000 
     16 C16         6.0116   54.4969   22.5595 C.2       1 UNK         0.0000 
     17 O17         7.1043   55.0384   22.3962 O.2       1 UNK         0.0000 
     18 N18         5.1730   54.1731   21.5569 N.am      1 UNK         0.0000 
     19 C19         5.4030   54.4316   20.1966 C.ar      1 UNK         0.0000 
     20 C20         5.0922   53.4449   19.2573 C.ar      1 UNK         0.0000 
     21 C21         5.3022   53.6962   17.9007 C.ar      1 UNK         0.0000 
     22 C22         5.8106   54.9456   17.5067 C.ar      1 UNK         0.0000 
     23 N23         6.1032   55.9196   18.4145 N.ar      1 UNK         0.0000 
     24 C24         5.9041   55.6554   19.7293 C.ar      1 UNK         0.0000 
     25 N25         6.0307   55.2668   16.1397 N.pl3     1 UNK         0.0000 
     26 C26         6.3848   56.4854   15.5973 C.ar      1 UNK         0.0000 
     27 C27         6.4866   56.2945   14.2328 C.ar      1 UNK         0.0000 
     28 C28         6.1834   54.9457   14.0447 C.ar      1 UNK         0.0000 
     29 N29         5.9103   54.3328   15.1738 N.2       1 UNK         0.0000 
     30 H30         7.0149   56.0206   26.2934 H         1 UNK         0.0000 
     31 H31         7.4990   56.0909   24.6146 H         1 UNK         0.0000 
     32 H32         5.8905   56.6128   25.0788 H         1 UNK         0.0000 
     33 H33         6.9227   53.7278   25.1729 H         1 UNK         0.0000 
     34 H34         6.6551   53.4914   27.5783 H         1 UNK         0.0000 
     35 H35         5.1311   53.0251   29.4095 H         1 UNK         0.0000 
     36 H36         1.8125   54.2773   26.9643 H         1 UNK         0.0000 
     37 H37         3.3381   54.7416   25.1411 H         1 UNK         0.0000 
     38 H38         1.1814   55.1254   29.2435 H         1 UNK         0.0000 
     39 H39         0.4520   53.6094   28.7143 H         1 UNK         0.0000 
     40 H40        -0.4958   53.7108   30.8892 H         1 UNK         0.0000 
     41 H41         0.8426   54.6490   31.5146 H         1 UNK         0.0000 
     42 H42         0.6898   51.6969   31.0370 H         1 UNK         0.0000 
     43 H43         1.5111   52.5237   32.3480 H         1 UNK         0.0000 
     44 H44         4.7355   53.5334   23.7768 H         1 UNK         0.0000 
     45 H45         4.3421   53.6466   21.7740 H         1 UNK         0.0000 
     46 H46         4.7037   52.4829   19.5605 H         1 UNK         0.0000 
     47 H47         5.0709   52.9233   17.1812 H         1 UNK         0.0000 
     48 H48         6.1458   56.4559   20.4124 H         1 UNK         0.0000 
     49 H49         6.5244   57.3593   16.2177 H         1 UNK         0.0000 
     50 H50         6.7424   57.0251   13.4794 H         1 UNK         0.0000 
     51 H51         6.1603   54.4221   13.1002 H         1 UNK         0.0000 
@<TRIPOS>BOND
     1    1    2 1    
     2    1   30 1    
     3    1   31 1    
     4    1   32 1    
     5    2    3 1    
     6    2   15 1    
     7    2   33 1    
     8    3    8 ar   
     9    3    4 ar   
    10    4    5 ar   
    11    4   34 1    
    12    5    6 ar   
    13    5   35 1    
    14    6    7 ar   
    15    6    9 1    
    16    7    8 ar   
    17    7   36 1    
    18    8   37 1    
    19    9   13 am   BACKBONE|DICT|INTERRES
    20    9   10 1    
    21   10   11 1    
    22   10   38 1    
    23   10   39 1    
    24   11   12 1    
    25   11   40 1    
    26   11   41 1    
    27   12   13 1    
    28   12   42 1    
    29   12   43 1    
    30   13   14 2    
    31   15   16 am   BACKBONE|DICT|INTERRES
    32   15   44 1    
    33   16   17 2    
    34   16   18 am   BACKBONE|DICT|INTERRES
    35   18   19 1    
    36   18   45 1    
    37   19   24 ar   
    38   19   20 ar   
    39   20   21 ar   
    40   20   46 1    
    41   21   22 ar   
    42   21   47 1    
    43   22   23 ar   
    44   22   25 1    
    45   23   24 ar   
    46   24   48 1    
    47   25   29 ar   
    48   25   26 ar   
    49   26   27 ar   
    50   26   49 1    
    51   27   28 ar   
    52   27   50 1    
    53   28   29 ar   
    54   28   51 1    
@<TRIPOS>SUBSTRUCTURE
     1 UNK         1 GROUP             0       ****    0 ROOT    
