ZINC13396141_1941
                    3D
 Schrodinger Suite 2024-2.
 53 56  0  0  1  0            999 V2000
    7.0603   55.3216   22.2328 C   0  0  0  0  0  0
    7.2852   55.6966   20.9161 C   0  0  0  0  0  0
    6.4046   55.2923   19.9161 C   0  0  0  0  0  0
    5.3223   54.4676   20.2344 C   0  0  0  0  0  0
    5.1065   54.0754   21.5550 C   0  0  0  0  0  0
    5.9580   54.5258   22.5674 C   0  0  0  0  0  0
    5.6240   54.1710   23.8859 N   0  0  0  0  0  0
    5.9928   54.7547   25.0487 C   0  0  0  0  0  0
    6.7984   55.6810   25.1667 O   0  0  0  0  0  0
    5.3512   54.2002   26.2195 C   0  0  0  0  0  0
    6.0121   54.1409   27.4462 C   0  0  0  0  0  0
    5.0473   53.4874   28.7116 S   0  0  0  0  0  0
    3.6960   53.3574   27.6498 C   0  0  0  0  0  0
    3.9889   53.7987   26.3473 C   0  0  0  0  0  0
    2.9158   53.8113   25.2463 C   0  0  0  0  0  0
    1.6219   53.0878   25.6943 C   0  0  0  0  0  0
    1.2670   53.2967   27.1765 C   0  0  0  0  0  0
    2.3692   52.7812   28.1112 C   0  0  0  0  0  0
    6.5541   55.9144   18.2392 S   0  0  0  0  0  0
    6.1673   54.8039   17.3620 O   0  0  0  0  0  0
    5.7950   57.1691   18.2383 O   0  0  0  0  0  0
    8.2619   56.3071   17.9168 N   0  0  0  0  0  0
    9.2283   55.2063   17.7013 C   0  0  0  0  0  0
   10.3376   55.6776   16.7330 C   0  0  0  0  0  0
   10.9929   57.0046   17.1942 C   0  0  0  0  0  0
    9.9318   58.1016   17.5202 C   0  0  1  0  0  0
    9.4399   58.4278   16.6034 H   0  0  0  0  0  0
    8.8509   57.5473   18.4810 C   0  0  0  0  0  0
   10.5871   59.3785   18.1140 C   0  0  0  0  0  0
    9.9044   60.0967   18.8817 O   0  0  0  0  0  0
    7.7446   55.6918   22.9754 H   0  0  0  0  0  0
    8.1307   56.3244   20.7068 H   0  0  0  0  0  0
    4.6307   54.1558   19.4639 H   0  0  0  0  0  0
    4.2491   53.4593   21.7844 H   0  0  0  0  0  0
    4.9339   53.4416   23.9667 H   0  0  0  0  0  0
    7.0291   54.4368   27.6629 H   0  0  0  0  0  0
    3.2558   53.3222   24.3354 H   0  0  0  0  0  0
    2.7021   54.8450   24.9687 H   0  0  0  0  0  0
    0.7918   53.4067   25.0622 H   0  0  0  0  0  0
    1.7265   52.0199   25.5086 H   0  0  0  0  0  0
    1.1043   54.3590   27.3648 H   0  0  0  0  0  0
    0.3255   52.7981   27.4099 H   0  0  0  0  0  0
    2.1503   53.0532   29.1441 H   0  0  0  0  0  0
    2.4061   51.6917   28.0826 H   0  0  0  0  0  0
    9.6955   54.9681   18.6584 H   0  0  0  0  0  0
    8.7108   54.3215   17.3292 H   0  0  0  0  0  0
   11.0975   54.9011   16.6407 H   0  0  0  0  0  0
    9.9148   55.8034   15.7352 H   0  0  0  0  0  0
   11.5794   56.7724   18.0825 H   0  0  0  0  0  0
   11.6791   57.3455   16.4171 H   0  0  0  0  0  0
    8.0617   58.2717   18.6898 H   0  0  0  0  0  0
    9.3686   57.2925   19.4046 H   0  0  0  0  0  0
   11.7613   59.6523   17.7803 O   0  5  0  0  0  0
  1  6  2  0  0  0
  1  2  1  0  0  0
  1 31  1  0  0  0
  2  3  2  0  0  0
  2 32  1  0  0  0
  3  4  1  0  0  0
  3 19  1  0  0  0
  4  5  2  0  0  0
  4 33  1  0  0  0
  5  6  1  0  0  0
  5 34  1  0  0  0
  6  7  1  0  0  0
  7  8  1  0  0  0
  7 35  1  0  0  0
  8  9  2  0  0  0
  8 10  1  0  0  0
 10 14  1  0  0  0
 10 11  2  0  0  0
 11 12  1  0  0  0
 11 36  1  0  0  0
 12 13  1  0  0  0
 13 18  1  0  0  0
 13 14  2  0  0  0
 14 15  1  0  0  0
 15 16  1  0  0  0
 15 37  1  0  0  0
 15 38  1  0  0  0
 16 17  1  0  0  0
 16 39  1  0  0  0
 16 40  1  0  0  0
 17 18  1  0  0  0
 17 41  1  0  0  0
 17 42  1  0  0  0
 18 43  1  0  0  0
 18 44  1  0  0  0
 19 20  2  0  0  0
 19 21  2  0  0  0
 19 22  1  0  0  0
 22 28  1  0  0  0
 22 23  1  0  0  0
 23 24  1  0  0  0
 23 45  1  0  0  0
 23 46  1  0  0  0
 24 25  1  0  0  0
 24 47  1  0  0  0
 24 48  1  0  0  0
 25 26  1  0  0  0
 25 49  1  0  0  0
 25 50  1  0  0  0
 26 27  1  0  0  0
 26 28  1  0  0  0
 26 29  1  0  0  0
 28 51  1  0  0  0
 28 52  1  0  0  0
 29 30  2  0  0  0
 29 53  1  0  0  0
M  CHG  1  53  -1
M  END
> <i_i_glide_confnum>
210

> <i_i_glide_lignum>
1942

> <i_i_glide_posenum>
396

> <i_i_glide_rotatable_bonds>
6

> <i_m_Source_File_Index>
492

> <b_m_subgroup_collapsed>
0

> <r_i_docking_score>
-6.00147

> <r_i_glide_ecoul>
-5.28746

> <r_i_glide_eff_state_penalty>
0

> <r_i_glide_einternal>
12.0763

> <r_i_glide_emodel>
-61.9382

> <r_i_glide_energy>
-47.3255

> <r_i_glide_erotb>
0.499886

> <r_i_glide_esite>
-0.0244892

> <r_i_glide_evdw>
-42.038

> <r_i_glide_gscore>
-6.00147

> <r_i_glide_hbond>
-0.481483

> <r_i_glide_ligand_efficiency>
-0.200049

> <r_i_glide_ligand_efficiency_ln>
-1.3636

> <r_i_glide_ligand_efficiency_sa>
-0.621599

> <r_i_glide_lipo>
-2.8026

> <r_i_glide_metal>
0

> <r_i_glide_rewards>
-0.297763

> <s_i_glide_gridfile>
wee1_glide-grid

> <s_m_Source_File>
wee1_decoys_glide_SP.sdf

> <s_m_Source_Path>
/Users/zhangxujun/Desktop

> <s_m_entry_id>
767

> <s_m_entry_name>
wee1_decoys_glide_SP.492

> <s_m_subgroup_title>
wee1_decoys_glide_SP

> <s_m_subgroupid>
wee1_decoys_glide_SP


$$$$
