@<TRIPOS>MOLECULE
ZINC39852186_2480
54   58    1
SMALL
USER_CHARGES


@<TRIPOS>ATOM
      1 C1         -1.2504   48.8165   15.2861 C.ar      1 UNK         0.0000 
      2 C2         -0.0504   48.3490   15.8183 C.ar      1 UNK         0.0000 
      3 C3          0.9727   49.2496   16.1072 C.ar      1 UNK         0.0000 
      4 C4          0.7940   50.6128   15.8576 C.ar      1 UNK         0.0000 
      5 C5         -0.4161   51.0765   15.3319 C.ar      1 UNK         0.0000 
      6 C6         -1.4386   50.1755   15.0438 C.ar      1 UNK         0.0000 
      7 C7          1.9060   51.5996   16.1999 C.3       1 UNK         0.0000 
      8 C8          1.7368   52.1724   17.6131 C.2       1 UNK         0.0000 
      9 O9          0.7573   52.8814   17.8679 O.2       1 UNK         0.0000 
     10 N10         2.7043   51.8609   18.5056 N.am      1 UNK         0.0000 
     11 N11         2.6037   52.2715   19.8436 N.am      1 UNK         0.0000 
     12 C12         1.7805   51.6169   20.7023 C.2       1 UNK         0.0000 
     13 O13         1.1086   50.6301   20.3912 O.2       1 UNK         0.0000 
     14 C14         1.7692   52.1241   22.1312 C.ar      1 UNK         0.0000 
     15 C15         2.2361   53.4059   22.4677 C.ar      1 UNK         0.0000 
     16 C16         2.2802   53.8194   23.7964 C.ar      1 UNK         0.0000 
     17 C17         1.9006   52.9423   24.8109 C.ar      1 UNK         0.0000 
     18 C18         1.3501   51.6984   24.4797 C.ar      1 UNK         0.0000 
     19 C19         1.2942   51.2921   23.1513 C.ar      1 UNK         0.0000 
     20 N20         2.0937   53.2966   26.1674 N.pl3     1 UNK         0.0000 
     21 C21         3.1903   53.8792   26.7731 C.ar      1 UNK         0.0000 
     22 C22         2.8481   54.0019   28.1209 C.ar      1 UNK         0.0000 
     23 C23         1.5763   53.4202   28.2390 C.ar      1 UNK         0.0000 
     24 N24         1.1367   53.0084   27.0691 N.2       1 UNK         0.0000 
     25 C25         0.7506   53.2317   29.5036 C.3       1 UNK         0.0000 
     26 F26        -0.4371   52.6715   29.2645 F         1 UNK         0.0000 
     27 F27         1.3934   52.4525   30.3721 F         1 UNK         0.0000 
     28 F28         0.5270   54.4008   30.1030 F         1 UNK         0.0000 
     29 C29         3.8014   54.5915   29.1571 C.3       1 UNK         0.0000 
     30 C30         5.2937   54.3479   28.7802 C.3       1 UNK         0.0000 
     31 C31         5.4946   54.4963   27.2813 C.2       1 UNK         0.0000 
     32 C32         4.5294   54.2781   26.3078 C.2       1 UNK         0.0000 
     33 C33         5.1873   54.4956   25.0875 C.2       1 UNK         0.0000 
     34 C34         6.4967   54.8434   25.3888 C.2       1 UNK         0.0000 
     35 O35         6.6881   54.8428   26.7330 O.3       1 UNK         0.0000 
     36 H36        -2.0452   48.1193   15.0656 H         1 UNK         0.0000 
     37 H37         0.0878   47.2952   16.0081 H         1 UNK         0.0000 
     38 H38         1.9030   48.8896   16.5240 H         1 UNK         0.0000 
     39 H39        -0.5641   52.1314   15.1548 H         1 UNK         0.0000 
     40 H40        -2.3741   50.5312   14.6366 H         1 UNK         0.0000 
     41 H41         2.8759   51.1093   16.0954 H         1 UNK         0.0000 
     42 H42         1.9022   52.4273   15.4912 H         1 UNK         0.0000 
     43 H43         3.4771   51.2283   18.3286 H         1 UNK         0.0000 
     44 H44         2.8726   53.2355   19.9645 H         1 UNK         0.0000 
     45 H45         2.5761   54.0957   21.7101 H         1 UNK         0.0000 
     46 H46         2.6338   54.8132   24.0297 H         1 UNK         0.0000 
     47 H47         1.0202   51.0153   25.2486 H         1 UNK         0.0000 
     48 H48         0.9101   50.3057   22.9285 H         1 UNK         0.0000 
     49 H49         3.6058   55.6575   29.2770 H         1 UNK         0.0000 
     50 H50         3.6130   54.1546   30.1360 H         1 UNK         0.0000 
     51 H51         5.9043   55.0592   29.3316 H         1 UNK         0.0000 
     52 H52         5.6142   53.3556   29.0960 H         1 UNK         0.0000 
     53 H53         4.7890   54.3982   24.0922 H         1 UNK         0.0000 
     54 H54         7.3555   55.0837   24.7771 H         1 UNK         0.0000 
@<TRIPOS>BOND
     1    1    6 ar   
     2    1    2 ar   
     3    1   36 1    
     4    2    3 ar   
     5    2   37 1    
     6    3    4 ar   
     7    3   38 1    
     8    4    5 ar   
     9    4    7 1    
    10    5    6 ar   
    11    5   39 1    
    12    6   40 1    
    13    7    8 1    
    14    7   41 1    
    15    7   42 1    
    16    8    9 2    
    17    8   10 am   BACKBONE|DICT|INTERRES
    18   10   11 1    
    19   10   43 1    
    20   11   12 am   BACKBONE|DICT|INTERRES
    21   11   44 1    
    22   12   13 2    
    23   12   14 1    
    24   14   19 ar   
    25   14   15 ar   
    26   15   16 ar   
    27   15   45 1    
    28   16   17 ar   
    29   16   46 1    
    30   17   18 ar   
    31   17   20 1    
    32   18   19 ar   
    33   18   47 1    
    34   19   48 1    
    35   20   24 ar   
    36   20   21 ar   
    37   21   32 1    
    38   21   22 ar   
    39   22   23 ar   
    40   22   29 1    
    41   23   24 ar   
    42   23   25 1    
    43   25   26 1    
    44   25   27 1    
    45   25   28 1    
    46   29   30 1    
    47   29   49 1    
    48   29   50 1    
    49   30   31 1    
    50   30   51 1    
    51   30   52 1    
    52   31   35 1    
    53   31   32 2    
    54   32   33 1    
    55   33   34 2    
    56   33   53 1    
    57   34   35 1    
    58   34   54 1    
@<TRIPOS>SUBSTRUCTURE
     1 UNK         1 GROUP             0       ****    0 ROOT    
