@<TRIPOS>MOLECULE
ZINC15675774_4092
51   55    1
SMALL
USER_CHARGES


@<TRIPOS>ATOM
      1 C1          5.3569   54.3869   28.3317 C.ar      1 UNK         0.0000 
      2 C2          5.2408   54.2906   26.9452 C.ar      1 UNK         0.0000 
      3 C3          3.9757   54.1604   26.3401 C.ar      1 UNK         0.0000 
      4 C4          2.8425   54.1048   27.1594 C.ar      1 UNK         0.0000 
      5 C5          2.9609   54.2073   28.5459 C.ar      1 UNK         0.0000 
      6 C6          4.2169   54.3493   29.1307 C.ar      1 UNK         0.0000 
      7 F7          1.8569   54.1717   29.3252 F         1 UNK         0.0000 
      8 N8          3.7488   54.0486   24.9504 N.am      1 UNK         0.0000 
      9 C9          4.6367   54.1163   23.9284 C.2       1 UNK         0.0000 
     10 O10         5.7878   54.5294   24.0864 O.2       1 UNK         0.0000 
     11 N11         4.1984   53.6479   22.7180 N.am      1 UNK         0.0000 
     12 C12         2.7466   53.4993   22.3835 C.3       1 UNK         0.0000 
     13 C13         2.5747   52.4890   21.2582 C.ar      1 UNK         0.0000 
     14 C14         3.6164   51.8292   20.6380 C.ar      1 UNK         0.0000 
     15 N15         3.1044   51.1048   19.5766 N.pl3     1 UNK         0.0000 
     16 H16         3.6760   50.6170   18.8822 H         1 UNK         0.0000 
     17 C17         1.7334   51.2398   19.5799 C.ar      1 UNK         0.0000 
     18 N18         1.4103   52.0967   20.6152 N.pl3     1 UNK         0.0000 
     19 C19         5.0617   52.0847   20.9585 C.3       1 UNK         0.0000 
     20 C20         5.2093   53.4848   21.6227 C.3       1 UNK         0.0000 
     21 H21         6.2016   53.4660   22.0780 H         1 UNK         0.0000 
     22 C22         5.2778   54.6176   20.6080 C.2       1 UNK         0.0000 
     23 N23         4.6597   54.7074   19.4605 N.2       1 UNK         0.0000 
     24 C24         5.1157   55.8468   18.9714 C.2       1 UNK         0.0000 
     25 N25         6.0291   56.4497   19.7108 N.2       1 UNK         0.0000 
     26 O26         6.1336   55.6407   20.8411 O.3       1 UNK         0.0000 
     27 C27         4.5575   56.4668   17.7195 C.ar      1 UNK         0.0000 
     28 C28         3.5316   55.8307   17.0088 C.ar      1 UNK         0.0000 
     29 C29         2.9565   56.4405   15.8976 C.ar      1 UNK         0.0000 
     30 C30         3.3929   57.7016   15.4808 C.ar      1 UNK         0.0000 
     31 C31         4.4287   58.3333   16.1744 C.ar      1 UNK         0.0000 
     32 C32         5.0101   57.7174   17.2783 C.ar      1 UNK         0.0000 
     33 C33         2.7512   58.3753   14.2677 C.3       1 UNK         0.0000 
     34 F34         3.5968   59.2121   13.6628 F         1 UNK         0.0000 
     35 F35         2.3588   57.4704   13.3684 F         1 UNK         0.0000 
     36 F36         1.6821   59.0642   14.6670 F         1 UNK         0.0000 
     37 H37         6.3321   54.4952   28.7866 H         1 UNK         0.0000 
     38 H38         6.1545   54.3118   26.3738 H         1 UNK         0.0000 
     39 H39         1.8571   53.9937   26.7313 H         1 UNK         0.0000 
     40 H40         4.3075   54.4287   30.2025 H         1 UNK         0.0000 
     41 H41         2.8080   53.7834   24.7091 H         1 UNK         0.0000 
     42 H42         2.1682   53.1881   23.2524 H         1 UNK         0.0000 
     43 H43         2.3803   54.4822   22.0817 H         1 UNK         0.0000 
     44 H44         1.0503   50.8126   18.8576 H         1 UNK         0.0000 
     45 H45         5.4084   51.3193   21.6526 H         1 UNK         0.0000 
     46 H46         5.6880   51.9991   20.0689 H         1 UNK         0.0000 
     47 H47         3.1587   54.8676   17.3264 H         1 UNK         0.0000 
     48 H48         2.1596   55.9351   15.3713 H         1 UNK         0.0000 
     49 H49         4.7741   59.3150   15.8776 H         1 UNK         0.0000 
     50 H50         5.7918   58.2457   17.8054 H         1 UNK         0.0000 
     51 H51         0.4840   52.4378   20.8289 H         1 UNK         0.0000 
@<TRIPOS>BOND
     1    1    6 ar   
     2    1    2 ar   
     3    1   37 1    
     4    2    3 ar   
     5    2   38 1    
     6    3    4 ar   
     7    3    8 1    
     8    4    5 ar   
     9    4   39 1    
    10    5    6 ar   
    11    5    7 1    
    12    6   40 1    
    13    8    9 am   BACKBONE|DICT|INTERRES
    14    8   41 1    
    15    9   10 2    
    16    9   11 am   BACKBONE|DICT|INTERRES
    17   11   20 1    
    18   11   12 1    
    19   12   13 1    
    20   12   42 1    
    21   12   43 1    
    22   13   18 ar   
    23   13   14 ar   
    24   14   15 ar   
    25   14   19 1    
    26   15   16 1    
    27   15   17 ar   
    28   17   18 ar   
    29   17   44 1    
    30   18   51 1    
    31   19   20 1    
    32   19   45 1    
    33   19   46 1    
    34   20   21 1    
    35   20   22 1    
    36   22   26 1    
    37   22   23 2    
    38   23   24 1    
    39   24   25 2    
    40   24   27 1    
    41   25   26 1    
    42   27   32 ar   
    43   27   28 ar   
    44   28   29 ar   
    45   28   47 1    
    46   29   30 ar   
    47   29   48 1    
    48   30   31 ar   
    49   30   33 1    
    50   31   32 ar   
    51   31   49 1    
    52   32   50 1    
    53   33   34 1    
    54   33   35 1    
    55   33   36 1    
@<TRIPOS>SUBSTRUCTURE
     1 UNK         1 GROUP             0       ****    0 ROOT    
