@<TRIPOS>MOLECULE
ZINC35729677_4136
55   57    1
SMALL
USER_CHARGES


@<TRIPOS>ATOM
      1 C1         -0.0025   54.3942   15.8764 C.3       1 UNK         0.0000 
      2 C2          0.6255   54.6402   17.2655 C.3       1 UNK         0.0000 
      3 N3          2.1193   54.5750   17.2844 N.pl3     1 UNK         0.0000 
      4 C4          2.9082   55.7213   17.1484 C.2       1 UNK         0.0000 
      5 C5          4.2507   55.6981   17.4073 C.2       1 UNK         0.0000 
      6 C6          4.9367   54.4434   17.9936 C.3       1 UNK         0.0000 
      7 H7          5.9013   54.2857   17.5061 H         1 UNK         0.0000 
      8 N8          4.0520   53.2939   17.6825 N.pl3     1 UNK         0.0000 
      9 C9          2.6943   53.3223   17.5087 C.2       1 UNK         0.0000 
     10 S10         1.9284   51.8355   17.6235 S.2       1 UNK         0.0000 
     11 C11         5.3015   54.5720   19.4836 C.ar      1 UNK         0.0000 
     12 C12         6.5342   55.1181   19.8665 C.ar      1 UNK         0.0000 
     13 C13         6.8503   55.2953   21.2141 C.ar      1 UNK         0.0000 
     14 C14         5.9503   54.8893   22.1993 C.ar      1 UNK         0.0000 
     15 C15         4.7048   54.3516   21.8354 C.ar      1 UNK         0.0000 
     16 C16         4.3958   54.1977   20.4828 C.ar      1 UNK         0.0000 
     17 N17         3.6976   53.9492   22.7268 N.am      1 UNK         0.0000 
     18 C18         3.5963   54.0945   24.0658 C.2       1 UNK         0.0000 
     19 O19         4.4473   54.6303   24.7771 O.2       1 UNK         0.0000 
     20 C20         2.3485   53.4975   24.6865 C.ar      1 UNK         0.0000 
     21 C21         2.2947   53.2788   26.0726 C.ar      1 UNK         0.0000 
     22 C22         1.1882   52.6578   26.6558 C.ar      1 UNK         0.0000 
     23 C23         0.1098   52.2629   25.8663 C.ar      1 UNK         0.0000 
     24 C24         0.1255   52.5143   24.4959 C.ar      1 UNK         0.0000 
     25 C25         1.2333   53.1272   23.9106 C.ar      1 UNK         0.0000 
     26 Br26       -1.3716   52.0413   23.4194 Br        1 UNK         0.0000 
     27 C27         5.1064   56.8849   17.2504 C.2       1 UNK         0.0000 
     28 O28         5.7117   57.4097   18.1839 O.2       1 UNK         0.0000 
     29 O29         5.1681   57.3117   15.9710 O.3       1 UNK         0.0000 
     30 C30         5.8930   58.4887   15.6375 C.3       1 UNK         0.0000 
     31 C31         5.6772   58.8041   14.1539 C.3       1 UNK         0.0000 
     32 C32         2.1681   56.9882   16.6603 C.3       1 UNK         0.0000 
     33 H33        -1.0896   54.4623   15.9292 H         1 UNK         0.0000 
     34 H34         0.3282   55.1302   15.1424 H         1 UNK         0.0000 
     35 H35         0.2364   53.4011   15.4929 H         1 UNK         0.0000 
     36 H36         0.1917   53.9408   17.9818 H         1 UNK         0.0000 
     37 H37         0.2637   55.5852   17.6645 H         1 UNK         0.0000 
     38 H38         4.4173   52.3546   17.8102 H         1 UNK         0.0000 
     39 H39         7.2465   55.4266   19.1147 H         1 UNK         0.0000 
     40 H40         7.8053   55.7155   21.4969 H         1 UNK         0.0000 
     41 H41         6.2358   55.0144   23.2324 H         1 UNK         0.0000 
     42 H42         3.4312   53.8028   20.2012 H         1 UNK         0.0000 
     43 H43         2.9212   53.4919   22.2778 H         1 UNK         0.0000 
     44 H44         3.1266   53.5520   26.7063 H         1 UNK         0.0000 
     45 H45         1.1732   52.4704   27.7194 H         1 UNK         0.0000 
     46 H46        -0.7432   51.7774   26.3191 H         1 UNK         0.0000 
     47 H47         1.2018   53.3008   22.8443 H         1 UNK         0.0000 
     48 H48         5.5525   59.3290   16.2469 H         1 UNK         0.0000 
     49 H49         6.9555   58.3432   15.8415 H         1 UNK         0.0000 
     50 H50         6.2215   59.7042   13.8680 H         1 UNK         0.0000 
     51 H51         6.0268   57.9844   13.5256 H         1 UNK         0.0000 
     52 H52         4.6188   58.9725   13.9412 H         1 UNK         0.0000 
     53 H53         1.8385   56.8665   15.6256 H         1 UNK         0.0000 
     54 H54         1.3131   57.2527   17.2805 H         1 UNK         0.0000 
     55 H55         2.7809   57.8882   16.6910 H         1 UNK         0.0000 
@<TRIPOS>BOND
     1    1    2 1    
     2    1   33 1    
     3    1   34 1    
     4    1   35 1    
     5    2    3 1    
     6    2   36 1    
     7    2   37 1    
     8    3    9 1    
     9    3    4 1    
    10    4    5 2    
    11    4   32 1    
    12    5    6 1    
    13    5   27 1    
    14    6    7 1    
    15    6    8 1    
    16    6   11 1    
    17    8    9 1    
    18    8   38 1    
    19    9   10 2    
    20   11   16 ar   
    21   11   12 ar   
    22   12   13 ar   
    23   12   39 1    
    24   13   14 ar   
    25   13   40 1    
    26   14   15 ar   
    27   14   41 1    
    28   15   16 ar   
    29   15   17 1    
    30   16   42 1    
    31   17   18 am   BACKBONE|DICT|INTERRES
    32   17   43 1    
    33   18   19 2    
    34   18   20 1    
    35   20   25 ar   
    36   20   21 ar   
    37   21   22 ar   
    38   21   44 1    
    39   22   23 ar   
    40   22   45 1    
    41   23   24 ar   
    42   23   46 1    
    43   24   25 ar   
    44   24   26 1    
    45   25   47 1    
    46   27   28 2    
    47   27   29 1    
    48   29   30 1    
    49   30   31 1    
    50   30   48 1    
    51   30   49 1    
    52   31   50 1    
    53   31   51 1    
    54   31   52 1    
    55   32   53 1    
    56   32   54 1    
    57   32   55 1    
@<TRIPOS>SUBSTRUCTURE
     1 UNK         1 GROUP             0       ****    0 ROOT    
