@<TRIPOS>MOLECULE
ZINC33113028_2118
53   56    1
SMALL
USER_CHARGES


@<TRIPOS>ATOM
      1 C1         -1.9859   51.1594   26.1149 C.ar      1 UNK         0.0000 
      2 C2         -1.4842   51.2968   27.4031 C.ar      1 UNK         0.0000 
      3 C3         -0.2341   51.8723   27.6055 C.ar      1 UNK         0.0000 
      4 C4          0.5393   52.3206   26.5197 C.ar      1 UNK         0.0000 
      5 C5          0.0228   52.1880   25.2090 C.ar      1 UNK         0.0000 
      6 C6         -1.2390   51.6037   25.0269 C.ar      1 UNK         0.0000 
      7 C7          0.8054   52.6683   23.9761 C.3       1 UNK         0.0000 
      8 F8          0.1338   52.4953   22.8351 F         1 UNK         0.0000 
      9 F9          1.1041   53.9651   24.0830 F         1 UNK         0.0000 
     10 F10         1.9408   51.9826   23.8815 F         1 UNK         0.0000 
     11 N11         1.7953   52.9468   26.6810 N.am      1 UNK         0.0000 
     12 C12         2.5806   53.0619   27.7772 C.2       1 UNK         0.0000 
     13 O13         2.3795   52.4315   28.8218 O.2       1 UNK         0.0000 
     14 N14         3.5887   53.9766   27.6659 N.am      1 UNK         0.0000 
     15 C15         4.4578   54.2634   28.8271 C.3       1 UNK         0.0000 
     16 C16         5.8892   53.7998   28.4817 C.3       1 UNK         0.0000 
     17 C17         6.4040   54.3835   27.1543 C.3       1 UNK         0.0000 
     18 C18         5.3903   54.0915   26.0232 C.3       1 UNK         0.0000 
     19 H19         5.2907   53.0067   25.9777 H         1 UNK         0.0000 
     20 C20         4.0038   54.6414   26.4091 C.3       1 UNK         0.0000 
     21 C21         5.8417   54.5583   24.6515 C.2       1 UNK         0.0000 
     22 N22         6.8272   55.3988   24.4715 N.2       1 UNK         0.0000 
     23 N23         7.1014   55.6611   23.1393 N.2       1 UNK         0.0000 
     24 C24         6.3047   55.0436   22.2997 C.2       1 UNK         0.0000 
     25 S25         5.1077   54.0817   23.1410 S.3       1 UNK         0.0000 
     26 C26         6.2455   55.1413   20.8619 C.2       1 UNK         0.0000 
     27 O27         5.2680   54.7424   20.2286 O.2       1 UNK         0.0000 
     28 N28         7.3577   55.6993   20.3312 N.am      1 UNK         0.0000 
     29 C29         7.6652   56.0006   18.9915 C.ar      1 UNK         0.0000 
     30 C30         6.7609   55.9008   17.9217 C.ar      1 UNK         0.0000 
     31 C31         7.1747   56.2264   16.6326 C.ar      1 UNK         0.0000 
     32 C32         8.4805   56.6534   16.4095 C.ar      1 UNK         0.0000 
     33 C33         9.3803   56.7577   17.4636 C.ar      1 UNK         0.0000 
     34 C34         8.9697   56.4396   18.7540 C.ar      1 UNK         0.0000 
     35 F35         8.8767   56.9674   15.1567 F         1 UNK         0.0000 
     36 H36        -2.9510   50.6981   25.9577 H         1 UNK         0.0000 
     37 H37        -2.0571   50.9388   28.2482 H         1 UNK         0.0000 
     38 H38         0.1000   51.9645   28.6259 H         1 UNK         0.0000 
     39 H39        -1.6553   51.4856   24.0363 H         1 UNK         0.0000 
     40 H40         2.1293   53.4176   25.8543 H         1 UNK         0.0000 
     41 H41         4.0924   53.8367   29.7626 H         1 UNK         0.0000 
     42 H42         4.4486   55.3392   28.9673 H         1 UNK         0.0000 
     43 H43         5.9179   52.7092   28.4498 H         1 UNK         0.0000 
     44 H44         6.5670   54.0978   29.2813 H         1 UNK         0.0000 
     45 H45         7.3684   53.9199   26.9368 H         1 UNK         0.0000 
     46 H46         6.5464   55.4572   27.2829 H         1 UNK         0.0000 
     47 H47         4.1018   55.6967   26.6433 H         1 UNK         0.0000 
     48 H48         3.2624   54.6081   25.6082 H         1 UNK         0.0000 
     49 H49         8.0903   55.9086   20.9919 H         1 UNK         0.0000 
     50 H50         5.7411   55.5824   18.0597 H         1 UNK         0.0000 
     51 H51         6.4830   56.1501   15.8058 H         1 UNK         0.0000 
     52 H52        10.3903   57.0903   17.2815 H         1 UNK         0.0000 
     53 H53         9.6783   56.5276   19.5636 H         1 UNK         0.0000 
@<TRIPOS>BOND
     1    1    6 ar   
     2    1    2 ar   
     3    1   36 1    
     4    2    3 ar   
     5    2   37 1    
     6    3    4 ar   
     7    3   38 1    
     8    4    5 ar   
     9    4   11 1    
    10    5    6 ar   
    11    5    7 1    
    12    6   39 1    
    13    7    8 1    
    14    7    9 1    
    15    7   10 1    
    16   11   12 am   BACKBONE|DICT|INTERRES
    17   11   40 1    
    18   12   13 2    
    19   12   14 am   BACKBONE|DICT|INTERRES
    20   14   20 1    
    21   14   15 1    
    22   15   16 1    
    23   15   41 1    
    24   15   42 1    
    25   16   17 1    
    26   16   43 1    
    27   16   44 1    
    28   17   18 1    
    29   17   45 1    
    30   17   46 1    
    31   18   19 1    
    32   18   20 1    
    33   18   21 1    
    34   20   47 1    
    35   20   48 1    
    36   21   25 1    
    37   21   22 2    
    38   22   23 1    
    39   23   24 2    
    40   24   25 1    
    41   24   26 1    
    42   26   27 2    
    43   26   28 am   BACKBONE|DICT|INTERRES
    44   28   29 1    
    45   28   49 1    
    46   29   34 ar   
    47   29   30 ar   
    48   30   31 ar   
    49   30   50 1    
    50   31   32 ar   
    51   31   51 1    
    52   32   33 ar   
    53   32   35 1    
    54   33   34 ar   
    55   33   52 1    
    56   34   53 1    
@<TRIPOS>SUBSTRUCTURE
     1 UNK         1 GROUP             0       ****    0 ROOT    
