@<TRIPOS>MOLECULE
ZINC65074704_242
54   56    1
SMALL
USER_CHARGES


@<TRIPOS>ATOM
      1 C1          1.7200   51.5322   28.4270 C.3       1 UNK         0.0000 
      2 C2          0.4261   52.2073   27.9325 C.3       1 UNK         0.0000 
      3 C3         -0.7760   51.4650   28.5479 C.3       1 UNK         0.0000 
      4 C4          0.4080   53.6722   28.4083 C.3       1 UNK         0.0000 
      5 N5          0.4491   52.1763   26.4560 N.pl3     1 UNK         0.0000 
      6 C6         -0.5017   52.0715   25.5098 C.2       1 UNK         0.0000 
      7 N7         -1.7980   51.9670   25.8304 N.pl3     1 UNK         0.0000 
      8 C8         -2.8922   51.8107   24.8831 C.3       1 UNK         0.0000 
      9 C9         -2.4230   52.2535   23.4957 C.3       1 UNK         0.0000 
     10 N10        -1.1119   51.6873   23.2005 N.3       1 UNK         0.0000 
     11 C11        -0.0038   52.1645   24.0461 C.3       1 UNK         0.0000 
     12 C12         0.3820   53.6466   23.7419 C.3       1 UNK         0.0000 
     13 C13         1.2788   53.8519   22.4970 C.3       1 UNK         0.0000 
     14 N14         2.4025   52.9047   22.4682 N.pl3     1 UNK         0.0000 
     15 C15         2.0284   51.4800   22.5174 C.3       1 UNK         0.0000 
     16 C16         1.2112   51.2069   23.7978 C.3       1 UNK         0.0000 
     17 S17         4.0934   53.4637   22.3518 S.o2      1 UNK         0.0000 
     18 O18         4.9496   52.3467   21.9397 O.2       1 UNK         0.0000 
     19 O19         4.1180   54.7398   21.6395 O.2       1 UNK         0.0000 
     20 C20         4.6042   53.8858   24.0159 C.ar      1 UNK         0.0000 
     21 C21         5.9128   54.3122   24.2380 C.ar      1 UNK         0.0000 
     22 C22         6.3279   54.6085   25.5344 C.ar      1 UNK         0.0000 
     23 C23         5.4263   54.5015   26.5924 C.ar      1 UNK         0.0000 
     24 C24         4.1204   54.0951   26.3709 C.ar      1 UNK         0.0000 
     25 C25         3.7183   53.7708   25.0868 C.ar      1 UNK         0.0000 
     26 Cl26        5.9044   54.8626   28.2050 Cl        1 UNK         0.0000 
     27 H27         2.6152   52.0465   28.0732 H         1 UNK         0.0000 
     28 H28         1.7739   51.5173   29.5158 H         1 UNK         0.0000 
     29 H29         1.7921   50.5002   28.0819 H         1 UNK         0.0000 
     30 H30        -1.7015   52.0289   28.4555 H         1 UNK         0.0000 
     31 H31        -0.9281   50.4969   28.0794 H         1 UNK         0.0000 
     32 H32        -0.6424   51.2899   29.6169 H         1 UNK         0.0000 
     33 H33        -0.4957   54.1853   28.0836 H         1 UNK         0.0000 
     34 H34         0.4405   53.7428   29.4977 H         1 UNK         0.0000 
     35 H35         1.2579   54.2421   28.0239 H         1 UNK         0.0000 
     36 H36         1.3780   52.2654   26.0733 H         1 UNK         0.0000 
     37 H37        -3.7484   52.3951   25.2257 H         1 UNK         0.0000 
     38 H38        -3.1790   50.7588   24.8855 H         1 UNK         0.0000 
     39 H39        -2.4080   53.3422   23.4318 H         1 UNK         0.0000 
     40 H40        -3.1399   51.9041   22.7523 H         1 UNK         0.0000 
     41 H41        -1.1642   50.6781   23.1695 H         1 UNK         0.0000 
     42 H42        -0.5107   54.2623   23.6823 H         1 UNK         0.0000 
     43 H43         0.8729   54.0822   24.6030 H         1 UNK         0.0000 
     44 H44         0.7166   53.6950   21.5755 H         1 UNK         0.0000 
     45 H45         1.6671   54.8707   22.4791 H         1 UNK         0.0000 
     46 H46         1.4631   51.2405   21.6156 H         1 UNK         0.0000 
     47 H47         2.9289   50.8668   22.4817 H         1 UNK         0.0000 
     48 H48         1.9046   51.2989   24.6201 H         1 UNK         0.0000 
     49 H49         0.8992   50.1614   23.8192 H         1 UNK         0.0000 
     50 H50         6.6114   54.3893   23.4156 H         1 UNK         0.0000 
     51 H51         7.3473   54.8995   25.7136 H         1 UNK         0.0000 
     52 H52         3.4310   54.0112   27.1971 H         1 UNK         0.0000 
     53 H53         2.7329   53.3893   24.9450 H         1 UNK         0.0000 
     54 H54        -2.0052   51.8788   26.8147 H         1 UNK         0.0000 
@<TRIPOS>BOND
     1    1    2 1    
     2    1   27 1    
     3    1   28 1    
     4    1   29 1    
     5    2    3 1    
     6    2    4 1    
     7    2    5 1    
     8    3   30 1    
     9    3   31 1    
    10    3   32 1    
    11    4   33 1    
    12    4   34 1    
    13    4   35 1    
    14    5    6 1    
    15    5   36 1    
    16    6   11 1    
    17    6    7 2    
    18    7    8 1    
    19    7   54 1    
    20    8    9 1    
    21    8   37 1    
    22    8   38 1    
    23    9   10 1    
    24    9   39 1    
    25    9   40 1    
    26   10   11 1    
    27   10   41 1    
    28   11   16 1    
    29   11   12 1    
    30   12   13 1    
    31   12   42 1    
    32   12   43 1    
    33   13   14 1    
    34   13   44 1    
    35   13   45 1    
    36   14   15 1    
    37   14   17 1    
    38   15   16 1    
    39   15   46 1    
    40   15   47 1    
    41   16   48 1    
    42   16   49 1    
    43   17   18 2    
    44   17   19 2    
    45   17   20 1    
    46   20   25 ar   
    47   20   21 ar   
    48   21   22 ar   
    49   21   50 1    
    50   22   23 ar   
    51   22   51 1    
    52   23   24 ar   
    53   23   26 1    
    54   24   25 ar   
    55   24   52 1    
    56   25   53 1    
@<TRIPOS>SUBSTRUCTURE
     1 UNK         1 GROUP             0       ****    0 ROOT    
