@<TRIPOS>MOLECULE
ZINC38664691_4396
75   76    1
SMALL
USER_CHARGES


@<TRIPOS>ATOM
      1 C1          6.1308   54.5434   27.0106 C.3       1 UNK         0.0000 
      2 C2          4.7421   54.1849   27.4867 C.2       1 UNK         0.0000 
      3 N3          3.7637   53.8841   26.6652 N.2       1 UNK         0.0000 
      4 C4          2.6456   53.5555   27.2891 C.2       1 UNK         0.0000 
      5 C5          2.7039   53.6155   28.6788 C.2       1 UNK         0.0000 
      6 S6          4.3024   54.0897   29.1625 S.3       1 UNK         0.0000 
      7 C7          1.5126   53.1955   26.4490 C.2       1 UNK         0.0000 
      8 C8          0.6340   52.1774   26.5919 C.2       1 UNK         0.0000 
      9 C9          0.7199   51.1344   27.7023 C.3       1 UNK         0.0000 
     10 C10        -0.5004   51.9676   25.5872 C.3       1 UNK         0.0000 
     11 H11        -0.4316   52.7872   24.8676 H         1 UNK         0.0000 
     12 C12        -1.9192   52.0197   26.2146 C.3       1 UNK         0.0000 
     13 C13        -3.0547   52.0683   25.1974 C.2       1 UNK         0.0000 
     14 C14        -4.3215   51.6172   25.3439 C.2       1 UNK         0.0000 
     15 C15        -4.8941   51.0272   26.6351 C.3       1 UNK         0.0000 
     16 C16        -5.2158   49.5142   26.5926 C.3       1 UNK         0.0000 
     17 C17        -3.9441   48.6615   26.4480 C.3       1 UNK         0.0000 
     18 C18        -4.0933   47.1170   26.3806 C.3       1 UNK         0.0000 
     19 H19        -3.0869   46.7324   26.2068 H         1 UNK         0.0000 
     20 C20        -4.9830   46.6005   25.2065 C.3       1 UNK         0.0000 
     21 H21        -6.0093   46.8841   25.4442 H         1 UNK         0.0000 
     22 C22        -4.6677   47.1866   23.7878 C.3       1 UNK         0.0000 
     23 H23        -4.7489   48.2615   23.9129 H         1 UNK         0.0000 
     24 C24        -3.2588   46.8617   23.2206 C.2       1 UNK         0.0000 
     25 O25        -2.8523   45.6977   23.2340 O.2       1 UNK         0.0000 
     26 C26        -2.3305   47.9847   22.6405 C.3       1 UNK         0.0000 
     27 C27        -0.9939   48.0566   23.4816 C.3       1 UNK         0.0000 
     28 H28        -0.4953   47.1065   23.3065 H         1 UNK         0.0000 
     29 C29         0.0429   49.1635   23.1167 C.3       1 UNK         0.0000 
     30 C30        -0.2476   50.5988   23.5850 C.2       1 UNK         0.0000 
     31 O31        -0.3938   51.5160   22.7762 O.2       1 UNK         0.0000 
     32 O32        -0.2991   50.7164   24.9297 O.3       1 UNK         0.0000 
     33 O33        -1.2018   48.0360   24.8824 O.3       1 UNK         0.0000 
     34 C34        -3.0472   49.3612   22.5500 C.3       1 UNK         0.0000 
     35 C35        -2.0060   47.5799   21.1734 C.3       1 UNK         0.0000 
     36 C36        -5.7495   46.8088   22.7516 C.3       1 UNK         0.0000 
     37 O37        -4.9664   45.1783   25.1930 O.3       1 UNK         0.0000 
     38 C38        -4.5174   46.5519   27.7561 C.3       1 UNK         0.0000 
     39 C39        -5.3102   51.7024   24.1919 C.3       1 UNK         0.0000 
     40 H40         6.1243   54.9848   26.0120 H         1 UNK         0.0000 
     41 H41         6.7723   53.6607   26.9682 H         1 UNK         0.0000 
     42 H42         6.6147   55.2613   27.6768 H         1 UNK         0.0000 
     43 H43         1.9267   53.4041   29.3979 H         1 UNK         0.0000 
     44 H44         1.3978   53.8562   25.6007 H         1 UNK         0.0000 
     45 H45        -0.0963   51.2623   28.4141 H         1 UNK         0.0000 
     46 H46         0.6475   50.1290   27.2819 H         1 UNK         0.0000 
     47 H47         1.6565   51.1806   28.2570 H         1 UNK         0.0000 
     48 H48        -2.0602   51.1711   26.8859 H         1 UNK         0.0000 
     49 H49        -1.9976   52.9190   26.8249 H         1 UNK         0.0000 
     50 H50        -2.7732   52.4857   24.2409 H         1 UNK         0.0000 
     51 H51        -4.2518   51.2421   27.4900 H         1 UNK         0.0000 
     52 H52        -5.8178   51.5694   26.8459 H         1 UNK         0.0000 
     53 H53        -5.7354   49.2387   27.5107 H         1 UNK         0.0000 
     54 H54        -5.9120   49.3007   25.7823 H         1 UNK         0.0000 
     55 H55        -3.3997   49.0045   25.5745 H         1 UNK         0.0000 
     56 H56        -3.2955   48.9069   27.2853 H         1 UNK         0.0000 
     57 H57         0.1868   49.1903   22.0373 H         1 UNK         0.0000 
     58 H58         1.0155   48.8919   23.5306 H         1 UNK         0.0000 
     59 H59        -0.3602   48.0375   25.3510 H         1 UNK         0.0000 
     60 H60        -2.4973   50.0613   21.9217 H         1 UNK         0.0000 
     61 H61        -4.0435   49.2932   22.1095 H         1 UNK         0.0000 
     62 H62        -3.1383   49.8315   23.5244 H         1 UNK         0.0000 
     63 H63        -1.3888   48.3269   20.6749 H         1 UNK         0.0000 
     64 H64        -1.4602   46.6369   21.1140 H         1 UNK         0.0000 
     65 H65        -2.9088   47.4746   20.5698 H         1 UNK         0.0000 
     66 H66        -5.6085   47.3396   21.8093 H         1 UNK         0.0000 
     67 H67        -5.7446   45.7407   22.5316 H         1 UNK         0.0000 
     68 H68        -6.7449   47.0635   23.1142 H         1 UNK         0.0000 
     69 H69        -5.2911   44.8734   26.0437 H         1 UNK         0.0000 
     70 H70        -5.5427   46.8276   28.0059 H         1 UNK         0.0000 
     71 H71        -4.4437   45.4638   27.7866 H         1 UNK         0.0000 
     72 H72        -3.8677   46.9296   28.5493 H         1 UNK         0.0000 
     73 H73        -5.7019   50.7172   23.9414 H         1 UNK         0.0000 
     74 H74        -6.1450   52.3542   24.4495 H         1 UNK         0.0000 
     75 H75        -4.8441   52.0957   23.2894 H         1 UNK         0.0000 
@<TRIPOS>BOND
     1    1    2 1    
     2    1   40 1    
     3    1   41 1    
     4    1   42 1    
     5    2    6 1    
     6    2    3 2    
     7    3    4 1    
     8    4    5 2    
     9    4    7 1    
    10    5    6 1    
    11    5   43 1    
    12    7    8 2    
    13    7   44 1    
    14    8    9 1    
    15    8   10 1    
    16    9   45 1    
    17    9   46 1    
    18    9   47 1    
    19   10   11 1    
    20   10   32 1    
    21   10   12 1    
    22   12   13 1    
    23   12   48 1    
    24   12   49 1    
    25   13   14 2    
    26   13   50 1    
    27   14   15 1    
    28   14   39 1    
    29   15   16 1    
    30   15   51 1    
    31   15   52 1    
    32   16   17 1    
    33   16   53 1    
    34   16   54 1    
    35   17   18 1    
    36   17   55 1    
    37   17   56 1    
    38   18   19 1    
    39   18   20 1    
    40   18   38 1    
    41   20   21 1    
    42   20   22 1    
    43   20   37 1    
    44   22   23 1    
    45   22   24 1    
    46   22   36 1    
    47   24   25 2    
    48   24   26 1    
    49   26   27 1    
    50   26   34 1    
    51   26   35 1    
    52   27   28 1    
    53   27   29 1    
    54   27   33 1    
    55   29   30 1    
    56   29   57 1    
    57   29   58 1    
    58   30   31 2    
    59   30   32 1    
    60   33   59 1    
    61   34   60 1    
    62   34   61 1    
    63   34   62 1    
    64   35   63 1    
    65   35   64 1    
    66   35   65 1    
    67   36   66 1    
    68   36   67 1    
    69   36   68 1    
    70   37   69 1    
    71   38   70 1    
    72   38   71 1    
    73   38   72 1    
    74   39   73 1    
    75   39   74 1    
    76   39   75 1    
@<TRIPOS>SUBSTRUCTURE
     1 UNK         1 GROUP             0       ****    0 ROOT    
