ZINC36214722_954
                    3D
 Schrodinger Suite 2024-2.
 66 68  0  0  1  0            999 V2000
    5.3720   53.5575   15.8614 C   0  0  0  0  0  0
    5.9415   54.1239   17.1742 C   0  0  2  0  0  0
    5.4995   55.1195   17.2650 H   0  0  0  0  0  0
    7.4868   54.3215   17.1389 C   0  0  0  0  0  0
    8.0181   55.0594   18.3875 C   0  0  0  0  0  0
    8.2701   53.0090   16.9130 C   0  0  0  0  0  0
    5.4956   53.2963   18.2969 N   0  0  0  0  0  0
    4.9642   53.7419   19.4455 C   0  0  0  0  0  0
    4.7051   54.9256   19.6488 O   0  0  0  0  0  0
    4.6328   52.6605   20.5130 C   0  0  2  0  0  0
    5.4850   51.9795   20.5187 H   0  0  0  0  0  0
    3.3730   51.8158   20.1068 C   0  0  0  0  0  0
    3.0138   50.6809   21.0926 C   0  0  0  0  0  0
    1.9613   49.7506   20.4538 C   0  0  0  0  0  0
    0.7446   50.5272   20.0822 N   0  0  0  0  0  0
    0.9656   51.7910   19.3176 C   0  0  0  0  0  0
    2.0858   52.6442   19.9418 C   0  0  0  0  0  0
   -0.7142   50.3434   21.0769 S   0  0  0  0  0  0
   -1.7062   51.3393   20.6480 O   0  0  0  0  0  0
   -1.0455   48.9134   21.1078 O   0  0  0  0  0  0
   -0.2222   50.7888   22.7434 C   0  0  0  0  0  0
   -0.0271   49.7986   23.7112 C   0  0  0  0  0  0
    0.3037   50.1601   25.0153 C   0  0  0  0  0  0
    0.4497   51.5063   25.3426 C   0  0  0  0  0  0
    0.2854   52.4940   24.3726 C   0  0  0  0  0  0
   -0.0500   52.1334   23.0706 C   0  0  0  0  0  0
    0.8405   51.9539   26.9620 Cl  0  0  0  0  0  0
    4.5257   53.1565   21.9033 N   0  0  0  0  0  0
    5.3596   53.9809   22.5740 C   0  0  0  0  0  0
    6.3615   54.4968   22.0818 O   0  0  0  0  0  0
    5.0544   54.1894   24.0394 C   0  0  0  0  0  0
    3.7454   54.0967   24.5377 C   0  0  0  0  0  0
    3.5043   54.2436   25.9008 C   0  0  0  0  0  0
    4.5615   54.4963   26.7704 C   0  0  0  0  0  0
    5.8612   54.6189   26.2882 C   0  0  0  0  0  0
    6.1055   54.4746   24.9258 C   0  0  0  0  0  0
    5.7576   54.1019   14.9989 H   0  0  0  0  0  0
    5.6371   52.5103   15.7193 H   0  0  0  0  0  0
    4.2866   53.6512   15.8300 H   0  0  0  0  0  0
    7.7059   54.9690   16.2875 H   0  0  0  0  0  0
    7.8776   54.4725   19.2948 H   0  0  0  0  0  0
    9.0842   55.2728   18.3044 H   0  0  0  0  0  0
    7.5057   56.0110   18.5285 H   0  0  0  0  0  0
    8.0472   52.2703   17.6816 H   0  0  0  0  0  0
    8.0323   52.5604   15.9490 H   0  0  0  0  0  0
    9.3469   53.1826   16.9245 H   0  0  0  0  0  0
    5.5712   52.2896   18.1666 H   0  0  0  0  0  0
    3.6017   51.3581   19.1415 H   0  0  0  0  0  0
    3.9042   50.0972   21.2820 H   0  0  0  0  0  0
    2.7144   51.0528   22.0744 H   0  0  0  0  0  0
    2.3427   49.2533   19.5605 H   0  0  0  0  0  0
    1.6795   48.9647   21.1557 H   0  0  0  0  0  0
    1.1876   51.5240   18.2833 H   0  0  0  0  0  0
    0.0404   52.3644   19.2870 H   0  0  0  0  0  0
    1.7956   53.1332   20.8750 H   0  0  0  0  0  0
    2.3038   53.4636   19.2584 H   0  0  0  0  0  0
   -0.1497   48.7543   23.4672 H   0  0  0  0  0  0
    0.4334   49.3983   25.7723 H   0  0  0  0  0  0
    0.4039   53.5362   24.6298 H   0  0  0  0  0  0
   -0.1858   52.8966   22.3191 H   0  0  0  0  0  0
    3.7161   52.8254   22.3977 H   0  0  0  0  0  0
    2.9073   53.9058   23.8830 H   0  0  0  0  0  0
    2.4972   54.1620   26.2835 H   0  0  0  0  0  0
    4.3690   54.6090   27.8280 H   0  0  0  0  0  0
    6.6737   54.8189   26.9722 H   0  0  0  0  0  0
    7.1214   54.5617   24.5636 H   0  0  0  0  0  0
  1  2  1  0  0  0
  1 37  1  0  0  0
  1 38  1  0  0  0
  1 39  1  0  0  0
  2  3  1  0  0  0
  2  4  1  0  0  0
  2  7  1  0  0  0
  4  5  1  0  0  0
  4  6  1  0  0  0
  4 40  1  0  0  0
  5 41  1  0  0  0
  5 42  1  0  0  0
  5 43  1  0  0  0
  6 44  1  0  0  0
  6 45  1  0  0  0
  6 46  1  0  0  0
  7  8  1  0  0  0
  7 47  1  0  0  0
  8  9  2  0  0  0
  8 10  1  0  0  0
 10 11  1  0  0  0
 10 12  1  0  0  0
 10 28  1  0  0  0
 12 17  1  0  0  0
 12 13  1  0  0  0
 12 48  1  0  0  0
 13 14  1  0  0  0
 13 49  1  0  0  0
 13 50  1  0  0  0
 14 15  1  0  0  0
 14 51  1  0  0  0
 14 52  1  0  0  0
 15 16  1  0  0  0
 15 18  1  0  0  0
 16 17  1  0  0  0
 16 53  1  0  0  0
 16 54  1  0  0  0
 17 55  1  0  0  0
 17 56  1  0  0  0
 18 19  2  0  0  0
 18 20  2  0  0  0
 18 21  1  0  0  0
 21 26  2  0  0  0
 21 22  1  0  0  0
 22 23  2  0  0  0
 22 57  1  0  0  0
 23 24  1  0  0  0
 23 58  1  0  0  0
 24 25  2  0  0  0
 24 27  1  0  0  0
 25 26  1  0  0  0
 25 59  1  0  0  0
 26 60  1  0  0  0
 28 29  1  0  0  0
 28 61  1  0  0  0
 29 30  2  0  0  0
 29 31  1  0  0  0
 31 36  2  0  0  0
 31 32  1  0  0  0
 32 33  2  0  0  0
 32 62  1  0  0  0
 33 34  1  0  0  0
 33 63  1  0  0  0
 34 35  2  0  0  0
 34 64  1  0  0  0
 35 36  1  0  0  0
 35 65  1  0  0  0
 36 66  1  0  0  0
M  END
> <i_i_glide_confnum>
272

> <i_i_glide_lignum>
955

> <i_i_glide_posenum>
364

> <i_i_glide_rotatable_bonds>
10

> <i_m_Source_File_Index>
4393

> <b_m_subgroup_collapsed>
0

> <r_i_docking_score>
-4.62262

> <r_i_glide_ecoul>
-4.53034

> <r_i_glide_eff_state_penalty>
0

> <r_i_glide_einternal>
8.30299

> <r_i_glide_emodel>
-51.6893

> <r_i_glide_energy>
-42.7963

> <r_i_glide_erotb>
0.63906

> <r_i_glide_esite>
-0.135843

> <r_i_glide_evdw>
-38.266

> <r_i_glide_gscore>
-4.62262

> <r_i_glide_hbond>
-0.16

> <r_i_glide_ligand_efficiency>
-0.135959

> <r_i_glide_ligand_efficiency_ln>
-1.02127

> <r_i_glide_ligand_efficiency_sa>
-0.440456

> <r_i_glide_lipo>
-2.16229

> <r_i_glide_metal>
0

> <r_i_glide_rewards>
-0.210699

> <s_i_glide_gridfile>
wee1_glide-grid

> <s_m_Source_File>
wee1_decoys_glide_SP.sdf

> <s_m_Source_Path>
/Users/zhangxujun/Desktop

> <s_m_entry_id>
4668

> <s_m_entry_name>
wee1_decoys_glide_SP.4393

> <s_m_subgroup_title>
wee1_decoys_glide_SP

> <s_m_subgroupid>
wee1_decoys_glide_SP


$$$$
