@<TRIPOS>MOLECULE
ZINC35863308_1185
70   74    1
SMALL
USER_CHARGES


@<TRIPOS>ATOM
      1 C1         -3.2940   50.7333   27.9632 C.3       1 UNK         0.0000 
      2 C2         -2.9433   50.7096   26.4652 C.3       1 UNK         0.0000 
      3 C3         -1.8219   51.7027   26.1093 C.2       1 UNK         0.0000 
      4 O4         -2.1321   52.8937   26.0826 O.2       1 UNK         0.0000 
      5 N5         -0.5993   51.2655   25.6973 N.am      1 UNK         0.0000 
      6 C6         -0.1110   49.8904   25.9238 C.3       1 UNK         0.0000 
      7 C7          0.2230   49.3033   24.5471 C.3       1 UNK         0.0000 
      8 C8          1.1030   50.2279   23.7098 C.ar      1 UNK         0.0000 
      9 C9          1.8533   49.7001   22.6572 C.ar      1 UNK         0.0000 
     10 C10         2.6061   50.5183   21.8263 C.ar      1 UNK         0.0000 
     11 C11         2.6002   51.9050   22.0087 C.ar      1 UNK         0.0000 
     12 C12         1.8500   52.4315   23.0618 C.ar      1 UNK         0.0000 
     13 C13         1.1295   51.6211   23.9616 C.ar      1 UNK         0.0000 
     14 C14         0.4454   52.2150   25.2258 C.3       1 UNK         0.0000 
     15 H15        -0.0647   53.1243   24.9002 H         1 UNK         0.0000 
     16 C16         1.4405   52.7126   26.3149 C.ar      1 UNK         0.0000 
     17 C17         2.4365   53.6544   26.0116 C.ar      1 UNK         0.0000 
     18 C18         3.3388   54.0955   26.9813 C.ar      1 UNK         0.0000 
     19 C19         3.2555   53.6107   28.2838 C.ar      1 UNK         0.0000 
     20 C20         2.2593   52.6964   28.6181 C.ar      1 UNK         0.0000 
     21 C21         1.3529   52.2662   27.6490 C.ar      1 UNK         0.0000 
     22 F22         2.1780   52.2227   29.8826 F         1 UNK         0.0000 
     23 O23         3.3041   52.8031   21.2235 O.3       1 UNK         0.0000 
     24 C24         4.1927   52.3037   20.2235 C.3       1 UNK         0.0000 
     25 C25         4.5832   53.4115   19.2748 C.2       1 UNK         0.0000 
     26 C26         4.5097   53.5381   17.8982 C.2       1 UNK         0.0000 
     27 C27         5.0605   54.7747   17.5742 C.2       1 UNK         0.0000 
     28 C28         5.4036   55.3975   18.7736 C.2       1 UNK         0.0000 
     29 O29         5.1549   54.5307   19.7990 O.3       1 UNK         0.0000 
     30 C30         6.1001   56.6388   19.0576 C.2       1 UNK         0.0000 
     31 O31         6.7789   56.7279   20.0842 O.2       1 UNK         0.0000 
     32 N32         6.0118   57.6476   18.1442 N.am      1 UNK         0.0000 
     33 C33         6.9264   58.8098   18.2408 C.3       1 UNK         0.0000 
     34 C34         7.4622   59.1153   16.8241 C.3       1 UNK         0.0000 
     35 N35         6.3014   59.3147   15.8342 N.4       1 UNK         0.0000 
     36 C36         5.3543   58.1076   15.8060 C.3       1 UNK         0.0000 
     37 H37         5.8676   57.2494   15.3659 H         1 UNK         0.0000 
     38 C38         4.8556   57.8261   17.2368 C.3       1 UNK         0.0000 
     39 C39         4.2001   58.5159   14.8754 C.3       1 UNK         0.0000 
     40 H40        -4.0572   49.9860   28.1830 H         1 UNK         0.0000 
     41 H41        -2.4348   50.4970   28.5899 H         1 UNK         0.0000 
     42 H42        -3.7020   51.6945   28.2718 H         1 UNK         0.0000 
     43 H43        -3.8271   50.9937   25.8912 H         1 UNK         0.0000 
     44 H44        -2.7307   49.6939   26.1406 H         1 UNK         0.0000 
     45 H45         0.7861   49.8859   26.5415 H         1 UNK         0.0000 
     46 H46        -0.7902   49.2513   26.4817 H         1 UNK         0.0000 
     47 H47         0.7041   48.3345   24.6840 H         1 UNK         0.0000 
     48 H48        -0.7034   49.0931   24.0116 H         1 UNK         0.0000 
     49 H49         1.8567   48.6364   22.4819 H         1 UNK         0.0000 
     50 H50         3.1706   50.0446   21.0388 H         1 UNK         0.0000 
     51 H51         1.8444   53.5036   23.1772 H         1 UNK         0.0000 
     52 H52         2.5348   54.0750   25.0250 H         1 UNK         0.0000 
     53 H53         4.0998   54.8167   26.7224 H         1 UNK         0.0000 
     54 H54         3.9592   53.9448   29.0330 H         1 UNK         0.0000 
     55 H55         0.5883   51.5711   27.9616 H         1 UNK         0.0000 
     56 H56         5.0840   51.8994   20.7050 H         1 UNK         0.0000 
     57 H57         3.7335   51.5146   19.6284 H         1 UNK         0.0000 
     58 H58         4.1399   52.7869   17.2150 H         1 UNK         0.0000 
     59 H59         5.2002   55.1613   16.5759 H         1 UNK         0.0000 
     60 H60         6.4089   59.6870   18.6429 H         1 UNK         0.0000 
     61 H61         7.7766   58.6056   18.8911 H         1 UNK         0.0000 
     62 H62         8.0105   60.0590   16.8072 H         1 UNK         0.0000 
     63 H63         8.1076   58.3259   16.4330 H         1 UNK         0.0000 
     64 H64         6.6565   59.5084   14.9086 H         1 UNK         0.0000 
     65 H65         4.0467   57.0996   17.3120 H         1 UNK         0.0000 
     66 H66         4.3831   58.7461   17.5767 H         1 UNK         0.0000 
     67 H67         3.4663   57.7145   14.7904 H         1 UNK         0.0000 
     68 H68         3.6749   59.3998   15.2435 H         1 UNK         0.0000 
     69 H69         4.5507   58.7350   13.8665 H         1 UNK         0.0000 
     70 H70         5.7811   60.1435   16.1247 H         1 UNK         0.0000 
@<TRIPOS>BOND
     1    1    2 1    
     2    1   40 1    
     3    1   41 1    
     4    1   42 1    
     5    2    3 1    
     6    2   43 1    
     7    2   44 1    
     8    3    4 2    
     9    3    5 am   BACKBONE|DICT|INTERRES
    10    5   14 1    
    11    5    6 1    
    12    6    7 1    
    13    6   45 1    
    14    6   46 1    
    15    7    8 1    
    16    7   47 1    
    17    7   48 1    
    18    8   13 ar   
    19    8    9 ar   
    20    9   10 ar   
    21    9   49 1    
    22   10   11 ar   
    23   10   50 1    
    24   11   12 ar   
    25   11   23 1    
    26   12   13 ar   
    27   12   51 1    
    28   13   14 1    
    29   14   15 1    
    30   14   16 1    
    31   16   21 ar   
    32   16   17 ar   
    33   17   18 ar   
    34   17   52 1    
    35   18   19 ar   
    36   18   53 1    
    37   19   20 ar   
    38   19   54 1    
    39   20   21 ar   
    40   20   22 1    
    41   21   55 1    
    42   23   24 1    
    43   24   25 1    
    44   24   56 1    
    45   24   57 1    
    46   25   29 1    
    47   25   26 2    
    48   26   27 1    
    49   26   58 1    
    50   27   28 2    
    51   27   59 1    
    52   28   29 1    
    53   28   30 1    
    54   30   31 2    
    55   30   32 am   BACKBONE|DICT|INTERRES
    56   32   38 1    
    57   32   33 1    
    58   33   34 1    
    59   33   60 1    
    60   33   61 1    
    61   34   35 1    
    62   34   62 1    
    63   34   63 1    
    64   35   36 1    
    65   35   64 1    
    66   35   70 1    
    67   36   37 1    
    68   36   38 1    
    69   36   39 1    
    70   38   65 1    
    71   38   66 1    
    72   39   67 1    
    73   39   68 1    
    74   39   69 1    
@<TRIPOS>SUBSTRUCTURE
     1 UNK         1 GROUP             0       ****    0 ROOT    
