ZINC14943771_3312
                    3D
 Schrodinger Suite 2024-2.
 54 58  0  0  1  0            999 V2000
   -2.1079   47.2071   21.6429 C   0  0  0  0  0  0
   -2.4976   45.9091   21.3250 C   0  0  0  0  0  0
   -3.5508   45.3124   22.0161 C   0  0  0  0  0  0
   -4.2221   46.0044   23.0235 C   0  0  0  0  0  0
   -3.8323   47.3007   23.3501 C   0  0  0  0  0  0
   -2.7738   47.9028   22.6590 C   0  0  0  0  0  0
   -2.3532   49.2164   22.9989 N   0  0  0  0  0  0
   -1.2689   49.3004   23.8408 C   0  0  0  0  0  0
   -0.7267   48.3257   24.3769 O   0  0  0  0  0  0
   -0.7051   50.7670   23.9699 C   0  0  1  0  0  0
    0.0128   50.9112   25.3529 C   0  0  0  0  0  0
    0.9793   52.0954   25.4221 C   0  0  0  0  0  0
    1.3880   52.5625   26.6775 C   0  0  0  0  0  0
    2.3666   53.5526   26.8189 C   0  0  0  0  0  0
    2.9298   54.0961   25.6605 C   0  0  0  0  0  0
    2.5044   53.6773   24.4029 C   0  0  0  0  0  0
    1.5396   52.6668   24.2553 C   0  0  0  0  0  0
    1.0656   52.2914   22.9867 N   0  0  0  0  0  0
    0.3393   51.0095   22.8124 C   0  0  1  0  0  0
   -0.2407   51.0943   21.8897 H   0  0  0  0  0  0
    1.4038   49.8896   22.5730 C   0  0  0  0  0  0
    2.3163   50.1357   21.3464 C   0  0  2  0  0  0
    3.1124   49.3991   21.3167 H   0  0  0  0  0  0
    2.8269   51.6011   21.3703 C   0  0  0  0  0  0
    1.7366   52.6392   21.7195 C   0  0  0  0  0  0
    1.5862   49.8361   20.0078 C   0  0  0  0  0  0
    0.3999   49.5148   19.9699 O   0  0  0  0  0  0
    2.2974   49.8991   18.8814 N   0  0  0  0  0  0
    2.8050   54.0016   28.1635 N   0  3  0  0  0  0
    3.6415   54.8960   28.2423 O   0  0  0  0  0  0
    2.3163   53.4643   29.1541 O   0  5  0  0  0  0
   -1.8694   51.8210   23.8265 C   0  0  0  0  0  0
   -1.7763   52.8981   24.4087 O   0  0  0  0  0  0
   -2.8749   51.5004   23.0411 N   0  5  0  0  0  0
   -3.0954   50.2945   22.5455 C   0  0  0  0  0  0
   -3.9683   50.0859   21.6995 O   0  0  0  0  0  0
   -4.0243   43.6997   21.6226 Cl  0  0  0  0  0  0
   -1.2893   47.6703   21.1092 H   0  0  0  0  0  0
   -1.9831   45.3701   20.5439 H   0  0  0  0  0  0
   -5.0415   45.5381   23.5517 H   0  0  0  0  0  0
   -4.3441   47.8373   24.1372 H   0  0  0  0  0  0
    0.6261   50.0324   25.5633 H   0  0  0  0  0  0
   -0.7119   50.9555   26.1700 H   0  0  0  0  0  0
    0.9548   52.1107   27.5591 H   0  0  0  0  0  0
    3.6886   54.8635   25.7253 H   0  0  0  0  0  0
    2.9553   54.1549   23.5486 H   0  0  0  0  0  0
    0.9880   48.8866   22.5096 H   0  0  0  0  0  0
    2.0421   49.7483   23.4466 H   0  0  0  0  0  0
    3.3431   51.8519   20.4418 H   0  0  0  0  0  0
    3.6842   51.6746   22.0403 H   0  0  0  0  0  0
    0.9845   52.6711   20.9302 H   0  0  0  0  0  0
    2.1517   53.6450   21.7311 H   0  0  0  0  0  0
    1.8482   49.6894   18.0041 H   0  0  0  0  0  0
    3.2904   50.1031   18.8668 H   0  0  0  0  0  0
  1  6  2  0  0  0
  1  2  1  0  0  0
  1 38  1  0  0  0
  2  3  2  0  0  0
  2 39  1  0  0  0
  3  4  1  0  0  0
  3 37  1  0  0  0
  4  5  2  0  0  0
  4 40  1  0  0  0
  5  6  1  0  0  0
  5 41  1  0  0  0
  6  7  1  0  0  0
  7 35  1  0  0  0
  7  8  1  0  0  0
  8  9  2  0  0  0
  8 10  1  0  0  0
 10 19  1  0  0  0
 10 11  1  0  0  0
 10 32  1  0  0  0
 11 12  1  0  0  0
 11 42  1  0  0  0
 11 43  1  0  0  0
 12 17  2  0  0  0
 12 13  1  0  0  0
 13 14  2  0  0  0
 13 44  1  0  0  0
 14 15  1  0  0  0
 14 29  1  0  0  0
 15 16  2  0  0  0
 15 45  1  0  0  0
 16 17  1  0  0  0
 16 46  1  0  0  0
 17 18  1  0  0  0
 18 25  1  0  0  0
 18 19  1  0  0  0
 19 20  1  0  0  0
 19 21  1  0  0  0
 21 22  1  0  0  0
 21 47  1  0  0  0
 21 48  1  0  0  0
 22 23  1  0  0  0
 22 24  1  0  0  0
 22 26  1  0  0  0
 24 25  1  0  0  0
 24 49  1  0  0  0
 24 50  1  0  0  0
 25 51  1  0  0  0
 25 52  1  0  0  0
 26 27  2  0  0  0
 26 28  1  0  0  0
 28 53  1  0  0  0
 28 54  1  0  0  0
 29 30  2  0  0  0
 29 31  1  0  0  0
 32 33  2  0  0  0
 32 34  1  0  0  0
 34 35  1  0  0  0
 35 36  2  0  0  0
M  CHG  3  29   1  31  -1  34  -1
M  END
> <i_i_glide_confnum>
15

> <i_i_glide_lignum>
3313

> <i_i_glide_posenum>
67

> <i_i_glide_rotatable_bonds>
3

> <i_m_Source_File_Index>
2657

> <b_m_subgroup_collapsed>
0

> <r_i_docking_score>
-4.43323

> <r_i_glide_ecoul>
-4.28044

> <r_i_glide_eff_state_penalty>
0

> <r_i_glide_einternal>
0.549298

> <r_i_glide_emodel>
-52.9242

> <r_i_glide_energy>
-40.7783

> <r_i_glide_erotb>
0.0826092

> <r_i_glide_esite>
-0.130896

> <r_i_glide_evdw>
-36.4979

> <r_i_glide_gscore>
-4.43323

> <r_i_glide_hbond>
-0.0912959

> <r_i_glide_ligand_efficiency>
-0.126664

> <r_i_glide_ligand_efficiency_ln>
-0.973193

> <r_i_glide_ligand_efficiency_sa>
-0.414326

> <r_i_glide_lipo>
-1.37499

> <r_i_glide_metal>
0

> <r_i_glide_rewards>
-0.451697

> <s_i_glide_gridfile>
wee1_glide-grid

> <s_m_Source_File>
wee1_decoys_glide_SP.sdf

> <s_m_Source_Path>
/Users/zhangxujun/Desktop

> <s_m_entry_id>
2932

> <s_m_entry_name>
wee1_decoys_glide_SP.2657

> <s_m_subgroup_title>
wee1_decoys_glide_SP

> <s_m_subgroupid>
wee1_decoys_glide_SP


$$$$
