@<TRIPOS>MOLECULE
ZINC08920701_884
67   70    1
SMALL
USER_CHARGES


@<TRIPOS>ATOM
      1 C1         10.0990   56.4208   14.7885 C.3       1 UNK         0.0000 
      2 C2          9.4653   55.9171   16.0908 C.3       1 UNK         0.0000 
      3 C3          7.9306   55.8381   15.9950 C.3       1 UNK         0.0000 
      4 N4          7.3165   55.1477   17.2407 N.4       1 UNK         0.0000 
      5 C5          5.8097   54.8901   16.9969 C.3       1 UNK         0.0000 
      6 C6          5.2818   53.9386   18.0959 C.3       1 UNK         0.0000 
      7 C7          5.7549   54.3608   19.4923 C.2       1 UNK         0.0000 
      8 C8          6.7743   55.3158   19.6369 C.2       1 UNK         0.0000 
      9 S9          7.1076   55.6960   21.2839 S.3       1 UNK         0.0000 
     10 C10         5.8995   54.5642   21.8183 C.2       1 UNK         0.0000 
     11 C11         5.2475   53.9105   20.7490 C.2       1 UNK         0.0000 
     12 C12         4.1546   52.9538   20.9542 C.2       1 UNK         0.0000 
     13 O13         3.5170   52.9290   22.0095 O.2       1 UNK         0.0000 
     14 N14         3.9100   52.0964   19.9502 N.am      1 UNK         0.0000 
     15 C15         2.8519   51.0974   19.9636 C.3       1 UNK         0.0000 
     16 N16         5.6164   54.3549   23.1628 N.am      1 UNK         0.0000 
     17 C17         6.1474   54.8968   24.2806 C.2       1 UNK         0.0000 
     18 O18         7.1043   55.6652   24.3231 O.2       1 UNK         0.0000 
     19 C19         5.4457   54.4818   25.5470 C.ar      1 UNK         0.0000 
     20 C20         4.0985   54.0971   25.5103 C.ar      1 UNK         0.0000 
     21 C21         3.4557   53.6963   26.6654 C.ar      1 UNK         0.0000 
     22 C22         4.1303   53.6971   27.8789 C.ar      1 UNK         0.0000 
     23 C23         5.4646   54.1043   27.9405 C.ar      1 UNK         0.0000 
     24 C24         6.1211   54.4904   26.7769 C.ar      1 UNK         0.0000 
     25 S25         3.2614   53.1595   29.3377 S.o2      1 UNK         0.0000 
     26 O26         3.1548   51.6972   29.2830 O.2       1 UNK         0.0000 
     27 O27         3.9032   53.8195   30.4770 O.2       1 UNK         0.0000 
     28 N28         1.6095   53.8274   29.2013 N.pl3     1 UNK         0.0000 
     29 C29         1.4039   55.2678   29.2283 C.3       1 UNK         0.0000 
     30 C30         0.4986   53.0021   28.9820 C.ar      1 UNK         0.0000 
     31 C31        -0.0952   52.3530   30.0624 C.ar      1 UNK         0.0000 
     32 C32        -1.1647   51.4942   29.8403 C.ar      1 UNK         0.0000 
     33 C33        -1.6493   51.2968   28.5501 C.ar      1 UNK         0.0000 
     34 C34        -1.0678   51.9462   27.4688 C.ar      1 UNK         0.0000 
     35 C35         0.0004   52.8061   27.6888 C.ar      1 UNK         0.0000 
     36 C36         7.4859   56.0324   18.5021 C.3       1 UNK         0.0000 
     37 H37        11.1822   56.4882   14.8818 H         1 UNK         0.0000 
     38 H38         9.7331   57.4116   14.5192 H         1 UNK         0.0000 
     39 H39         9.8844   55.7495   13.9562 H         1 UNK         0.0000 
     40 H40         9.8749   54.9397   16.3420 H         1 UNK         0.0000 
     41 H41         9.7620   56.5921   16.8928 H         1 UNK         0.0000 
     42 H42         7.4533   56.8158   15.8990 H         1 UNK         0.0000 
     43 H43         7.6428   55.2126   15.1467 H         1 UNK         0.0000 
     44 H44         5.3101   55.8617   16.9934 H         1 UNK         0.0000 
     45 H45         5.6974   54.4202   16.0177 H         1 UNK         0.0000 
     46 H46         4.1939   53.9018   18.0356 H         1 UNK         0.0000 
     47 H47         5.6366   52.9252   17.8954 H         1 UNK         0.0000 
     48 H48         4.6099   51.9524   19.2284 H         1 UNK         0.0000 
     49 H49         2.8732   50.5282   19.0330 H         1 UNK         0.0000 
     50 H50         2.9885   50.4011   20.7929 H         1 UNK         0.0000 
     51 H51         1.8739   51.5692   20.0618 H         1 UNK         0.0000 
     52 H52         4.8745   53.6828   23.3099 H         1 UNK         0.0000 
     53 H53         3.5266   54.0890   24.5927 H         1 UNK         0.0000 
     54 H54         2.4419   53.3524   26.6065 H         1 UNK         0.0000 
     55 H55         5.9934   54.1108   28.8819 H         1 UNK         0.0000 
     56 H56         7.1579   54.7921   26.8371 H         1 UNK         0.0000 
     57 H57         0.7832   55.5893   28.3916 H         1 UNK         0.0000 
     58 H58         0.9019   55.5571   30.1527 H         1 UNK         0.0000 
     59 H59         2.3522   55.8070   29.1760 H         1 UNK         0.0000 
     60 H60         0.2773   52.4846   31.0689 H         1 UNK         0.0000 
     61 H61        -1.6122   50.9578   30.6676 H         1 UNK         0.0000 
     62 H62        -2.4644   50.6069   28.3908 H         1 UNK         0.0000 
     63 H63        -1.4421   51.7770   26.4697 H         1 UNK         0.0000 
     64 H64         0.4335   53.2967   26.8363 H         1 UNK         0.0000 
     65 H65         8.5559   56.1189   18.6816 H         1 UNK         0.0000 
     66 H66         7.0550   57.0122   18.2904 H         1 UNK         0.0000 
     67 H67         7.7795   54.2552   17.3587 H         1 UNK         0.0000 
@<TRIPOS>BOND
     1    1    2 1    
     2    1   37 1    
     3    1   38 1    
     4    1   39 1    
     5    2    3 1    
     6    2   40 1    
     7    2   41 1    
     8    3    4 1    
     9    3   42 1    
    10    3   43 1    
    11    4   36 1    
    12    4    5 1    
    13    4   67 1    
    14    5    6 1    
    15    5   44 1    
    16    5   45 1    
    17    6    7 1    
    18    6   46 1    
    19    6   47 1    
    20    7   11 1    
    21    7    8 2    
    22    8    9 1    
    23    8   36 1    
    24    9   10 1    
    25   10   11 2    
    26   10   16 am   BACKBONE|DICT|INTERRES
    27   11   12 1    
    28   12   13 2    
    29   12   14 am   BACKBONE|DICT|INTERRES
    30   14   15 1    
    31   14   48 1    
    32   15   49 1    
    33   15   50 1    
    34   15   51 1    
    35   16   17 am   BACKBONE|DICT|INTERRES
    36   16   52 1    
    37   17   18 2    
    38   17   19 1    
    39   19   24 ar   
    40   19   20 ar   
    41   20   21 ar   
    42   20   53 1    
    43   21   22 ar   
    44   21   54 1    
    45   22   23 ar   
    46   22   25 1    
    47   23   24 ar   
    48   23   55 1    
    49   24   56 1    
    50   25   26 2    
    51   25   27 2    
    52   25   28 1    
    53   28   29 1    
    54   28   30 1    
    55   29   57 1    
    56   29   58 1    
    57   29   59 1    
    58   30   35 ar   
    59   30   31 ar   
    60   31   32 ar   
    61   31   60 1    
    62   32   33 ar   
    63   32   61 1    
    64   33   34 ar   
    65   33   62 1    
    66   34   35 ar   
    67   34   63 1    
    68   35   64 1    
    69   36   65 1    
    70   36   66 1    
@<TRIPOS>SUBSTRUCTURE
     1 UNK         1 GROUP             0       ****    0 ROOT    
