@<TRIPOS>MOLECULE
ZINC15768464_4620
48   50    1
SMALL
USER_CHARGES


@<TRIPOS>ATOM
      1 C1          0.6206   49.4659   22.2240 C.ar      1 UNK         0.0000 
      2 C2         -0.5479   49.9304   21.6207 C.ar      1 UNK         0.0000 
      3 C3         -0.5479   51.1047   20.8505 C.ar      1 UNK         0.0000 
      4 C4          0.6658   51.7958   20.6930 C.ar      1 UNK         0.0000 
      5 C5          1.8430   51.3363   21.3095 C.ar      1 UNK         0.0000 
      6 C6          1.8125   50.1700   22.0753 C.ar      1 UNK         0.0000 
      7 N7          3.0338   52.0774   21.3205 N.am      1 UNK         0.0000 
      8 C8          3.5215   52.9011   20.3586 C.2       1 UNK         0.0000 
      9 O9          3.0486   52.9054   19.2222 O.2       1 UNK         0.0000 
     10 C10         4.5772   53.8433   20.7919 C.2       1 UNK         0.0000 
     11 C11         5.3039   54.5802   19.8971 C.2       1 UNK         0.0000 
     12 C12         5.3092   54.5534   18.4233 C.ar      1 UNK         0.0000 
     13 C13         5.0042   55.7060   17.7008 C.ar      1 UNK         0.0000 
     14 C14         4.9994   55.6755   16.3084 C.ar      1 UNK         0.0000 
     15 C15         5.3045   54.4913   15.6204 C.ar      1 UNK         0.0000 
     16 C16         5.6273   53.3424   16.3582 C.ar      1 UNK         0.0000 
     17 C17         5.6394   53.3824   17.7483 C.ar      1 UNK         0.0000 
     18 N18         5.2882   54.4550   14.1372 N.pl3     1 UNK         0.0000 
     19 O19         5.5521   53.3964   13.5712 O.co2     1 UNK         0.0000 
     20 O20         5.0143   55.4851   13.5270 O.co2     1 UNK         0.0000 
     21 N21         4.7373   53.9580   22.1610 N.am      1 UNK         0.0000 
     22 C22         5.7342   54.4851   22.9069 C.2       1 UNK         0.0000 
     23 O23         6.8049   54.8999   22.4629 O.2       1 UNK         0.0000 
     24 C24         5.4666   54.4946   24.3955 C.ar      1 UNK         0.0000 
     25 C25         4.1555   54.4946   24.9047 C.ar      1 UNK         0.0000 
     26 C26         3.9341   54.4808   26.2764 C.ar      1 UNK         0.0000 
     27 C27         5.0159   54.4873   27.1488 C.ar      1 UNK         0.0000 
     28 C28         6.3208   54.5023   26.6657 C.ar      1 UNK         0.0000 
     29 C29         6.5441   54.5074   25.2909 C.ar      1 UNK         0.0000 
     30 Br30        4.6977   54.4883   29.0198 Br        1 UNK         0.0000 
     31 C31        -1.8244   51.6220   20.2492 C.2       1 UNK         0.0000 
     32 O32        -2.9042   51.1642   20.6880 O.co2     1 UNK         0.0000 
     33 H33         0.5967   48.5710   22.8283 H         1 UNK         0.0000 
     34 H34        -1.4640   49.3755   21.7693 H         1 UNK         0.0000 
     35 H35         0.6830   52.7206   20.1312 H         1 UNK         0.0000 
     36 H36         2.7027   49.8123   22.5752 H         1 UNK         0.0000 
     37 H37         3.6386   51.8842   22.1001 H         1 UNK         0.0000 
     38 H38         6.0138   55.2982   20.2734 H         1 UNK         0.0000 
     39 H39         4.7572   56.6246   18.2129 H         1 UNK         0.0000 
     40 H40         4.7494   56.5797   15.7690 H         1 UNK         0.0000 
     41 H41         5.8629   52.4094   15.8669 H         1 UNK         0.0000 
     42 H42         5.8873   52.4970   18.3121 H         1 UNK         0.0000 
     43 H43         3.9380   53.6463   22.6891 H         1 UNK         0.0000 
     44 H44         3.2912   54.5081   24.2550 H         1 UNK         0.0000 
     45 H45         2.9254   54.4660   26.6635 H         1 UNK         0.0000 
     46 H46         7.1502   54.5073   27.3588 H         1 UNK         0.0000 
     47 H47         7.5575   54.5129   24.9157 H         1 UNK         0.0000 
     48 O48        -1.7636   52.4966   19.3558 O.co2     1 UNK         0.0000 
@<TRIPOS>BOND
     1    1    6 ar   
     2    1    2 ar   
     3    1   33 1    
     4    2    3 ar   
     5    2   34 1    
     6    3    4 ar   
     7    3   31 1    
     8    4    5 ar   
     9    4   35 1    
    10    5    6 ar   
    11    5    7 1    
    12    6   36 1    
    13    7    8 am   BACKBONE|DICT|INTERRES
    14    7   37 1    
    15    8    9 2    
    16    8   10 1    
    17   10   11 2    
    18   10   21 1    
    19   11   12 1    
    20   11   38 1    
    21   12   17 ar   
    22   12   13 ar   
    23   13   14 ar   
    24   13   39 1    
    25   14   15 ar   
    26   14   40 1    
    27   15   16 ar   
    28   15   18 1    
    29   16   17 ar   
    30   16   41 1    
    31   17   42 1    
    32   18   19 2    
    33   18   20 1    
    34   21   22 am   BACKBONE|DICT|INTERRES
    35   21   43 1    
    36   22   23 2    
    37   22   24 1    
    38   24   29 ar   
    39   24   25 ar   
    40   25   26 ar   
    41   25   44 1    
    42   26   27 ar   
    43   26   45 1    
    44   27   28 ar   
    45   27   30 1    
    46   28   29 ar   
    47   28   46 1    
    48   29   47 1    
    49   31   32 2    
    50   31   48 1    
@<TRIPOS>SUBSTRUCTURE
     1 UNK         1 GROUP             0       ****    0 ROOT    
