@<TRIPOS>MOLECULE
ZINC63778231_5119
55   58    1
SMALL
USER_CHARGES


@<TRIPOS>ATOM
      1 C1          6.7028   54.8241   22.7025 C.ar      1 UNK         0.0000 
      2 C2          7.2769   55.5856   21.6844 C.ar      1 UNK         0.0000 
      3 C3          6.6844   55.6198   20.4213 C.ar      1 UNK         0.0000 
      4 C4          5.5282   54.8834   20.1729 C.ar      1 UNK         0.0000 
      5 C5          4.9537   54.1011   21.1853 C.ar      1 UNK         0.0000 
      6 C6          5.5506   54.0827   22.4525 C.ar      1 UNK         0.0000 
      7 C7          3.6884   53.2939   20.9052 C.3       1 UNK         0.0000 
      8 N8          2.7534   53.2962   22.0283 N.am      1 UNK         0.0000 
      9 C9          2.2140   52.2169   22.6194 C.2       1 UNK         0.0000 
     10 O10         2.4049   51.0726   22.2102 O.2       1 UNK         0.0000 
     11 C11         1.2984   52.4396   23.8440 C.3       1 UNK         0.0000 
     12 H12         1.3378   51.5273   24.4440 H         1 UNK         0.0000 
     13 C13         1.6148   53.7027   24.7058 C.3       1 UNK         0.0000 
     14 C14         2.2045   53.4212   26.0746 C.2       1 UNK         0.0000 
     15 C15         3.4023   53.7374   26.6000 C.2       1 UNK         0.0000 
     16 C16         4.5645   54.4231   26.0132 C.2       1 UNK         0.0000 
     17 C17         5.6958   54.5903   26.7252 C.2       1 UNK         0.0000 
     18 C18         5.7238   54.0964   28.0958 C.2       1 UNK         0.0000 
     19 C19         4.6457   53.4882   28.6611 C.2       1 UNK         0.0000 
     20 C20         3.4725   53.2966   27.9259 C.2       1 UNK         0.0000 
     21 N21         2.3462   52.7296   28.2861 N.pl3     1 UNK         0.0000 
     22 C22         1.3998   52.7373   27.1614 C.3       1 UNK         0.0000 
     23 N23        -0.0651   52.5453   23.2782 N.pl3     1 UNK         0.0000 
     24 S24        -1.4882   52.1656   24.2329 S.o2      1 UNK         0.0000 
     25 O25        -1.2150   52.4962   25.6374 O.2       1 UNK         0.0000 
     26 O26        -2.6421   52.7307   23.5227 O.2       1 UNK         0.0000 
     27 C27        -1.6188   50.3956   24.1068 C.ar      1 UNK         0.0000 
     28 C28        -1.4463   49.5804   25.2300 C.ar      1 UNK         0.0000 
     29 C29        -1.5720   48.2015   25.0992 C.ar      1 UNK         0.0000 
     30 C30        -1.8746   47.6544   23.8515 C.ar      1 UNK         0.0000 
     31 C31        -2.0290   48.4653   22.7312 C.ar      1 UNK         0.0000 
     32 C32        -1.9000   49.8418   22.8568 C.ar      1 UNK         0.0000 
     33 Cl33       -2.0967   45.9591   23.6816 Cl        1 UNK         0.0000 
     34 F34         4.9725   54.9263   18.9399 F         1 UNK         0.0000 
     35 H35         7.1711   54.7925   23.6752 H         1 UNK         0.0000 
     36 H36         8.1913   56.1272   21.8766 H         1 UNK         0.0000 
     37 H37         7.1281   56.2034   19.6283 H         1 UNK         0.0000 
     38 H38         5.1341   53.4698   23.2388 H         1 UNK         0.0000 
     39 H39         3.1619   53.6951   20.0344 H         1 UNK         0.0000 
     40 H40         3.9951   52.2865   20.6084 H         1 UNK         0.0000 
     41 H41         2.4018   54.2074   22.2890 H         1 UNK         0.0000 
     42 H42         2.2657   54.4183   24.2057 H         1 UNK         0.0000 
     43 H43         0.7046   54.2675   24.8804 H         1 UNK         0.0000 
     44 H44         4.5417   54.8152   25.0065 H         1 UNK         0.0000 
     45 H45         6.5505   55.0949   26.3025 H         1 UNK         0.0000 
     46 H46         6.6248   54.2265   28.6824 H         1 UNK         0.0000 
     47 H47         4.7171   53.1422   29.6806 H         1 UNK         0.0000 
     48 H48         0.5114   53.2942   27.4695 H         1 UNK         0.0000 
     49 H49         1.1246   51.7053   26.9325 H         1 UNK         0.0000 
     50 H50        -0.1520   52.4895   22.2608 H         1 UNK         0.0000 
     51 H51        -1.2272   49.9959   26.2036 H         1 UNK         0.0000 
     52 H52        -1.4427   47.5708   25.9705 H         1 UNK         0.0000 
     53 H53        -2.2589   48.0295   21.7677 H         1 UNK         0.0000 
     54 H54        -2.0287   50.4740   21.9894 H         1 UNK         0.0000 
     55 H55         2.1413   52.3323   29.1976 H         1 UNK         0.0000 
@<TRIPOS>BOND
     1    1    6 ar   
     2    1    2 ar   
     3    1   35 1    
     4    2    3 ar   
     5    2   36 1    
     6    3    4 ar   
     7    3   37 1    
     8    4    5 ar   
     9    4   34 1    
    10    5    6 ar   
    11    5    7 1    
    12    6   38 1    
    13    7    8 1    
    14    7   39 1    
    15    7   40 1    
    16    8    9 am   BACKBONE|DICT|INTERRES
    17    8   41 1    
    18    9   10 2    
    19    9   11 1    
    20   11   12 1    
    21   11   13 1    
    22   11   23 1    
    23   13   14 1    
    24   13   42 1    
    25   13   43 1    
    26   14   22 1    
    27   14   15 2    
    28   15   20 1    
    29   15   16 1    
    30   16   17 2    
    31   16   44 1    
    32   17   18 1    
    33   17   45 1    
    34   18   19 2    
    35   18   46 1    
    36   19   20 1    
    37   19   47 1    
    38   20   21 2    
    39   21   22 1    
    40   21   55 1    
    41   22   48 1    
    42   22   49 1    
    43   23   24 1    
    44   23   50 1    
    45   24   25 2    
    46   24   26 2    
    47   24   27 1    
    48   27   32 ar   
    49   27   28 ar   
    50   28   29 ar   
    51   28   51 1    
    52   29   30 ar   
    53   29   52 1    
    54   30   31 ar   
    55   30   33 1    
    56   31   32 ar   
    57   31   53 1    
    58   32   54 1    
@<TRIPOS>SUBSTRUCTURE
     1 UNK         1 GROUP             0       ****    0 ROOT    
