@<TRIPOS>MOLECULE
ZINC22913452_1224
68   71    1
SMALL
USER_CHARGES


@<TRIPOS>ATOM
      1 C1          5.8687   53.4091   14.5733 C.3       1 UNK         0.0000 
      2 C2          5.9575   53.8534   16.0224 C.ar      1 UNK         0.0000 
      3 C3          6.9252   54.7852   16.4087 C.ar      1 UNK         0.0000 
      4 C4          7.0582   55.1930   17.7379 C.ar      1 UNK         0.0000 
      5 C5          6.1914   54.6411   18.6916 C.ar      1 UNK         0.0000 
      6 C6          5.2041   53.7043   18.2954 C.ar      1 UNK         0.0000 
      7 C7          5.0828   53.2974   16.9611 C.ar      1 UNK         0.0000 
      8 S8          4.2840   53.2097   19.7061 S.3       1 UNK         0.0000 
      9 C9          5.3084   54.2504   20.6750 C.2       1 UNK         0.0000 
     10 N10         6.2211   54.9205   20.0216 N.2       1 UNK         0.0000 
     11 C11         5.1727   54.2769   22.1619 C.ar      1 UNK         0.0000 
     12 C12         3.9326   54.0810   22.7780 C.ar      1 UNK         0.0000 
     13 C13         3.8296   54.0940   24.1662 C.ar      1 UNK         0.0000 
     14 C14         4.9627   54.3028   24.9555 C.ar      1 UNK         0.0000 
     15 C15         6.2067   54.5044   24.3372 C.ar      1 UNK         0.0000 
     16 C16         6.3050   54.4969   22.9514 C.ar      1 UNK         0.0000 
     17 N17         4.7583   54.2691   26.3468 N.am      1 UNK         0.0000 
     18 C18         5.6235   54.4968   27.3585 C.2       1 UNK         0.0000 
     19 O19         6.8008   54.8144   27.1970 O.2       1 UNK         0.0000 
     20 C20         5.1117   54.3637   28.8168 C.3       1 UNK         0.0000 
     21 N21         3.6887   53.9798   28.9807 N.3       1 UNK         0.0000 
     22 C22         2.6807   55.0003   28.6667 C.3       1 UNK         0.0000 
     23 C23         1.3722   54.9149   29.4719 C.3       1 UNK         0.0000 
     24 C24         0.3076   53.9161   28.9664 C.3       1 UNK         0.0000 
     25 N25         0.8508   52.5378   28.5089 N.4       1 UNK         0.0000 
     26 C26         2.0508   52.0158   29.3333 C.3       1 UNK         0.0000 
     27 C27         3.3882   52.5573   28.7917 C.3       1 UNK         0.0000 
     28 C28        -0.2815   51.4854   28.3088 C.3       1 UNK         0.0000 
     29 C29        -0.8354   51.5470   26.8767 C.2       1 UNK         0.0000 
     30 O30        -0.5696   52.4957   26.1367 O.2       1 UNK         0.0000 
     31 N31        -1.5878   50.4968   26.5029 N.am      1 UNK         0.0000 
     32 C32        -2.1998   50.2626   25.1928 C.3       1 UNK         0.0000 
     33 C33        -3.2500   51.3238   24.8065 C.3       1 UNK         0.0000 
     34 C34        -1.1602   50.0204   24.0823 C.3       1 UNK         0.0000 
     35 H35         6.8174   53.5451   14.0544 H         1 UNK         0.0000 
     36 H36         5.6304   52.3464   14.5134 H         1 UNK         0.0000 
     37 H37         5.0918   53.9635   14.0465 H         1 UNK         0.0000 
     38 H38         7.5921   55.1998   15.6661 H         1 UNK         0.0000 
     39 H39         7.8162   55.9065   18.0242 H         1 UNK         0.0000 
     40 H40         4.3485   52.5559   16.6759 H         1 UNK         0.0000 
     41 H41         3.0439   53.9223   22.1842 H         1 UNK         0.0000 
     42 H42         2.8618   53.9361   24.6188 H         1 UNK         0.0000 
     43 H43         7.1178   54.6580   24.8911 H         1 UNK         0.0000 
     44 H44         7.2734   54.6512   22.4950 H         1 UNK         0.0000 
     45 H45         3.8245   54.0343   26.6400 H         1 UNK         0.0000 
     46 H46         5.3086   55.2965   29.3493 H         1 UNK         0.0000 
     47 H47         5.7392   53.6051   29.2804 H         1 UNK         0.0000 
     48 H48         3.1049   55.9834   28.8815 H         1 UNK         0.0000 
     49 H49         2.4841   54.9968   27.5941 H         1 UNK         0.0000 
     50 H50         0.9178   55.9059   29.4983 H         1 UNK         0.0000 
     51 H51         1.6019   54.6678   30.5072 H         1 UNK         0.0000 
     52 H52        -0.2185   54.2956   28.0903 H         1 UNK         0.0000 
     53 H53        -0.4252   53.7186   29.7511 H         1 UNK         0.0000 
     54 H54         1.8690   52.2395   30.3852 H         1 UNK         0.0000 
     55 H55         2.0698   50.9309   29.2447 H         1 UNK         0.0000 
     56 H56         4.2153   51.9143   29.0967 H         1 UNK         0.0000 
     57 H57         3.3174   52.4086   27.7136 H         1 UNK         0.0000 
     58 H58        -1.0498   51.6498   29.0655 H         1 UNK         0.0000 
     59 H59         0.1306   50.4968   28.4825 H         1 UNK         0.0000 
     60 H60        -1.6953   49.7379   27.1761 H         1 UNK         0.0000 
     61 H61        -2.7474   49.3239   25.3105 H         1 UNK         0.0000 
     62 H62        -3.6739   51.1062   23.8268 H         1 UNK         0.0000 
     63 H63        -2.8167   52.3225   24.7395 H         1 UNK         0.0000 
     64 H64        -4.0795   51.3419   25.5132 H         1 UNK         0.0000 
     65 H65        -1.6474   49.8547   23.1225 H         1 UNK         0.0000 
     66 H66        -0.4989   50.8778   23.9507 H         1 UNK         0.0000 
     67 H67        -0.5549   49.1368   24.2894 H         1 UNK         0.0000 
     68 H68         1.2275   52.6642   27.5773 H         1 UNK         0.0000 
@<TRIPOS>BOND
     1    1    2 1    
     2    1   35 1    
     3    1   36 1    
     4    1   37 1    
     5    2    7 ar   
     6    2    3 ar   
     7    3    4 ar   
     8    3   38 1    
     9    4    5 ar   
    10    4   39 1    
    11    5   10 1    
    12    5    6 ar   
    13    6    7 ar   
    14    6    8 1    
    15    7   40 1    
    16    8    9 1    
    17    9   10 2    
    18    9   11 1    
    19   11   16 ar   
    20   11   12 ar   
    21   12   13 ar   
    22   12   41 1    
    23   13   14 ar   
    24   13   42 1    
    25   14   15 ar   
    26   14   17 1    
    27   15   16 ar   
    28   15   43 1    
    29   16   44 1    
    30   17   18 am   BACKBONE|DICT|INTERRES
    31   17   45 1    
    32   18   19 2    
    33   18   20 1    
    34   20   21 1    
    35   20   46 1    
    36   20   47 1    
    37   21   27 1    
    38   21   22 1    
    39   22   23 1    
    40   22   48 1    
    41   22   49 1    
    42   23   24 1    
    43   23   50 1    
    44   23   51 1    
    45   24   25 1    
    46   24   52 1    
    47   24   53 1    
    48   25   26 1    
    49   25   28 1    
    50   25   68 1    
    51   26   27 1    
    52   26   54 1    
    53   26   55 1    
    54   27   56 1    
    55   27   57 1    
    56   28   29 1    
    57   28   58 1    
    58   28   59 1    
    59   29   30 2    
    60   29   31 am   BACKBONE|DICT|INTERRES
    61   31   32 1    
    62   31   60 1    
    63   32   33 1    
    64   32   34 1    
    65   32   61 1    
    66   33   62 1    
    67   33   63 1    
    68   33   64 1    
    69   34   65 1    
    70   34   66 1    
    71   34   67 1    
@<TRIPOS>SUBSTRUCTURE
     1 UNK         1 GROUP             0       ****    0 ROOT    
