ZINC39937073_4248
                    3D
 Schrodinger Suite 2024-2.
 76 78  0  0  1  0            999 V2000
    1.8327   52.3401   27.6285 C   0  0  0  0  0  0
    0.8546   52.3393   26.4769 C   0  0  0  0  0  0
   -0.4237   52.0963   26.6389 N   0  0  0  0  0  0
   -1.1036   52.1350   25.5080 C   0  0  0  0  0  0
   -0.3435   52.3836   24.3683 C   0  0  0  0  0  0
    1.3121   52.6329   24.8281 S   0  0  0  0  0  0
   -2.5268   51.8640   25.6040 C   0  0  0  0  0  0
   -3.5722   52.4815   25.0140 C   0  0  0  0  0  0
   -3.4277   53.7016   24.1255 C   0  0  0  0  0  0
   -5.0194   51.9942   25.2009 C   0  0  2  0  0  0
   -5.6655   52.4923   24.4734 H   0  0  0  0  0  0
   -5.5295   52.3288   26.6217 C   0  0  0  0  0  0
   -6.9489   51.8207   26.9624 C   0  0  1  0  0  0
   -7.6350   51.8049   26.1147 H   0  0  0  0  0  0
   -7.2348   50.9713   28.1878 C   0  0  1  0  0  0
   -7.4911   52.3463   28.1491 O   0  0  0  0  0  0
   -8.4982   50.0759   28.2126 C   0  0  0  0  0  0
   -8.2721   48.5482   28.1483 C   0  0  0  0  0  0
   -7.7185   48.0523   26.7974 C   0  0  0  0  0  0
   -7.5745   46.5067   26.6181 C   0  0  1  0  0  0
   -7.1862   46.3775   25.6070 H   0  0  0  0  0  0
   -6.5481   45.7870   27.5542 C   0  0  1  0  0  0
   -6.4881   44.7428   27.2447 H   0  0  0  0  0  0
   -5.1128   46.3937   27.5200 C   0  0  2  0  0  0
   -5.2593   47.4646   27.6215 H   0  0  0  0  0  0
   -4.3769   46.1265   26.1763 C   0  0  0  0  0  0
   -4.5550   45.0602   25.5825 O   0  0  0  0  0  0
   -3.3731   47.1780   25.5989 C   0  0  0  0  0  0
   -3.6976   47.6590   24.1315 C   0  0  2  0  0  0
   -2.8697   48.2988   23.8121 H   0  0  0  0  0  0
   -5.0400   48.4271   23.9236 C   0  0  0  0  0  0
   -4.8933   49.9547   23.8313 C   0  0  0  0  0  0
   -4.5347   50.4966   22.7844 O   0  0  0  0  0  0
   -5.1717   50.5844   25.0026 O   0  0  0  0  0  0
   -3.6681   46.5875   23.2028 O   0  0  0  0  0  0
   -1.9565   46.5358   25.6614 C   0  0  0  0  0  0
   -3.2963   48.4303   26.5033 C   0  0  0  0  0  0
   -4.2197   45.9728   28.7190 C   0  0  0  0  0  0
   -7.0396   45.7317   28.8820 O   0  0  0  0  0  0
   -8.9461   45.7964   26.6025 C   0  0  0  0  0  0
   -6.1130   50.5383   29.1546 C   0  0  0  0  0  0
    1.9661   51.3360   28.0378 H   0  0  0  0  0  0
    1.4960   52.9776   28.4483 H   0  0  0  0  0  0
    2.8216   52.6971   27.3344 H   0  0  0  0  0  0
   -0.6550   52.4310   23.3344 H   0  0  0  0  0  0
   -2.7535   51.0490   26.2677 H   0  0  0  0  0  0
   -4.0951   53.6180   23.2818 H   0  0  0  0  0  0
   -3.7145   54.5933   24.6784 H   0  0  0  0  0  0
   -2.4238   53.8602   23.7444 H   0  0  0  0  0  0
   -4.8050   51.9601   27.3440 H   0  0  0  0  0  0
   -5.5239   53.4151   26.7347 H   0  0  0  0  0  0
   -9.0310   50.2977   29.1390 H   0  0  0  0  0  0
   -9.1859   50.3767   27.4217 H   0  0  0  0  0  0
   -9.2250   48.0577   28.3485 H   0  0  0  0  0  0
   -7.6116   48.2593   28.9622 H   0  0  0  0  0  0
   -6.7645   48.5424   26.6150 H   0  0  0  0  0  0
   -8.3702   48.4245   26.0063 H   0  0  0  0  0  0
   -5.7398   48.1822   24.7190 H   0  0  0  0  0  0
   -5.5288   48.1080   23.0048 H   0  0  0  0  0  0
   -3.7968   46.9461   22.3218 H   0  0  0  0  0  0
   -1.1824   47.2516   25.3766 H   0  0  0  0  0  0
   -1.6974   46.1864   26.6618 H   0  0  0  0  0  0
   -1.8584   45.6978   24.9735 H   0  0  0  0  0  0
   -2.3965   49.0069   26.3001 H   0  0  0  0  0  0
   -4.1520   49.0724   26.4103 H   0  0  0  0  0  0
   -3.2957   48.2132   27.5655 H   0  0  0  0  0  0
   -3.1764   46.2739   28.6108 H   0  0  0  0  0  0
   -4.5673   46.4359   29.6441 H   0  0  0  0  0  0
   -4.2187   44.8974   28.8678 H   0  0  0  0  0  0
   -7.3051   46.6162   29.1419 H   0  0  0  0  0  0
   -9.4426   45.8428   27.5732 H   0  0  0  0  0  0
   -9.6163   46.2434   25.8692 H   0  0  0  0  0  0
   -8.8386   44.7431   26.3418 H   0  0  0  0  0  0
   -5.5564   49.6885   28.7585 H   0  0  0  0  0  0
   -5.4022   51.3410   29.3512 H   0  0  0  0  0  0
   -6.5264   50.2489   30.1221 H   0  0  0  0  0  0
  1  2  1  0  0  0
  1 42  1  0  0  0
  1 43  1  0  0  0
  1 44  1  0  0  0
  2  6  1  0  0  0
  2  3  2  0  0  0
  3  4  1  0  0  0
  4  5  2  0  0  0
  4  7  1  0  0  0
  5  6  1  0  0  0
  5 45  1  0  0  0
  7  8  2  0  0  0
  7 46  1  0  0  0
  8  9  1  0  0  0
  8 10  1  0  0  0
  9 47  1  0  0  0
  9 48  1  0  0  0
  9 49  1  0  0  0
 10 11  1  0  0  0
 10 34  1  0  0  0
 10 12  1  0  0  0
 12 13  1  0  0  0
 12 50  1  0  0  0
 12 51  1  0  0  0
 13 14  1  0  0  0
 13 16  1  0  0  0
 13 15  1  0  0  0
 15 16  1  0  0  0
 15 17  1  0  0  0
 15 41  1  0  0  0
 17 18  1  0  0  0
 17 52  1  0  0  0
 17 53  1  0  0  0
 18 19  1  0  0  0
 18 54  1  0  0  0
 18 55  1  0  0  0
 19 20  1  0  0  0
 19 56  1  0  0  0
 19 57  1  0  0  0
 20 21  1  0  0  0
 20 22  1  0  0  0
 20 40  1  0  0  0
 22 23  1  0  0  0
 22 24  1  0  0  0
 22 39  1  0  0  0
 24 25  1  0  0  0
 24 26  1  0  0  0
 24 38  1  0  0  0
 26 27  2  0  0  0
 26 28  1  0  0  0
 28 29  1  0  0  0
 28 36  1  0  0  0
 28 37  1  0  0  0
 29 30  1  0  0  0
 29 31  1  0  0  0
 29 35  1  0  0  0
 31 32  1  0  0  0
 31 58  1  0  0  0
 31 59  1  0  0  0
 32 33  2  0  0  0
 32 34  1  0  0  0
 35 60  1  0  0  0
 36 61  1  0  0  0
 36 62  1  0  0  0
 36 63  1  0  0  0
 37 64  1  0  0  0
 37 65  1  0  0  0
 37 66  1  0  0  0
 38 67  1  0  0  0
 38 68  1  0  0  0
 38 69  1  0  0  0
 39 70  1  0  0  0
 40 71  1  0  0  0
 40 72  1  0  0  0
 40 73  1  0  0  0
 41 74  1  0  0  0
 41 75  1  0  0  0
 41 76  1  0  0  0
M  END
> <i_i_glide_confnum>
7

> <i_i_glide_lignum>
4249

> <i_i_glide_posenum>
256

> <i_i_glide_rotatable_bonds>
4

> <i_m_Source_File_Index>
2545

> <b_m_subgroup_collapsed>
0

> <r_i_docking_score>
-2.80064

> <r_i_glide_ecoul>
-5.38035

> <r_i_glide_eff_state_penalty>
0

> <r_i_glide_einternal>
5.67973

> <r_i_glide_emodel>
-31.9057

> <r_i_glide_energy>
-27.7895

> <r_i_glide_erotb>
0.158827

> <r_i_glide_esite>
-0.0426249

> <r_i_glide_evdw>
-22.4092

> <r_i_glide_gscore>
-2.80064

> <r_i_glide_hbond>
-0.197035

> <r_i_glide_ligand_efficiency>
-0.0800183

> <r_i_glide_ligand_efficiency_ln>
-0.614803

> <r_i_glide_ligand_efficiency_sa>
-0.261745

> <r_i_glide_lipo>
-0.791937

> <r_i_glide_metal>
0

> <r_i_glide_rewards>
-0.000359223

> <s_i_glide_gridfile>
wee1_glide-grid

> <s_m_Source_File>
wee1_decoys_glide_SP.sdf

> <s_m_Source_Path>
/Users/zhangxujun/Desktop

> <s_m_entry_id>
2820

> <s_m_entry_name>
wee1_decoys_glide_SP.2545

> <s_m_subgroup_title>
wee1_decoys_glide_SP

> <s_m_subgroupid>
wee1_decoys_glide_SP


$$$$
