@<TRIPOS>MOLECULE
ZINC40427371_5417
72   76    1
SMALL
USER_CHARGES


@<TRIPOS>ATOM
      1 C1          4.2198   58.3179   16.4647 C.ar      1 UNK         0.0000 
      2 C2          5.5892   58.0803   16.4063 C.ar      1 UNK         0.0000 
      3 C3          6.0809   56.8146   16.7240 C.ar      1 UNK         0.0000 
      4 C4          5.2113   55.7909   17.1342 C.ar      1 UNK         0.0000 
      5 C5          3.8355   56.0545   17.1806 C.ar      1 UNK         0.0000 
      6 C6          3.3410   57.3110   16.8436 C.ar      1 UNK         0.0000 
      7 C7          5.7008   54.3774   17.5402 C.3       1 UNK         0.0000 
      8 C8          7.2093   54.0746   17.4668 C.ar      1 UNK         0.0000 
      9 C9          8.1493   54.8628   18.1460 C.ar      1 UNK         0.0000 
     10 C10         9.5085   54.5777   18.0478 C.ar      1 UNK         0.0000 
     11 C11         9.9333   53.4958   17.2814 C.ar      1 UNK         0.0000 
     12 C12         9.0101   52.6919   16.6184 C.ar      1 UNK         0.0000 
     13 C13         7.6517   52.9839   16.7076 C.ar      1 UNK         0.0000 
     14 N14         5.1162   53.8816   18.7975 N.am      1 UNK         0.0000 
     15 C15         5.1917   54.4689   20.0069 C.2       1 UNK         0.0000 
     16 O16         5.8028   55.5232   20.1988 O.2       1 UNK         0.0000 
     17 C17         4.4314   53.7439   21.1446 C.3       1 UNK         0.0000 
     18 N18         4.6395   54.3752   22.4630 N.3       1 UNK         0.0000 
     19 C19         3.5959   53.9800   23.4122 C.3       1 UNK         0.0000 
     20 C20         3.7580   54.6310   24.8112 C.3       1 UNK         0.0000 
     21 N21         5.1540   54.4915   25.2946 N.am      1 UNK         0.0000 
     22 C22         6.1887   54.9067   24.3137 C.3       1 UNK         0.0000 
     23 C23         5.9796   54.1247   23.0051 C.3       1 UNK         0.0000 
     24 C24         5.5734   54.1607   26.5600 C.2       1 UNK         0.0000 
     25 O25         6.7668   54.2664   26.8740 O.2       1 UNK         0.0000 
     26 C26         4.6718   53.6311   27.5922 C.2       1 UNK         0.0000 
     27 C27         5.1045   53.3216   28.8816 C.2       1 UNK         0.0000 
     28 S28         3.8572   52.5237   29.7871 S.3       1 UNK         0.0000 
     29 C29         2.8352   52.7118   28.4110 C.2       1 UNK         0.0000 
     30 N30         3.4091   53.2963   27.3878 N.2       1 UNK         0.0000 
     31 N31         1.5501   52.2276   28.4567 N.pl3     1 UNK         0.0000 
     32 C32         0.5090   52.3647   27.4430 C.3       1 UNK         0.0000 
     33 C33         0.9227   51.6852   26.1182 C.3       1 UNK         0.0000 
     34 C34        -0.1864   51.8534   25.0582 C.3       1 UNK         0.0000 
     35 C35        -1.5417   51.3138   25.5646 C.3       1 UNK         0.0000 
     36 C36        -1.9210   51.8791   26.9523 C.3       1 UNK         0.0000 
     37 C37        -0.7777   51.6970   27.9690 C.3       1 UNK         0.0000 
     38 H38         3.8383   59.2983   16.2151 H         1 UNK         0.0000 
     39 H39         6.2603   58.8773   16.1172 H         1 UNK         0.0000 
     40 H40         7.1456   56.6542   16.6476 H         1 UNK         0.0000 
     41 H41         3.1444   55.2832   17.4949 H         1 UNK         0.0000 
     42 H42         2.2793   57.5160   16.8856 H         1 UNK         0.0000 
     43 H43         5.2411   53.7443   16.7788 H         1 UNK         0.0000 
     44 H44         7.8330   55.7035   18.7451 H         1 UNK         0.0000 
     45 H45        10.2310   55.1958   18.5571 H         1 UNK         0.0000 
     46 H46        10.9873   53.2676   17.2145 H         1 UNK         0.0000 
     47 H47         9.3468   51.8411   16.0433 H         1 UNK         0.0000 
     48 H48         6.9469   52.3478   16.1933 H         1 UNK         0.0000 
     49 H49         4.6691   52.9792   18.7368 H         1 UNK         0.0000 
     50 H50         3.3707   53.7964   20.8786 H         1 UNK         0.0000 
     51 H51         4.7092   52.6856   21.1663 H         1 UNK         0.0000 
     52 H52         2.6147   54.2461   23.0117 H         1 UNK         0.0000 
     53 H53         3.6602   52.8970   23.5391 H         1 UNK         0.0000 
     54 H54         3.5569   55.6964   24.7442 H         1 UNK         0.0000 
     55 H55         2.9641   54.2286   25.4206 H         1 UNK         0.0000 
     56 H56         7.2097   54.7129   24.6486 H         1 UNK         0.0000 
     57 H57         6.1139   55.9746   24.1104 H         1 UNK         0.0000 
     58 H58         6.0952   53.0556   23.1981 H         1 UNK         0.0000 
     59 H59         6.7534   54.4342   22.3024 H         1 UNK         0.0000 
     60 H60         6.0960   53.4737   29.2812 H         1 UNK         0.0000 
     61 H61         1.1678   51.9232   29.3381 H         1 UNK         0.0000 
     62 H62         0.3313   53.4276   27.2817 H         1 UNK         0.0000 
     63 H63         1.8493   52.1006   25.7241 H         1 UNK         0.0000 
     64 H64         1.1023   50.6209   26.2832 H         1 UNK         0.0000 
     65 H65        -0.2872   52.9081   24.7983 H         1 UNK         0.0000 
     66 H66         0.0989   51.3387   24.1381 H         1 UNK         0.0000 
     67 H67        -2.3293   51.5359   24.8419 H         1 UNK         0.0000 
     68 H68        -1.4899   50.2255   25.6286 H         1 UNK         0.0000 
     69 H69        -2.1677   52.9365   26.8531 H         1 UNK         0.0000 
     70 H70        -2.8229   51.3879   27.3196 H         1 UNK         0.0000 
     71 H71        -0.6113   50.6276   28.1163 H         1 UNK         0.0000 
     72 H72        -1.0723   52.1073   28.9367 H         1 UNK         0.0000 
@<TRIPOS>BOND
     1    1    6 ar   
     2    1    2 ar   
     3    1   38 1    
     4    2    3 ar   
     5    2   39 1    
     6    3    4 ar   
     7    3   40 1    
     8    4    5 ar   
     9    4    7 1    
    10    5    6 ar   
    11    5   41 1    
    12    6   42 1    
    13    7    8 1    
    14    7   14 1    
    15    7   43 1    
    16    8   13 ar   
    17    8    9 ar   
    18    9   10 ar   
    19    9   44 1    
    20   10   11 ar   
    21   10   45 1    
    22   11   12 ar   
    23   11   46 1    
    24   12   13 ar   
    25   12   47 1    
    26   13   48 1    
    27   14   15 am   BACKBONE|DICT|INTERRES
    28   14   49 1    
    29   15   16 2    
    30   15   17 1    
    31   17   18 1    
    32   17   50 1    
    33   17   51 1    
    34   18   23 1    
    35   18   19 1    
    36   19   20 1    
    37   19   52 1    
    38   19   53 1    
    39   20   21 1    
    40   20   54 1    
    41   20   55 1    
    42   21   22 1    
    43   21   24 am   BACKBONE|DICT|INTERRES
    44   22   23 1    
    45   22   56 1    
    46   22   57 1    
    47   23   58 1    
    48   23   59 1    
    49   24   25 2    
    50   24   26 1    
    51   26   30 1    
    52   26   27 2    
    53   27   28 1    
    54   27   60 1    
    55   28   29 1    
    56   29   30 2    
    57   29   31 1    
    58   31   32 1    
    59   31   61 1    
    60   32   37 1    
    61   32   33 1    
    62   32   62 1    
    63   33   34 1    
    64   33   63 1    
    65   33   64 1    
    66   34   35 1    
    67   34   65 1    
    68   34   66 1    
    69   35   36 1    
    70   35   67 1    
    71   35   68 1    
    72   36   37 1    
    73   36   69 1    
    74   36   70 1    
    75   37   71 1    
    76   37   72 1    
@<TRIPOS>SUBSTRUCTURE
     1 UNK         1 GROUP             0       ****    0 ROOT    
