@<TRIPOS>MOLECULE
ZINC06575758_2554
50   53    1
SMALL
USER_CHARGES


@<TRIPOS>ATOM
      1 C1          0.7885   53.9733   29.6831 C.ar      1 UNK         0.0000 
      2 C2          1.8129   54.8120   29.2491 C.ar      1 UNK         0.0000 
      3 C3          2.3493   54.6404   27.9750 C.ar      1 UNK         0.0000 
      4 C4          1.8468   53.6503   27.1213 C.ar      1 UNK         0.0000 
      5 C5          0.8233   52.8098   27.5749 C.ar      1 UNK         0.0000 
      6 C6          0.2984   52.9672   28.8541 C.ar      1 UNK         0.0000 
      7 C7          2.4196   53.4326   25.7164 C.3       1 UNK         0.0000 
      8 H8          2.7046   52.3863   25.7081 H         1 UNK         0.0000 
      9 C9          1.4221   53.6977   24.5590 C.3       1 UNK         0.0000 
     10 C10         2.0048   53.2037   23.2191 C.3       1 UNK         0.0000 
     11 H11         1.4391   53.6462   22.3966 H         1 UNK         0.0000 
     12 C12         3.4418   53.7004   23.0907 C.ar      1 UNK         0.0000 
     13 C13         4.0937   53.7348   21.8531 C.ar      1 UNK         0.0000 
     14 C14         5.4266   54.1319   21.7527 C.ar      1 UNK         0.0000 
     15 C15         6.1384   54.4965   22.8953 C.ar      1 UNK         0.0000 
     16 C16         5.5053   54.4873   24.1368 C.ar      1 UNK         0.0000 
     17 C17         4.1695   54.0965   24.2340 C.ar      1 UNK         0.0000 
     18 O18         3.6159   54.1900   25.4985 O.3       1 UNK         0.0000 
     19 N19         1.9043   51.7414   23.0903 N.pl3     1 UNK         0.0000 
     20 C20         0.8166   51.0355   22.6639 C.2       1 UNK         0.0000 
     21 S21        -0.5682   51.6972   21.9721 S.2       1 UNK         0.0000 
     22 N22         0.9757   49.7005   22.9095 N.pl3     1 UNK         0.0000 
     23 N23        -0.0981   48.8175   23.0378 N.am      1 UNK         0.0000 
     24 C24        -0.5119   48.4947   24.2830 C.2       1 UNK         0.0000 
     25 O25         0.0495   48.8969   25.3068 O.2       1 UNK         0.0000 
     26 C26        -1.7402   47.6096   24.3754 C.ar      1 UNK         0.0000 
     27 C27        -2.0957   47.0598   25.6136 C.ar      1 UNK         0.0000 
     28 C28        -3.2573   46.3094   25.7581 C.ar      1 UNK         0.0000 
     29 C29        -4.0781   46.0971   24.6542 C.ar      1 UNK         0.0000 
     30 C30        -3.7346   46.6147   23.4074 C.ar      1 UNK         0.0000 
     31 C31        -2.5710   47.3697   23.2666 C.ar      1 UNK         0.0000 
     32 H32         0.3728   54.0994   30.6733 H         1 UNK         0.0000 
     33 H33         2.1909   55.5901   29.8955 H         1 UNK         0.0000 
     34 H34         3.1534   55.2830   27.6497 H         1 UNK         0.0000 
     35 H35         0.4390   52.0222   26.9415 H         1 UNK         0.0000 
     36 H36        -0.4876   52.3105   29.2003 H         1 UNK         0.0000 
     37 H37         1.2704   54.7742   24.4815 H         1 UNK         0.0000 
     38 H38         0.4412   53.2687   24.7686 H         1 UNK         0.0000 
     39 H39         3.5606   53.4450   20.9571 H         1 UNK         0.0000 
     40 H40         5.9047   54.1511   20.7842 H         1 UNK         0.0000 
     41 H41         7.1728   54.8001   22.8194 H         1 UNK         0.0000 
     42 H42         6.0439   54.7902   25.0223 H         1 UNK         0.0000 
     43 H43         2.6731   51.2175   23.4817 H         1 UNK         0.0000 
     44 H44         1.8693   49.2349   22.8280 H         1 UNK         0.0000 
     45 H45        -0.2437   48.2446   22.2222 H         1 UNK         0.0000 
     46 H46        -1.4785   47.2478   26.4817 H         1 UNK         0.0000 
     47 H47        -3.5249   45.9174   26.7295 H         1 UNK         0.0000 
     48 H48        -4.9953   45.5379   24.7674 H         1 UNK         0.0000 
     49 H49        -4.3802   46.4530   22.5573 H         1 UNK         0.0000 
     50 H50        -2.3504   47.7861   22.2949 H         1 UNK         0.0000 
@<TRIPOS>BOND
     1    1    6 ar   
     2    1    2 ar   
     3    1   32 1    
     4    2    3 ar   
     5    2   33 1    
     6    3    4 ar   
     7    3   34 1    
     8    4    5 ar   
     9    4    7 1    
    10    5    6 ar   
    11    5   35 1    
    12    6   36 1    
    13    7    8 1    
    14    7   18 1    
    15    7    9 1    
    16    9   10 1    
    17    9   37 1    
    18    9   38 1    
    19   10   11 1    
    20   10   12 1    
    21   10   19 1    
    22   12   17 ar   
    23   12   13 ar   
    24   13   14 ar   
    25   13   39 1    
    26   14   15 ar   
    27   14   40 1    
    28   15   16 ar   
    29   15   41 1    
    30   16   17 ar   
    31   16   42 1    
    32   17   18 1    
    33   19   20 1    
    34   19   43 1    
    35   20   21 2    
    36   20   22 1    
    37   22   23 1    
    38   22   44 1    
    39   23   24 am   BACKBONE|DICT|INTERRES
    40   23   45 1    
    41   24   25 2    
    42   24   26 1    
    43   26   31 ar   
    44   26   27 ar   
    45   27   28 ar   
    46   27   46 1    
    47   28   29 ar   
    48   28   47 1    
    49   29   30 ar   
    50   29   48 1    
    51   30   31 ar   
    52   30   49 1    
    53   31   50 1    
@<TRIPOS>SUBSTRUCTURE
     1 UNK         1 GROUP             0       ****    0 ROOT    
