@<TRIPOS>MOLECULE
ZINC37309192_1630
39   40    1
SMALL
USER_CHARGES


@<TRIPOS>ATOM
      1 C1          4.6926   53.5105   17.9296 C.3       1 UNK         0.0000 
      2 C2          5.1560   53.5214   19.3978 C.3       1 UNK         0.0000 
      3 C3          5.5417   54.9455   19.8651 C.3       1 UNK         0.0000 
      4 C4          5.9283   55.0033   21.3620 C.3       1 UNK         0.0000 
      5 C5          4.8574   54.3538   22.2715 C.3       1 UNK         0.0000 
      6 C6          4.5725   52.9051   21.8115 C.3       1 UNK         0.0000 
      7 C7          4.1028   52.8966   20.3419 C.3       1 UNK         0.0000 
      8 O8          5.3235   54.4484   23.6232 O.3       1 UNK         0.0000 
      9 C9          4.5037   54.2293   24.7241 C.ar      1 UNK         0.0000 
     10 C10         3.1220   53.9877   24.5995 C.ar      1 UNK         0.0000 
     11 C11         2.3388   53.6967   25.7156 C.ar      1 UNK         0.0000 
     12 C12         2.9139   53.6582   26.9817 C.ar      1 UNK         0.0000 
     13 C13         4.2748   53.9203   27.1273 C.ar      1 UNK         0.0000 
     14 C14         5.0817   54.2190   26.0168 C.ar      1 UNK         0.0000 
     15 C15         6.5244   54.5572   26.2567 C.2       1 UNK         0.0000 
     16 O16         7.0741   54.0931   27.2804 O.co2     1 UNK         0.0000 
     17 O17         7.1042   55.3340   25.4668 O.co2     1 UNK         0.0000 
     18 S18         1.9083   53.2729   28.4132 S.o2      1 UNK         0.0000 
     19 O19         0.8597   54.2943   28.4807 O.2       1 UNK         0.0000 
     20 O20         2.7973   53.0159   29.5520 O.2       1 UNK         0.0000 
     21 N21         1.1253   51.7677   28.0174 N.pl3     1 UNK         0.0000 
     22 H22         3.8040   54.1262   17.7851 H         1 UNK         0.0000 
     23 H23         5.4719   53.8930   17.2688 H         1 UNK         0.0000 
     24 H24         4.4560   52.4972   17.5999 H         1 UNK         0.0000 
     25 H25         6.0499   52.9016   19.4789 H         1 UNK         0.0000 
     26 H26         4.7044   55.6186   19.6821 H         1 UNK         0.0000 
     27 H27         6.3455   55.3400   19.2421 H         1 UNK         0.0000 
     28 H28         6.0746   56.0462   21.6420 H         1 UNK         0.0000 
     29 H29         6.8828   54.4968   21.4982 H         1 UNK         0.0000 
     30 H30         3.9477   54.9494   22.1705 H         1 UNK         0.0000 
     31 H31         5.4759   52.2993   21.8911 H         1 UNK         0.0000 
     32 H32         3.7989   52.4455   22.4237 H         1 UNK         0.0000 
     33 H33         3.8760   51.8793   20.0185 H         1 UNK         0.0000 
     34 H34         3.1586   53.4385   20.2481 H         1 UNK         0.0000 
     35 H35         2.6301   54.0038   23.6395 H         1 UNK         0.0000 
     36 H36         1.2839   53.4985   25.5944 H         1 UNK         0.0000 
     37 H37         4.7105   53.9023   28.1191 H         1 UNK         0.0000 
     38 H38         1.5901   50.9498   28.4153 H         1 UNK         0.0000 
     39 H39         0.1111   51.7801   28.1791 H         1 UNK         0.0000 
@<TRIPOS>BOND
     1    1    2 1    
     2    1   22 1    
     3    1   23 1    
     4    1   24 1    
     5    2    7 1    
     6    2    3 1    
     7    2   25 1    
     8    3    4 1    
     9    3   26 1    
    10    3   27 1    
    11    4    5 1    
    12    4   28 1    
    13    4   29 1    
    14    5    6 1    
    15    5    8 1    
    16    5   30 1    
    17    6    7 1    
    18    6   31 1    
    19    6   32 1    
    20    7   33 1    
    21    7   34 1    
    22    8    9 1    
    23    9   14 ar   
    24    9   10 ar   
    25   10   11 ar   
    26   10   35 1    
    27   11   12 ar   
    28   11   36 1    
    29   12   13 ar   
    30   12   18 1    
    31   13   14 ar   
    32   13   37 1    
    33   14   15 1    
    34   15   16 2    
    35   15   17 1    
    36   18   19 2    
    37   18   20 2    
    38   18   21 1    
    39   21   38 1    
    40   21   39 1    
@<TRIPOS>SUBSTRUCTURE
     1 UNK         1 GROUP             0       ****    0 ROOT    
