ZINC35693420_5651
                    3D
 Schrodinger Suite 2024-2.
 52 54  0  0  1  0            999 V2000
   -3.2752   45.8493   26.8494 C   0  0  0  0  0  0
   -3.0999   46.7587   25.6292 C   0  0  0  0  0  0
   -1.6962   46.9590   25.2823 N   0  0  0  0  0  0
   -1.2244   47.6958   24.2211 C   0  0  0  0  0  0
   -1.7959   47.3042   23.1365 O   0  5  0  0  0  0
   -0.2923   48.6464   24.4335 C   0  0  0  0  0  0
    0.3190   49.5424   23.4560 C   0  0  0  0  0  0
    0.3632   49.2969   22.1317 C   0  0  0  0  0  0
    1.1265   50.5744   21.1920 S   0  0  0  0  0  0
    1.3975   51.4860   22.6845 C   0  0  0  0  0  0
    1.9435   52.6392   22.7159 N   0  0  0  0  0  0
    2.1440   53.2307   23.9301 C   0  0  0  0  0  0
    1.5609   52.7782   25.0854 C   0  0  0  0  0  0
    0.6355   51.5232   25.0453 C   0  0  2  0  0  0
    0.9438   50.8329   25.8319 H   0  0  0  0  0  0
    0.8391   50.7941   23.7590 N   0  0  0  0  0  0
   -0.8454   51.8484   25.2779 C   0  0  0  0  0  0
   -1.5577   52.5899   24.3301 C   0  0  0  0  0  0
   -2.8972   52.8943   24.5444 C   0  0  0  0  0  0
   -3.5385   52.4667   25.7101 C   0  0  0  0  0  0
   -2.8310   51.7019   26.6454 C   0  0  0  0  0  0
   -1.4907   51.3942   26.4316 C   0  0  0  0  0  0
   -5.0026   52.8456   25.9361 C   0  0  0  0  0  0
   -5.0962   54.1677   26.0818 F   0  0  0  0  0  0
   -5.7388   52.4811   24.8851 F   0  0  0  0  0  0
   -5.5198   52.2722   27.0242 F   0  0  0  0  0  0
    1.8855   53.2963   26.4312 C   0  0  0  0  0  0
    1.1284   53.1597   27.3942 O   0  0  0  0  0  0
    3.1241   53.8338   26.5332 O   0  0  0  0  0  0
    3.6293   54.2984   27.7778 C   0  0  0  0  0  0
    5.1369   54.5341   27.6469 C   0  0  0  0  0  0
    3.0022   54.4822   23.7589 C   0  0  0  0  0  0
   -4.3297   45.6404   27.0313 H   0  0  0  0  0  0
   -2.8819   46.3246   27.7505 H   0  0  0  0  0  0
   -2.7595   44.8982   26.7222 H   0  0  0  0  0  0
   -3.6333   46.3454   24.7701 H   0  0  0  0  0  0
   -3.5510   47.7319   25.8351 H   0  0  0  0  0  0
   -1.1700   47.1294   26.1317 H   0  0  0  0  0  0
    0.0474   48.7642   25.4521 H   0  0  0  0  0  0
   -0.0137   48.4182   21.6319 H   0  0  0  0  0  0
   -1.0672   52.9376   23.4322 H   0  0  0  0  0  0
   -3.4348   53.4769   23.8107 H   0  0  0  0  0  0
   -3.3097   51.3437   27.5458 H   0  0  0  0  0  0
   -0.9612   50.7969   27.1617 H   0  0  0  0  0  0
    3.1208   55.2206   28.0607 H   0  0  0  0  0  0
    3.4399   53.5642   28.5630 H   0  0  0  0  0  0
    5.5543   54.8998   28.5851 H   0  0  0  0  0  0
    5.6568   53.6096   27.3907 H   0  0  0  0  0  0
    5.3548   55.2705   26.8705 H   0  0  0  0  0  0
    4.0510   54.2412   23.9230 H   0  0  0  0  0  0
    2.9094   54.8968   22.7536 H   0  0  0  0  0  0
    2.7073   55.2746   24.4504 H   0  0  0  0  0  0
  1  2  1  0  0  0
  1 33  1  0  0  0
  1 34  1  0  0  0
  1 35  1  0  0  0
  2  3  1  0  0  0
  2 36  1  0  0  0
  2 37  1  0  0  0
  3  4  1  0  0  0
  3 38  1  0  0  0
  4  5  1  0  0  0
  4  6  2  0  0  0
  6  7  1  0  0  0
  6 39  1  0  0  0
  7 16  1  0  0  0
  7  8  2  0  0  0
  8  9  1  0  0  0
  8 40  1  0  0  0
  9 10  1  0  0  0
 10 16  1  0  0  0
 10 11  2  0  0  0
 11 12  1  0  0  0
 12 13  2  0  0  0
 12 32  1  0  0  0
 13 14  1  0  0  0
 13 27  1  0  0  0
 14 15  1  0  0  0
 14 16  1  0  0  0
 14 17  1  0  0  0
 17 22  2  0  0  0
 17 18  1  0  0  0
 18 19  2  0  0  0
 18 41  1  0  0  0
 19 20  1  0  0  0
 19 42  1  0  0  0
 20 21  2  0  0  0
 20 23  1  0  0  0
 21 22  1  0  0  0
 21 43  1  0  0  0
 22 44  1  0  0  0
 23 24  1  0  0  0
 23 25  1  0  0  0
 23 26  1  0  0  0
 27 28  2  0  0  0
 27 29  1  0  0  0
 29 30  1  0  0  0
 30 31  1  0  0  0
 30 45  1  0  0  0
 30 46  1  0  0  0
 31 47  1  0  0  0
 31 48  1  0  0  0
 31 49  1  0  0  0
 32 50  1  0  0  0
 32 51  1  0  0  0
 32 52  1  0  0  0
M  CHG  1   5  -1
M  END
> <i_i_glide_confnum>
35

> <i_i_glide_lignum>
5652

> <i_i_glide_posenum>
262

> <i_i_glide_rotatable_bonds>
8

> <i_m_Source_File_Index>
2946

> <b_m_subgroup_collapsed>
0

> <r_i_docking_score>
-4.25543

> <r_i_glide_ecoul>
-1.31084

> <r_i_glide_eff_state_penalty>
0

> <r_i_glide_einternal>
4.19121

> <r_i_glide_emodel>
-48.6436

> <r_i_glide_energy>
-39.2407

> <r_i_glide_erotb>
0.490045

> <r_i_glide_esite>
-0.1

> <r_i_glide_evdw>
-37.9298

> <r_i_glide_gscore>
-4.25543

> <r_i_glide_hbond>
-0.110666

> <r_i_glide_ligand_efficiency>
-0.137272

> <r_i_glide_ligand_efficiency_ln>
-0.959729

> <r_i_glide_ligand_efficiency_sa>
-0.431223

> <r_i_glide_lipo>
-1.54018

> <r_i_glide_metal>
0

> <r_i_glide_rewards>
-0.901514

> <s_i_glide_gridfile>
wee1_glide-grid

> <s_m_Source_File>
wee1_decoys_glide_SP.sdf

> <s_m_Source_Path>
/Users/zhangxujun/Desktop

> <s_m_entry_id>
3221

> <s_m_entry_name>
wee1_decoys_glide_SP.2946

> <s_m_subgroup_title>
wee1_decoys_glide_SP

> <s_m_subgroupid>
wee1_decoys_glide_SP


$$$$
