@<TRIPOS>MOLECULE
ZINC43898582_2267
51   53    1
SMALL
USER_CHARGES


@<TRIPOS>ATOM
      1 C1         -4.0923   50.8643   26.8962 C.3       1 UNK         0.0000 
      2 C2         -2.7676   51.2969   27.5108 C.2       1 UNK         0.0000 
      3 C3         -2.5002   51.1349   28.8742 C.2       1 UNK         0.0000 
      4 S4         -0.9027   51.6967   29.2841 S.3       1 UNK         0.0000 
      5 C5         -0.5455   52.0616   27.6295 C.2       1 UNK         0.0000 
      6 C6         -1.6398   51.7747   26.7839 C.2       1 UNK         0.0000 
      7 C7         -1.6836   52.0524   25.3528 C.2       1 UNK         0.0000 
      8 O8         -2.7090   52.4991   24.8282 O.2       1 UNK         0.0000 
      9 N9         -0.5266   51.7894   24.7021 N.am      1 UNK         0.0000 
     10 C10        -0.2253   52.0696   23.4209 C.2       1 UNK         0.0000 
     11 O11        -1.0042   52.4907   22.5598 O.2       1 UNK         0.0000 
     12 O12         1.1188   51.8109   23.2825 O.3       1 UNK         0.0000 
     13 C13         1.6730   52.0776   21.9984 C.3       1 UNK         0.0000 
     14 N14         0.6760   52.6016   27.2381 N.am      1 UNK         0.0000 
     15 C15         1.7907   52.8816   27.9480 C.2       1 UNK         0.0000 
     16 O16         1.9433   52.6708   29.1523 O.2       1 UNK         0.0000 
     17 C17         2.9137   53.4588   27.1120 C.ar      1 UNK         0.0000 
     18 C18         2.6650   54.0136   25.8467 C.ar      1 UNK         0.0000 
     19 C19         3.6976   54.4960   25.0617 C.ar      1 UNK         0.0000 
     20 C20         5.0203   54.3887   25.4932 C.ar      1 UNK         0.0000 
     21 C21         5.2756   53.8937   26.7817 C.ar      1 UNK         0.0000 
     22 C22         4.2324   53.4327   27.5822 C.ar      1 UNK         0.0000 
     23 C23         6.1493   54.8965   24.6498 C.2       1 UNK         0.0000 
     24 O24         7.1044   55.4033   25.2361 O.2       1 UNK         0.0000 
     25 C25         6.1397   54.8089   23.1363 C.ar      1 UNK         0.0000 
     26 C26         5.2063   54.0320   22.4278 C.ar      1 UNK         0.0000 
     27 C27         5.1324   54.0967   21.0387 C.ar      1 UNK         0.0000 
     28 C28         6.0301   54.8960   20.3362 C.ar      1 UNK         0.0000 
     29 C29         7.0283   55.5925   21.0089 C.ar      1 UNK         0.0000 
     30 C30         7.0888   55.5374   22.3989 C.ar      1 UNK         0.0000 
     31 C31        -3.4015   50.5365   29.9388 C.3       1 UNK         0.0000 
     32 H32        -4.7511   51.7151   26.7180 H         1 UNK         0.0000 
     33 H33        -3.9495   50.3711   25.9344 H         1 UNK         0.0000 
     34 H34        -4.6302   50.1387   27.5070 H         1 UNK         0.0000 
     35 H35         0.1998   51.3347   25.2317 H         1 UNK         0.0000 
     36 H36         2.7352   51.8337   21.9998 H         1 UNK         0.0000 
     37 H37         1.1940   51.4751   21.2245 H         1 UNK         0.0000 
     38 H38         1.5731   53.1312   21.7307 H         1 UNK         0.0000 
     39 H39         0.7432   52.8270   26.2601 H         1 UNK         0.0000 
     40 H40         1.6660   54.0973   25.4448 H         1 UNK         0.0000 
     41 H41         3.4447   54.9480   24.1130 H         1 UNK         0.0000 
     42 H42         6.2863   53.8385   27.1640 H         1 UNK         0.0000 
     43 H43         4.4639   53.0255   28.5570 H         1 UNK         0.0000 
     44 H44         4.5084   53.3805   22.9307 H         1 UNK         0.0000 
     45 H45         4.3872   53.5228   20.5066 H         1 UNK         0.0000 
     46 H46         5.9754   54.9413   19.2578 H         1 UNK         0.0000 
     47 H47         7.7536   56.1697   20.4545 H         1 UNK         0.0000 
     48 H48         7.8672   56.0967   22.8969 H         1 UNK         0.0000 
     49 H49        -3.6954   49.5158   29.6902 H         1 UNK         0.0000 
     50 H50        -2.9197   50.4968   30.9177 H         1 UNK         0.0000 
     51 H51        -4.3218   51.1078   30.0549 H         1 UNK         0.0000 
@<TRIPOS>BOND
     1    1    2 1    
     2    1   32 1    
     3    1   33 1    
     4    1   34 1    
     5    2    6 1    
     6    2    3 2    
     7    3    4 1    
     8    3   31 1    
     9    4    5 1    
    10    5    6 2    
    11    5   14 am   BACKBONE|DICT|INTERRES
    12    6    7 1    
    13    7    8 2    
    14    7    9 am   BACKBONE|DICT|INTERRES
    15    9   10 am   BACKBONE|DICT|INTERRES
    16    9   35 1    
    17   10   11 2    
    18   10   12 1    
    19   12   13 1    
    20   13   36 1    
    21   13   37 1    
    22   13   38 1    
    23   14   15 am   BACKBONE|DICT|INTERRES
    24   14   39 1    
    25   15   16 2    
    26   15   17 1    
    27   17   22 ar   
    28   17   18 ar   
    29   18   19 ar   
    30   18   40 1    
    31   19   20 ar   
    32   19   41 1    
    33   20   21 ar   
    34   20   23 1    
    35   21   22 ar   
    36   21   42 1    
    37   22   43 1    
    38   23   24 2    
    39   23   25 1    
    40   25   30 ar   
    41   25   26 ar   
    42   26   27 ar   
    43   26   44 1    
    44   27   28 ar   
    45   27   45 1    
    46   28   29 ar   
    47   28   46 1    
    48   29   30 ar   
    49   29   47 1    
    50   30   48 1    
    51   31   49 1    
    52   31   50 1    
    53   31   51 1    
@<TRIPOS>SUBSTRUCTURE
     1 UNK         1 GROUP             0       ****    0 ROOT    
