@<TRIPOS>MOLECULE
ZINC22506424_5668
67   70    1
SMALL
USER_CHARGES


@<TRIPOS>ATOM
      1 C1          1.3806   51.5480   23.4032 C.3       1 UNK         0.0000 
      2 C2          0.2009   50.7725   24.0245 C.3       1 UNK         0.0000 
      3 H3         -0.5783   50.7507   23.2659 H         1 UNK         0.0000 
      4 C4          0.6048   49.2906   24.2911 C.3       1 UNK         0.0000 
      5 C5         -0.4952   48.3495   24.8416 C.3       1 UNK         0.0000 
      6 C6         -1.7064   48.1421   23.9044 C.3       1 UNK         0.0000 
      7 C7         -2.7918   47.1820   24.4546 C.3       1 UNK         0.0000 
      8 C8         -3.5299   47.6181   25.7479 C.3       1 UNK         0.0000 
      9 C9         -4.7334   48.5837   25.5856 C.3       1 UNK         0.0000 
     10 C10        -4.4732   49.9271   24.8725 C.3       1 UNK         0.0000 
     11 C11        -3.3718   50.8008   25.5138 C.3       1 UNK         0.0000 
     12 C12        -2.7925   51.8492   24.5386 C.3       1 UNK         0.0000 
     13 C13        -1.4687   52.5171   24.9899 C.3       1 UNK         0.0000 
     14 C14        -0.3007   51.5283   25.2787 C.2       1 UNK         0.0000 
     15 N15         0.2724   51.3208   26.4144 N.2       1 UNK         0.0000 
     16 N16        -0.1053   52.0543   27.4480 N.2       1 UNK         0.0000 
     17 C17         0.7536   52.1851   28.3722 C.2       1 UNK         0.0000 
     18 N18         1.8404   51.5857   28.6603 N.am      1 UNK         0.0000 
     19 C19         2.5302   52.1398   29.7032 C.2       1 UNK         0.0000 
     20 O20         3.5694   51.6967   30.1845 O.2       1 UNK         0.0000 
     21 C21         1.9132   53.4333   30.2226 C.3       1 UNK         0.0000 
     22 H22         1.7385   53.2977   31.2889 H         1 UNK         0.0000 
     23 S23         0.3035   53.5479   29.4301 S.3       1 UNK         0.0000 
     24 C24         2.8662   54.6372   29.9320 C.3       1 UNK         0.0000 
     25 C25         3.1921   54.8541   28.4422 C.2       1 UNK         0.0000 
     26 O26         2.3190   55.2967   27.7012 O.2       1 UNK         0.0000 
     27 N27         4.4236   54.4925   28.0238 N.am      1 UNK         0.0000 
     28 C28         4.8283   54.4572   26.6973 C.2       1 UNK         0.0000 
     29 N29         4.0508   54.2826   25.6420 N.2       1 UNK         0.0000 
     30 C30         4.7717   54.2611   24.5410 C.2       1 UNK         0.0000 
     31 C31         6.1269   54.4198   24.6765 C.2       1 UNK         0.0000 
     32 S32         6.5296   54.5965   26.3555 S.3       1 UNK         0.0000 
     33 C33         6.8609   54.3926   23.3698 C.3       1 UNK         0.0000 
     34 C34         5.7421   53.9738   22.3930 C.3       1 UNK         0.0000 
     35 C35         4.3759   54.0744   23.1055 C.3       1 UNK         0.0000 
     36 H36         1.0871   52.5569   23.1030 H         1 UNK         0.0000 
     37 H37         2.2157   51.6410   24.1011 H         1 UNK         0.0000 
     38 H38         1.7599   51.0448   22.5111 H         1 UNK         0.0000 
     39 H39         0.9934   48.8559   23.3670 H         1 UNK         0.0000 
     40 H40         1.4471   49.2707   24.9838 H         1 UNK         0.0000 
     41 H41        -0.8115   48.7066   25.8215 H         1 UNK         0.0000 
     42 H42        -0.0488   47.3721   25.0238 H         1 UNK         0.0000 
     43 H43        -1.3436   47.7379   22.9581 H         1 UNK         0.0000 
     44 H44        -2.1462   49.0987   23.6483 H         1 UNK         0.0000 
     45 H45        -2.3110   46.2205   24.6466 H         1 UNK         0.0000 
     46 H46        -3.5290   46.9887   23.6743 H         1 UNK         0.0000 
     47 H47        -2.8308   48.0132   26.4809 H         1 UNK         0.0000 
     48 H48        -3.9171   46.7153   26.2219 H         1 UNK         0.0000 
     49 H49        -5.1397   48.7903   26.5747 H         1 UNK         0.0000 
     50 H50        -5.5267   48.0611   25.0489 H         1 UNK         0.0000 
     51 H51        -5.3996   50.5015   24.8453 H         1 UNK         0.0000 
     52 H52        -4.2421   49.7212   23.8280 H         1 UNK         0.0000 
     53 H53        -2.5691   50.1616   25.8707 H         1 UNK         0.0000 
     54 H54        -3.7555   51.2915   26.4090 H         1 UNK         0.0000 
     55 H55        -3.5404   52.6277   24.3841 H         1 UNK         0.0000 
     56 H56        -2.6527   51.4024   23.5543 H         1 UNK         0.0000 
     57 H57        -1.6958   53.1469   25.8511 H         1 UNK         0.0000 
     58 H58        -1.1470   53.2187   24.2175 H         1 UNK         0.0000 
     59 H59         3.7997   54.4965   30.4808 H         1 UNK         0.0000 
     60 H60         2.4251   55.5549   30.3268 H         1 UNK         0.0000 
     61 H61         5.1257   54.2817   28.7192 H         1 UNK         0.0000 
     62 H62         7.6806   53.6743   23.3563 H         1 UNK         0.0000 
     63 H63         7.2721   55.3681   23.1108 H         1 UNK         0.0000 
     64 H64         5.9044   52.9387   22.0887 H         1 UNK         0.0000 
     65 H65         5.7625   54.5717   21.4801 H         1 UNK         0.0000 
     66 H66         3.7785   54.8991   22.7227 H         1 UNK         0.0000 
     67 H67         3.7917   53.1663   22.9459 H         1 UNK         0.0000 
@<TRIPOS>BOND
     1    1    2 1    
     2    1   36 1    
     3    1   37 1    
     4    1   38 1    
     5    2    3 1    
     6    2   14 1    
     7    2    4 1    
     8    4    5 1    
     9    4   39 1    
    10    4   40 1    
    11    5    6 1    
    12    5   41 1    
    13    5   42 1    
    14    6    7 1    
    15    6   43 1    
    16    6   44 1    
    17    7    8 1    
    18    7   45 1    
    19    7   46 1    
    20    8    9 1    
    21    8   47 1    
    22    8   48 1    
    23    9   10 1    
    24    9   49 1    
    25    9   50 1    
    26   10   11 1    
    27   10   51 1    
    28   10   52 1    
    29   11   12 1    
    30   11   53 1    
    31   11   54 1    
    32   12   13 1    
    33   12   55 1    
    34   12   56 1    
    35   13   14 1    
    36   13   57 1    
    37   13   58 1    
    38   14   15 2    
    39   15   16 1    
    40   16   17 1    
    41   17   23 1    
    42   17   18 2    BACKBONE|DICT|INTERRES
    43   18   19 am   BACKBONE|DICT|INTERRES
    44   19   20 2    
    45   19   21 1    
    46   21   22 1    
    47   21   23 1    
    48   21   24 1    
    49   24   25 1    
    50   24   59 1    
    51   24   60 1    
    52   25   26 2    
    53   25   27 am   BACKBONE|DICT|INTERRES
    54   27   28 am   BACKBONE|DICT|INTERRES
    55   27   61 1    
    56   28   32 1    
    57   28   29 2    
    58   29   30 1    
    59   30   35 1    
    60   30   31 2    
    61   31   32 1    
    62   31   33 1    
    63   33   34 1    
    64   33   62 1    
    65   33   63 1    
    66   34   35 1    
    67   34   64 1    
    68   34   65 1    
    69   35   66 1    
    70   35   67 1    
@<TRIPOS>SUBSTRUCTURE
     1 UNK         1 GROUP             0       ****    0 ROOT    
