@<TRIPOS>MOLECULE
ZINC20150101_1779
39   41    1
SMALL
USER_CHARGES


@<TRIPOS>ATOM
      1 C1          5.4693   54.3532   27.5487 C.2       1 UNK         0.0000 
      2 C2          4.5203   53.8412   26.7487 C.2       1 UNK         0.0000 
      3 C3          3.1804   54.4966   26.4594 C.3       1 UNK         0.0000 
      4 N4          2.0025   53.6976   26.9023 N.pl3     1 UNK         0.0000 
      5 C5          1.4973   52.7762   25.9867 C.ar      1 UNK         0.0000 
      6 O6          1.9407   52.6396   24.8434 O.2       1 UNK         0.0000 
      7 C7          0.3522   51.9694   26.4460 C.ar      1 UNK         0.0000 
      8 C8         -0.1360   52.2407   27.6783 C.ar      1 UNK         0.0000 
      9 N9          0.3766   53.1675   28.5075 N.pl3     1 UNK         0.0000 
     10 C10         1.4435   53.9472   28.1655 C.ar      1 UNK         0.0000 
     11 S11         1.9049   55.0987   29.2865 S.2       1 UNK         0.0000 
     12 O12        -1.1673   51.6944   28.2072 O.co2     1 UNK         0.0000 
     13 C13        -0.2617   50.9546   25.4613 C.3       1 UNK         0.0000 
     14 H14         0.3374   50.8166   24.5597 H         1 UNK         0.0000 
     15 C15        -1.6962   51.2797   24.9926 C.ar      1 UNK         0.0000 
     16 C16        -1.9895   52.5663   24.5248 C.ar      1 UNK         0.0000 
     17 C17        -3.2616   52.9123   24.0820 C.ar      1 UNK         0.0000 
     18 C18        -4.2719   51.9589   24.0831 C.ar      1 UNK         0.0000 
     19 C19        -3.9989   50.6659   24.5134 C.ar      1 UNK         0.0000 
     20 C20        -2.7256   50.3077   24.9683 C.ar      1 UNK         0.0000 
     21 C21        -2.4646   48.8804   25.4327 C.3       1 UNK         0.0000 
     22 C22        -0.9876   48.5062   25.2762 C.3       1 UNK         0.0000 
     23 N23        -0.1895   49.5422   26.0817 N.4       1 UNK         0.0000 
     24 H24         5.3325   55.2961   28.0587 H         1 UNK         0.0000 
     25 H25         6.4021   53.8315   27.7086 H         1 UNK         0.0000 
     26 H26         4.6994   52.8966   26.2604 H         1 UNK         0.0000 
     27 H27         3.1575   55.5009   26.8750 H         1 UNK         0.0000 
     28 H28         3.1351   54.6492   25.3793 H         1 UNK         0.0000 
     29 H29        -1.2077   53.3103   24.5101 H         1 UNK         0.0000 
     30 H30        -3.4624   53.9175   23.7398 H         1 UNK         0.0000 
     31 H31        -5.2644   52.2158   23.7435 H         1 UNK         0.0000 
     32 H32        -4.7908   49.9321   24.5000 H         1 UNK         0.0000 
     33 H33        -3.0836   48.1761   24.8771 H         1 UNK         0.0000 
     34 H34        -2.7582   48.7842   26.4802 H         1 UNK         0.0000 
     35 H35        -0.6334   48.5407   24.2442 H         1 UNK         0.0000 
     36 H36        -0.7688   47.5225   25.6833 H         1 UNK         0.0000 
     37 H37         0.7722   49.2498   26.1658 H         1 UNK         0.0000 
     38 H38        -0.5789   49.5655   27.0225 H         1 UNK         0.0000 
     39 H39        -0.0202   53.3450   29.4166 H         1 UNK         0.0000 
@<TRIPOS>BOND
     1    1    2 2    
     2    1   24 1    
     3    1   25 1    
     4    2    3 1    
     5    2   26 1    
     6    3   27 1    
     7    3   28 1    
     8    3    4 1    
     9    4   10 ar   
    10    4    5 ar   
    11    5    6 2    
    12    5    7 ar   
    13    7   13 1    
    14    7    8 ar   
    15    8   12 1    
    16    8    9 ar   
    17    9   10 ar   
    18    9   39 1    
    19   10   11 2    
    20   13   14 1    
    21   13   23 1    
    22   13   15 1    
    23   15   20 ar   
    24   15   16 ar   
    25   16   17 ar   
    26   16   29 1    
    27   17   18 ar   
    28   17   30 1    
    29   18   19 ar   
    30   18   31 1    
    31   19   20 ar   
    32   19   32 1    
    33   20   21 1    
    34   21   22 1    
    35   21   33 1    
    36   21   34 1    
    37   22   23 1    
    38   22   35 1    
    39   22   36 1    
    40   23   37 1    
    41   23   38 1    
@<TRIPOS>SUBSTRUCTURE
     1 UNK         1 GROUP             0       ****    0 ROOT    
