@<TRIPOS>MOLECULE
ZINC43423169_6161
33   35    1
SMALL
USER_CHARGES


@<TRIPOS>ATOM
      1 C1          4.5928   54.4963   28.4158 C.2       1 UNK         0.0000 
      2 C2          3.2986   54.0639   28.1934 C.2       1 UNK         0.0000 
      3 S3          3.0348   53.6871   26.5266 S.3       1 UNK         0.0000 
      4 C4          4.6546   54.1904   26.0764 C.2       1 UNK         0.0000 
      5 C5          5.3552   54.5339   27.2465 C.2       1 UNK         0.0000 
      6 N6          6.6681   54.8965   27.2818 N.pl3     1 UNK         0.0000 
      7 C7          5.1896   54.1012   24.7097 C.2       1 UNK         0.0000 
      8 O8          6.4154   54.1405   24.5538 O.2       1 UNK         0.0000 
      9 N9          4.3621   53.9015   23.6425 N.am      1 UNK         0.0000 
     10 C10         3.0179   54.4967   23.5357 C.3       1 UNK         0.0000 
     11 C11         2.0727   53.4146   22.9962 C.3       1 UNK         0.0000 
     12 O12         2.5212   53.0615   21.6969 O.3       1 UNK         0.0000 
     13 C13         3.8331   52.5052   21.6696 C.3       1 UNK         0.0000 
     14 H14         3.7934   51.4973   22.0817 H         1 UNK         0.0000 
     15 C15         4.9122   53.3646   22.3706 C.3       1 UNK         0.0000 
     16 H16         5.7436   52.6908   22.5913 H         1 UNK         0.0000 
     17 C17         5.3523   54.3952   21.3180 C.3       1 UNK         0.0000 
     18 C18         5.1019   53.7358   19.9545 C.3       1 UNK         0.0000 
     19 C19         4.3054   52.4477   20.2180 C.3       1 UNK         0.0000 
     20 H20         4.9810   54.7666   29.3872 H         1 UNK         0.0000 
     21 H21         2.5044   53.9321   28.9146 H         1 UNK         0.0000 
     22 H22         7.1219   55.2108   28.1360 H         1 UNK         0.0000 
     23 H23         7.2194   54.7823   26.4425 H         1 UNK         0.0000 
     24 H24         2.6365   55.0465   24.3928 H         1 UNK         0.0000 
     25 H25         3.1035   55.2550   22.7581 H         1 UNK         0.0000 
     26 H26         2.0530   52.5495   23.6633 H         1 UNK         0.0000 
     27 H27         1.0505   53.7885   22.9459 H         1 UNK         0.0000 
     28 H28         4.7490   55.2974   21.3846 H         1 UNK         0.0000 
     29 H29         6.3921   54.6950   21.4561 H         1 UNK         0.0000 
     30 H30         4.5401   54.4089   19.3039 H         1 UNK         0.0000 
     31 H31         6.0359   53.5073   19.4389 H         1 UNK         0.0000 
     32 H32         4.9332   51.5689   20.0818 H         1 UNK         0.0000 
     33 H33         3.4701   52.3667   19.5190 H         1 UNK         0.0000 
@<TRIPOS>BOND
     1    1    5 1    
     2    1    2 2    
     3    1   20 1    
     4    2    3 1    
     5    2   21 1    
     6    3    4 1    
     7    4    5 2    
     8    4    7 1    
     9    5    6 1    
    10    6   22 1    
    11    6   23 1    
    12    7    8 2    
    13    7    9 am   BACKBONE|DICT|INTERRES
    14    9   15 1    
    15    9   10 1    
    16   10   11 1    
    17   10   24 1    
    18   10   25 1    
    19   11   12 1    
    20   11   26 1    
    21   11   27 1    
    22   12   13 1    
    23   13   14 1    
    24   13   19 1    
    25   13   15 1    
    26   15   16 1    
    27   15   17 1    
    28   17   18 1    
    29   17   28 1    
    30   17   29 1    
    31   18   19 1    
    32   18   30 1    
    33   18   31 1    
    34   19   32 1    
    35   19   33 1    
@<TRIPOS>SUBSTRUCTURE
     1 UNK         1 GROUP             0       ****    0 ROOT    
