@<TRIPOS>MOLECULE
ZINC33808853_3996
57   62    1
SMALL
USER_CHARGES


@<TRIPOS>ATOM
      1 C1         -1.2833   50.9149   26.9159 C.3       1 UNK         0.0000 
      2 C2         -1.0635   51.3820   25.4647 C.3       1 UNK         0.0000 
      3 C3         -2.2082   52.2825   24.9187 C.3       1 UNK         0.0000 
      4 C4         -1.9806   52.2551   23.3838 C.3       1 UNK         0.0000 
      5 C5         -0.7296   51.3278   23.2432 C.3       1 UNK         0.0000 
      6 C6         -0.9402   50.2606   24.3793 C.3       1 UNK         0.0000 
      7 C7         -2.2059   49.3671   24.2063 C.3       1 UNK         0.0000 
      8 C8          0.2448   49.2637   24.6413 C.3       1 UNK         0.0000 
      9 C9          0.4367   52.1279   23.8249 C.ar      1 UNK         0.0000 
     10 C10         0.2336   52.1542   25.1966 C.ar      1 UNK         0.0000 
     11 N11         1.1056   52.7328   26.0581 N.ar      1 UNK         0.0000 
     12 C12         2.2180   53.2969   25.4936 C.ar      1 UNK         0.0000 
     13 C13         3.2166   53.8601   26.3369 C.ar      1 UNK         0.0000 
     14 C14         4.3536   54.3785   25.7291 C.ar      1 UNK         0.0000 
     15 C15         4.5300   54.3816   24.3758 C.ar      1 UNK         0.0000 
     16 C16         3.5879   53.8658   23.4976 C.ar      1 UNK         0.0000 
     17 C17         2.4113   53.2960   24.0577 C.ar      1 UNK         0.0000 
     18 N18         1.5026   52.7096   23.2230 N.ar      1 UNK         0.0000 
     19 O19         5.7494   54.8964   24.0778 O.3       1 UNK         0.0000 
     20 C20         6.2545   55.4037   25.2817 C.3       1 UNK         0.0000 
     21 O21         5.4592   54.9003   26.3222 O.3       1 UNK         0.0000 
     22 C22        -0.5053   50.7740   21.8084 C.2       1 UNK         0.0000 
     23 O23        -1.2386   51.1260   20.8812 O.2       1 UNK         0.0000 
     24 N24         0.5366   49.9201   21.6587 N.am      1 UNK         0.0000 
     25 N25         0.7893   49.2500   20.4529 N.am      1 UNK         0.0000 
     26 C26         0.0126   48.2126   20.0539 C.2       1 UNK         0.0000 
     27 O27        -0.9738   47.8190   20.6838 O.2       1 UNK         0.0000 
     28 C28         0.4403   47.5326   18.7669 C.ar      1 UNK         0.0000 
     29 C29         1.0650   48.2895   17.7561 C.ar      1 UNK         0.0000 
     30 C30         1.5042   47.6940   16.5782 C.ar      1 UNK         0.0000 
     31 C31         1.3403   46.3268   16.3819 C.ar      1 UNK         0.0000 
     32 C32         0.7020   45.5626   17.3546 C.ar      1 UNK         0.0000 
     33 C33         0.2540   46.1475   18.5427 C.ar      1 UNK         0.0000 
     34 Cl34       -0.4954   45.0758   19.6820 Cl        1 UNK         0.0000 
     35 Cl35        1.9332   45.5819   14.9422 Cl        1 UNK         0.0000 
     36 H36        -0.4481   50.3160   27.2827 H         1 UNK         0.0000 
     37 H37        -1.3941   51.7655   27.5916 H         1 UNK         0.0000 
     38 H38        -2.1807   50.3034   27.0104 H         1 UNK         0.0000 
     39 H39        -3.1916   51.8883   25.1792 H         1 UNK         0.0000 
     40 H40        -2.1587   53.2956   25.3243 H         1 UNK         0.0000 
     41 H41        -2.8584   51.8615   22.8673 H         1 UNK         0.0000 
     42 H42        -1.8051   53.2594   22.9882 H         1 UNK         0.0000 
     43 H43        -3.1278   49.9197   24.0416 H         1 UNK         0.0000 
     44 H44        -2.0943   48.6926   23.3578 H         1 UNK         0.0000 
     45 H45        -2.3671   48.7443   25.0872 H         1 UNK         0.0000 
     46 H46         0.1360   48.7658   25.6076 H         1 UNK         0.0000 
     47 H47         0.2840   48.4691   23.8966 H         1 UNK         0.0000 
     48 H48         1.2279   49.7332   24.6464 H         1 UNK         0.0000 
     49 H49         3.0929   53.8497   27.4095 H         1 UNK         0.0000 
     50 H50         3.7381   53.8581   22.4279 H         1 UNK         0.0000 
     51 H51         7.2874   55.0721   25.3964 H         1 UNK         0.0000 
     52 H52         6.1952   56.4935   25.2655 H         1 UNK         0.0000 
     53 H53         1.1034   49.5862   22.4231 H         1 UNK         0.0000 
     54 H54         1.3539   49.8016   19.8194 H         1 UNK         0.0000 
     55 H55         1.2378   49.3519   17.8682 H         1 UNK         0.0000 
     56 H56         2.0112   48.2941   15.8330 H         1 UNK         0.0000 
     57 H57         0.5689   44.5040   17.1905 H         1 UNK         0.0000 
@<TRIPOS>BOND
     1    1    2 1    
     2    1   36 1    
     3    1   37 1    
     4    1   38 1    
     5    2    6 1    
     6    2   10 1    
     7    2    3 1    
     8    3    4 1    
     9    3   39 1    
    10    3   40 1    
    11    4    5 1    
    12    4   41 1    
    13    4   42 1    
    14    5    6 1    
    15    5    9 1    
    16    5   22 1    
    17    6    7 1    
    18    6    8 1    
    19    7   43 1    
    20    7   44 1    
    21    7   45 1    
    22    8   46 1    
    23    8   47 1    
    24    8   48 1    
    25    9   18 ar   
    26    9   10 ar   
    27   10   11 ar   
    28   11   12 ar   
    29   12   17 ar   
    30   12   13 ar   
    31   13   14 ar   
    32   13   49 1    
    33   14   21 1    
    34   14   15 ar   
    35   15   16 ar   
    36   15   19 1    
    37   16   17 ar   
    38   16   50 1    
    39   17   18 ar   
    40   19   20 1    
    41   20   21 1    
    42   20   51 1    
    43   20   52 1    
    44   22   23 2    
    45   22   24 am   BACKBONE|DICT|INTERRES
    46   24   25 1    
    47   24   53 1    
    48   25   26 am   BACKBONE|DICT|INTERRES
    49   25   54 1    
    50   26   27 2    
    51   26   28 1    
    52   28   33 ar   
    53   28   29 ar   
    54   29   30 ar   
    55   29   55 1    
    56   30   31 ar   
    57   30   56 1    
    58   31   32 ar   
    59   31   35 1    
    60   32   33 ar   
    61   32   57 1    
    62   33   34 1    
@<TRIPOS>SUBSTRUCTURE
     1 UNK         1 GROUP             0       ****    0 ROOT    
