@<TRIPOS>MOLECULE
ZINC09898734_5182
51   54    1
SMALL
USER_CHARGES


@<TRIPOS>ATOM
      1 C1          1.9020   52.1007   31.1177 C.2       1 UNK         0.0000 
      2 C2          2.4031   52.1905   29.8137 C.2       1 UNK         0.0000 
      3 C3          1.6613   53.0136   28.9570 C.2       1 UNK         0.0000 
      4 S4          0.3044   53.6696   29.8344 S.3       1 UNK         0.0000 
      5 C5          0.7385   52.8277   31.2806 C.2       1 UNK         0.0000 
      6 C6          1.8715   53.3550   27.4824 C.3       1 UNK         0.0000 
      7 H7          1.2746   54.2414   27.2545 H         1 UNK         0.0000 
      8 C8          3.3090   53.7844   27.0913 C.ar      1 UNK         0.0000 
      9 C9          4.2751   54.0958   28.0642 C.ar      1 UNK         0.0000 
     10 C10         5.5572   54.4967   27.6985 C.ar      1 UNK         0.0000 
     11 C11         5.8784   54.6271   26.3530 C.ar      1 UNK         0.0000 
     12 C12         4.9383   54.3412   25.3725 C.ar      1 UNK         0.0000 
     13 C13         3.6655   53.9189   25.7406 C.ar      1 UNK         0.0000 
     14 F14         7.1044   55.0576   25.9931 F         1 UNK         0.0000 
     15 N15         1.2987   52.2369   26.7140 N.am      1 UNK         0.0000 
     16 C16         0.7044   52.2645   25.5025 C.2       1 UNK         0.0000 
     17 O17         0.6209   53.2933   24.8289 O.2       1 UNK         0.0000 
     18 C18         0.1203   50.9587   24.9917 C.ar      1 UNK         0.0000 
     19 C19         0.0902   49.7963   25.7825 C.ar      1 UNK         0.0000 
     20 C20        -0.4508   48.6150   25.2828 C.ar      1 UNK         0.0000 
     21 C21        -0.9882   48.5720   24.0023 C.ar      1 UNK         0.0000 
     22 C22        -0.9818   49.7178   23.2088 C.ar      1 UNK         0.0000 
     23 C23        -0.4274   50.9002   23.6989 C.ar      1 UNK         0.0000 
     24 N24        -1.4903   47.3610   23.5162 N.pl3     1 UNK         0.0000 
     25 S25        -3.2167   47.0671   23.2589 S.o2      1 UNK         0.0000 
     26 O26        -3.8307   48.3288   22.8335 O.2       1 UNK         0.0000 
     27 O27        -3.2898   45.8650   22.4200 O.2       1 UNK         0.0000 
     28 C28        -3.9294   46.6183   24.8445 C.ar      1 UNK         0.0000 
     29 C29        -4.8602   45.5757   24.9017 C.ar      1 UNK         0.0000 
     30 C30        -5.3906   45.1854   26.1283 C.ar      1 UNK         0.0000 
     31 C31        -5.0015   45.8462   27.2912 C.ar      1 UNK         0.0000 
     32 C32        -4.0958   46.9026   27.2362 C.ar      1 UNK         0.0000 
     33 C33        -3.5702   47.3004   26.0105 C.ar      1 UNK         0.0000 
     34 F34        -5.5179   45.4657   28.4811 F         1 UNK         0.0000 
     35 H35         2.3534   51.5264   31.9153 H         1 UNK         0.0000 
     36 H36         3.2951   51.6749   29.4892 H         1 UNK         0.0000 
     37 H37         0.1234   52.9056   32.1670 H         1 UNK         0.0000 
     38 H38         4.0515   54.0504   29.1176 H         1 UNK         0.0000 
     39 H39         6.2923   54.7353   28.4538 H         1 UNK         0.0000 
     40 H40         5.1956   54.4482   24.3292 H         1 UNK         0.0000 
     41 H41         2.9692   53.7112   24.9472 H         1 UNK         0.0000 
     42 H42         1.4880   51.3261   27.1003 H         1 UNK         0.0000 
     43 H43         0.4635   49.7810   26.7962 H         1 UNK         0.0000 
     44 H44        -0.4950   47.7380   25.9145 H         1 UNK         0.0000 
     45 H45        -1.3956   49.6904   22.2107 H         1 UNK         0.0000 
     46 H46        -0.4284   51.7733   23.0610 H         1 UNK         0.0000 
     47 H47        -0.8963   46.5493   23.5558 H         1 UNK         0.0000 
     48 H48        -5.1696   45.0637   24.0017 H         1 UNK         0.0000 
     49 H49        -6.1036   44.3767   26.1843 H         1 UNK         0.0000 
     50 H50        -3.7932   47.4155   28.1390 H         1 UNK         0.0000 
     51 H51        -2.8853   48.1332   25.9891 H         1 UNK         0.0000 
@<TRIPOS>BOND
     1    1    5 2    
     2    1    2 1    
     3    1   35 1    
     4    2    3 2    
     5    2   36 1    
     6    3    4 1    
     7    3    6 1    
     8    4    5 1    
     9    5   37 1    
    10    6    7 1    
    11    6    8 1    
    12    6   15 1    
    13    8   13 ar   
    14    8    9 ar   
    15    9   10 ar   
    16    9   38 1    
    17   10   11 ar   
    18   10   39 1    
    19   11   12 ar   
    20   11   14 1    
    21   12   13 ar   
    22   12   40 1    
    23   13   41 1    
    24   15   16 am   BACKBONE|DICT|INTERRES
    25   15   42 1    
    26   16   17 2    
    27   16   18 1    
    28   18   23 ar   
    29   18   19 ar   
    30   19   20 ar   
    31   19   43 1    
    32   20   21 ar   
    33   20   44 1    
    34   21   22 ar   
    35   21   24 1    
    36   22   23 ar   
    37   22   45 1    
    38   23   46 1    
    39   24   25 1    
    40   24   47 1    
    41   25   26 2    
    42   25   27 2    
    43   25   28 1    
    44   28   33 ar   
    45   28   29 ar   
    46   29   30 ar   
    47   29   48 1    
    48   30   31 ar   
    49   30   49 1    
    50   31   32 ar   
    51   31   34 1    
    52   32   33 ar   
    53   32   50 1    
    54   33   51 1    
@<TRIPOS>SUBSTRUCTURE
     1 UNK         1 GROUP             0       ****    0 ROOT    
