@<TRIPOS>MOLECULE
ZINC11813971_2137
56   58    1
SMALL
USER_CHARGES


@<TRIPOS>ATOM
      1 C1         -7.2620   54.4549   26.3220 C.3       1 UNK         0.0000 
      2 C2         -6.0336   53.7248   25.8364 C.2       1 UNK         0.0000 
      3 C3         -4.6976   54.0689   25.9721 C.2       1 UNK         0.0000 
      4 C4         -3.8119   53.1555   25.3994 C.2       1 UNK         0.0000 
      5 C5         -4.4259   52.0655   24.7900 C.2       1 UNK         0.0000 
      6 S6         -6.1495   52.2299   24.9614 S.3       1 UNK         0.0000 
      7 C7         -3.8359   50.8700   24.0579 C.3       1 UNK         0.0000 
      8 N8         -2.3703   50.8566   24.0053 N.am      1 UNK         0.0000 
      9 C9         -1.6277   51.6337   23.1999 C.2       1 UNK         0.0000 
     10 O10        -2.1093   52.4967   22.4672 O.2       1 UNK         0.0000 
     11 C11        -0.1097   51.4141   23.2347 C.3       1 UNK         0.0000 
     12 C12         0.6152   51.8150   21.9066 C.3       1 UNK         0.0000 
     13 H13         0.1826   52.6927   21.4177 H         1 UNK         0.0000 
     14 C14         0.5201   50.6416   20.8756 C.2       1 UNK         0.0000 
     15 O15        -0.5390   50.0896   20.5793 O.2       1 UNK         0.0000 
     16 N16         1.6503   50.2459   20.2620 N.am      1 UNK         0.0000 
     17 C17         3.0045   50.7684   20.4691 C.3       1 UNK         0.0000 
     18 C18         2.9786   52.2034   21.0164 C.3       1 UNK         0.0000 
     19 C19         2.1069   53.6709   22.8978 C.3       1 UNK         0.0000 
     20 C20         3.2944   53.9102   23.8126 C.ar      1 UNK         0.0000 
     21 C21         3.1457   53.8423   25.1980 C.ar      1 UNK         0.0000 
     22 C22         4.2336   54.0949   26.0363 C.ar      1 UNK         0.0000 
     23 C23         5.4960   54.4108   25.5020 C.ar      1 UNK         0.0000 
     24 C24         5.6309   54.4922   24.1081 C.ar      1 UNK         0.0000 
     25 C25         4.5364   54.2532   23.2761 C.ar      1 UNK         0.0000 
     26 C26         6.9741   54.8242   23.4828 C.3       1 UNK         0.0000 
     27 O27         6.6270   54.6420   26.2666 O.3       1 UNK         0.0000 
     28 C28         6.5761   54.3889   27.6665 C.3       1 UNK         0.0000 
     29 H29        -7.0084   55.3528   26.8869 H         1 UNK         0.0000 
     30 H30        -7.8698   53.8247   26.9739 H         1 UNK         0.0000 
     31 H31        -7.8935   54.7648   25.4880 H         1 UNK         0.0000 
     32 H32        -4.3680   54.9602   26.4817 H         1 UNK         0.0000 
     33 H33        -2.7401   53.2875   25.4276 H         1 UNK         0.0000 
     34 H34        -4.1642   49.9426   24.5316 H         1 UNK         0.0000 
     35 H35        -4.2357   50.8226   23.0421 H         1 UNK         0.0000 
     36 H36        -1.9068   50.1566   24.5657 H         1 UNK         0.0000 
     37 H37         0.2427   51.9964   24.0831 H         1 UNK         0.0000 
     38 H38         0.1155   50.3798   23.5056 H         1 UNK         0.0000 
     39 H39         1.5388   49.5089   19.5770 H         1 UNK         0.0000 
     40 H40         3.5646   50.0971   21.1215 H         1 UNK         0.0000 
     41 H41         3.5049   50.7721   19.4956 H         1 UNK         0.0000 
     42 H42         3.9859   52.4517   21.3513 H         1 UNK         0.0000 
     43 H43         2.6442   52.9443   20.2819 H         1 UNK         0.0000 
     44 H44         2.0992   54.3921   22.0816 H         1 UNK         0.0000 
     45 H45         1.1733   53.8249   23.4408 H         1 UNK         0.0000 
     46 H46         2.1887   53.5983   25.6355 H         1 UNK         0.0000 
     47 H47         4.0801   54.0282   27.1030 H         1 UNK         0.0000 
     48 H48         4.6565   54.3547   22.2077 H         1 UNK         0.0000 
     49 H49         7.4167   55.6938   23.9683 H         1 UNK         0.0000 
     50 H50         7.6527   53.9811   23.6131 H         1 UNK         0.0000 
     51 H51         6.8975   55.0525   22.4187 H         1 UNK         0.0000 
     52 H52         7.5782   54.4968   28.0826 H         1 UNK         0.0000 
     53 H53         5.9183   55.0982   28.1761 H         1 UNK         0.0000 
     54 H54         6.2486   53.3684   27.8831 H         1 UNK         0.0000 
     55 N55         2.0670   52.2503   22.2622 N.4       1 UNK         0.0000 
     56 H56         2.4322   51.5795   22.9268 H         1 UNK         0.0000 
@<TRIPOS>BOND
     1    1    2 1    
     2    1   29 1    
     3    1   30 1    
     4    1   31 1    
     5    2    6 1    
     6    2    3 2    
     7    3    4 1    
     8    3   32 1    
     9    4    5 2    
    10    4   33 1    
    11    5    6 1    
    12    5    7 1    
    13    7    8 1    
    14    7   34 1    
    15    7   35 1    
    16    8    9 am   BACKBONE|DICT|INTERRES
    17    8   36 1    
    18    9   10 2    
    19    9   11 1    
    20   11   12 1    
    21   11   37 1    
    22   11   38 1    
    23   12   13 1    
    24   12   14 1    
    25   12   55 1    
    26   14   15 2    
    27   14   16 am   BACKBONE|DICT|INTERRES
    28   16   17 1    
    29   16   39 1    
    30   17   18 1    
    31   17   40 1    
    32   17   41 1    
    33   18   42 1    
    34   18   43 1    
    35   18   55 1    
    36   19   20 1    
    37   19   44 1    
    38   19   45 1    
    39   19   55 1    
    40   20   25 ar   
    41   20   21 ar   
    42   21   22 ar   
    43   21   46 1    
    44   22   23 ar   
    45   22   47 1    
    46   23   24 ar   
    47   23   27 1    
    48   24   25 ar   
    49   24   26 1    
    50   25   48 1    
    51   26   49 1    
    52   26   50 1    
    53   26   51 1    
    54   27   28 1    
    55   28   52 1    
    56   28   53 1    
    57   28   54 1    
    58   55   56 1    
@<TRIPOS>SUBSTRUCTURE
     1 UNK         1 GROUP             0       ****    0 ROOT    
