@<TRIPOS>MOLECULE
ZINC12445358_5183
52   55    1
SMALL
USER_CHARGES


@<TRIPOS>ATOM
      1 C1          6.3645   54.9031   27.2641 C.3       1 UNK         0.0000 
      2 C2          5.7372   54.6743   25.9011 C.ar      1 UNK         0.0000 
      3 C3          4.4793   54.0952   25.7809 C.ar      1 UNK         0.0000 
      4 C4          3.9533   53.8030   24.5143 C.ar      1 UNK         0.0000 
      5 C5          4.7285   54.1625   23.3790 C.ar      1 UNK         0.0000 
      6 C6          4.5193   54.0126   21.9597 C.2       1 UNK         0.0000 
      7 C7          5.5051   54.6109   21.1560 C.2       1 UNK         0.0000 
      8 S8          6.7746   55.2960   22.1720 S.3       1 UNK         0.0000 
      9 C9          5.9757   54.7999   23.6369 C.ar      1 UNK         0.0000 
     10 N10         6.4959   55.0473   24.8409 N.ar      1 UNK         0.0000 
     11 C11         5.6341   54.6781   19.6177 C.3       1 UNK         0.0000 
     12 H12         6.1086   53.7546   19.2830 H         1 UNK         0.0000 
     13 C13         6.5189   55.8237   19.0963 C.ar      1 UNK         0.0000 
     14 C14         7.9107   55.6687   19.0783 C.ar      1 UNK         0.0000 
     15 C15         8.7297   56.7146   18.6632 C.ar      1 UNK         0.0000 
     16 C16         8.1597   57.9208   18.2618 C.ar      1 UNK         0.0000 
     17 C17         6.7773   58.0840   18.2561 C.ar      1 UNK         0.0000 
     18 C18         5.9583   57.0353   18.6701 C.ar      1 UNK         0.0000 
     19 Br19        9.2809   59.3706   17.7468 Br        1 UNK         0.0000 
     20 O20         4.3580   54.6543   18.9977 O.3       1 UNK         0.0000 
     21 N21         3.4306   53.3618   21.4084 N.am      1 UNK         0.0000 
     22 C22         3.4603   52.0548   21.0707 C.2       1 UNK         0.0000 
     23 O23         4.4289   51.3197   21.2805 O.2       1 UNK         0.0000 
     24 C24         2.2115   51.5191   20.4091 C.ar      1 UNK         0.0000 
     25 C25         2.3050   50.4151   19.5497 C.ar      1 UNK         0.0000 
     26 C26         1.1681   49.8983   18.9368 C.ar      1 UNK         0.0000 
     27 C27        -0.0735   50.4757   19.1875 C.ar      1 UNK         0.0000 
     28 C28        -0.1879   51.5709   20.0394 C.ar      1 UNK         0.0000 
     29 C29         0.9515   52.0956   20.6422 C.ar      1 UNK         0.0000 
     30 C30         2.6109   53.0848   24.4519 C.3       1 UNK         0.0000 
     31 O31         1.6003   53.9729   23.9954 O.3       1 UNK         0.0000 
     32 C32         0.3063   53.3906   24.0590 C.3       1 UNK         0.0000 
     33 H33         5.6600   54.7146   28.0741 H         1 UNK         0.0000 
     34 H34         7.2219   54.2467   27.4062 H         1 UNK         0.0000 
     35 H35         6.7034   55.9314   27.3625 H         1 UNK         0.0000 
     36 H36         3.9313   53.8240   26.6730 H         1 UNK         0.0000 
     37 H37         8.3626   54.7421   19.4031 H         1 UNK         0.0000 
     38 H38         9.8049   56.5951   18.6695 H         1 UNK         0.0000 
     39 H39         6.3428   59.0223   17.9386 H         1 UNK         0.0000 
     40 H40         4.8886   57.1786   18.6675 H         1 UNK         0.0000 
     41 H41         3.7968   55.3231   19.3964 H         1 UNK         0.0000 
     42 H42         2.6540   53.9214   21.0794 H         1 UNK         0.0000 
     43 H43         3.2626   49.9607   19.3316 H         1 UNK         0.0000 
     44 H44         1.2553   49.0573   18.2654 H         1 UNK         0.0000 
     45 H45        -0.9544   50.0696   18.7127 H         1 UNK         0.0000 
     46 H46        -1.1568   52.0117   20.2242 H         1 UNK         0.0000 
     47 H47         0.8410   52.9517   21.2916 H         1 UNK         0.0000 
     48 H48         2.6958   52.2219   23.7939 H         1 UNK         0.0000 
     49 H49         2.3534   52.6973   25.4413 H         1 UNK         0.0000 
     50 H50        -0.4355   54.0966   23.6905 H         1 UNK         0.0000 
     51 H51         0.2359   52.4879   23.4491 H         1 UNK         0.0000 
     52 H52         0.0314   53.1274   25.0810 H         1 UNK         0.0000 
@<TRIPOS>BOND
     1    1    2 1    
     2    1   33 1    
     3    1   34 1    
     4    1   35 1    
     5    2   10 ar   
     6    2    3 ar   
     7    3    4 ar   
     8    3   36 1    
     9    4    5 ar   
    10    4   30 1    
    11    5    9 ar   
    12    5    6 1    
    13    6    7 2    
    14    6   21 1    
    15    7    8 1    
    16    7   11 1    
    17    8    9 1    
    18    9   10 ar   
    19   11   12 1    
    20   11   13 1    
    21   11   20 1    
    22   13   18 ar   
    23   13   14 ar   
    24   14   15 ar   
    25   14   37 1    
    26   15   16 ar   
    27   15   38 1    
    28   16   17 ar   
    29   16   19 1    
    30   17   18 ar   
    31   17   39 1    
    32   18   40 1    
    33   20   41 1    
    34   21   22 am   BACKBONE|DICT|INTERRES
    35   21   42 1    
    36   22   23 2    
    37   22   24 1    
    38   24   29 ar   
    39   24   25 ar   
    40   25   26 ar   
    41   25   43 1    
    42   26   27 ar   
    43   26   44 1    
    44   27   28 ar   
    45   27   45 1    
    46   28   29 ar   
    47   28   46 1    
    48   29   47 1    
    49   30   31 1    
    50   30   48 1    
    51   30   49 1    
    52   31   32 1    
    53   32   50 1    
    54   32   51 1    
    55   32   52 1    
@<TRIPOS>SUBSTRUCTURE
     1 UNK         1 GROUP             0       ****    0 ROOT    
