@<TRIPOS>MOLECULE
ZINC02888154_3230
58   61    1
SMALL
USER_CHARGES


@<TRIPOS>ATOM
      1 C1          6.3038   54.8472   27.0675 C.3       1 UNK         0.0000 
      2 C2          5.1733   54.4872   26.1201 C.ar      1 UNK         0.0000 
      3 C3          3.9368   54.0782   26.6158 C.ar      1 UNK         0.0000 
      4 C4          2.9044   53.7435   25.7407 C.ar      1 UNK         0.0000 
      5 C5          3.0825   53.8284   24.3512 C.ar      1 UNK         0.0000 
      6 C6          4.3253   54.2595   23.8494 C.ar      1 UNK         0.0000 
      7 C7          5.3648   54.5804   24.7404 C.ar      1 UNK         0.0000 
      8 N8          4.4377   54.3433   22.4436 N.am      1 UNK         0.0000 
      9 C9          5.5183   54.5203   21.6554 C.2       1 UNK         0.0000 
     10 O10         6.6570   54.7084   22.0820 O.2       1 UNK         0.0000 
     11 C11         5.2083   54.4312   20.2206 C.2       1 UNK         0.0000 
     12 C12         4.5139   53.3893   19.6507 C.2       1 UNK         0.0000 
     13 S13         4.2521   53.6672   17.9173 S.3       1 UNK         0.0000 
     14 C14         4.9844   55.2406   18.0446 C.ar      1 UNK         0.0000 
     15 N15         5.5335   55.4474   19.2957 N.pl3     1 UNK         0.0000 
     16 C16         6.3034   56.5946   19.5198 C.ar      1 UNK         0.0000 
     17 O17         6.9548   56.8949   20.5143 O.2       1 UNK         0.0000 
     18 C18         6.3037   57.5599   18.4307 C.ar      1 UNK         0.0000 
     19 C19         5.6751   57.2711   17.2688 C.ar      1 UNK         0.0000 
     20 N20         5.0349   56.0823   17.0656 N.2       1 UNK         0.0000 
     21 C21         5.5309   58.2531   16.1231 C.3       1 UNK         0.0000 
     22 C22         4.0007   52.1763   20.2795 C.2       1 UNK         0.0000 
     23 O23         4.5863   51.6061   21.2025 O.2       1 UNK         0.0000 
     24 N24         2.8113   51.7949   19.7805 N.am      1 UNK         0.0000 
     25 C25         1.9711   50.7389   20.1697 C.ar      1 UNK         0.0000 
     26 C26         1.9062   50.2976   21.4988 C.ar      1 UNK         0.0000 
     27 C27         1.0127   49.2968   21.8596 C.ar      1 UNK         0.0000 
     28 C28         0.1759   48.7335   20.8985 C.ar      1 UNK         0.0000 
     29 C29         0.2347   49.1469   19.5669 C.ar      1 UNK         0.0000 
     30 C30         1.1353   50.1632   19.1909 C.ar      1 UNK         0.0000 
     31 C31         1.2230   50.6429   17.7380 C.3       1 UNK         0.0000 
     32 C32        -0.6822   48.4664   18.5609 C.3       1 UNK         0.0000 
     33 O33         2.0949   53.5136   23.4306 O.3       1 UNK         0.0000 
     34 C34         0.8557   52.9798   23.8783 C.3       1 UNK         0.0000 
     35 H35         5.9279   55.1410   28.0506 H         1 UNK         0.0000 
     36 H36         6.8674   55.6968   26.6836 H         1 UNK         0.0000 
     37 H37         6.9896   54.0084   27.1840 H         1 UNK         0.0000 
     38 H38         3.7757   54.0068   27.6811 H         1 UNK         0.0000 
     39 H39         1.9659   53.4221   26.1641 H         1 UNK         0.0000 
     40 H40         6.3265   54.9184   24.3910 H         1 UNK         0.0000 
     41 H41         3.5693   54.1628   21.9615 H         1 UNK         0.0000 
     42 H42         6.7700   58.5265   18.5748 H         1 UNK         0.0000 
     43 H43         5.5457   59.2819   16.4892 H         1 UNK         0.0000 
     44 H44         6.3580   58.1322   15.4211 H         1 UNK         0.0000 
     45 H45         4.5928   58.1141   15.5809 H         1 UNK         0.0000 
     46 H46         2.5344   52.2560   18.9270 H         1 UNK         0.0000 
     47 H47         2.5219   50.7423   22.2671 H         1 UNK         0.0000 
     48 H48         0.9615   48.9625   22.8867 H         1 UNK         0.0000 
     49 H49        -0.5134   47.9575   21.1996 H         1 UNK         0.0000 
     50 H50         0.5437   50.1416   17.0522 H         1 UNK         0.0000 
     51 H51         1.0083   51.7131   17.6822 H         1 UNK         0.0000 
     52 H52         2.2374   50.4973   17.3596 H         1 UNK         0.0000 
     53 H53        -0.0922   48.0269   17.7543 H         1 UNK         0.0000 
     54 H54        -1.2725   47.6644   19.0096 H         1 UNK         0.0000 
     55 H55        -1.3663   49.1890   18.1174 H         1 UNK         0.0000 
     56 H56         0.2427   52.7352   23.0122 H         1 UNK         0.0000 
     57 H57         0.9966   52.0612   24.4513 H         1 UNK         0.0000 
     58 H58         0.3011   53.6976   24.4812 H         1 UNK         0.0000 
@<TRIPOS>BOND
     1    1    2 1    
     2    1   35 1    
     3    1   36 1    
     4    1   37 1    
     5    2    7 ar   
     6    2    3 ar   
     7    3    4 ar   
     8    3   38 1    
     9    4    5 ar   
    10    4   39 1    
    11    5    6 ar   
    12    5   33 1    
    13    6    7 ar   
    14    6    8 1    
    15    7   40 1    
    16    8    9 am   BACKBONE|DICT|INTERRES
    17    8   41 1    
    18    9   10 2    
    19    9   11 1    
    20   11   15 1    
    21   11   12 2    
    22   12   13 1    
    23   12   22 1    
    24   13   14 1    
    25   14   20 ar   
    26   14   15 ar   
    27   15   16 ar   
    28   16   17 2    
    29   16   18 ar   
    30   18   19 ar   
    31   18   42 1    
    32   19   20 ar   
    33   19   21 1    
    34   21   43 1    
    35   21   44 1    
    36   21   45 1    
    37   22   23 2    
    38   22   24 am   BACKBONE|DICT|INTERRES
    39   24   25 1    
    40   24   46 1    
    41   25   30 ar   
    42   25   26 ar   
    43   26   27 ar   
    44   26   47 1    
    45   27   28 ar   
    46   27   48 1    
    47   28   29 ar   
    48   28   49 1    
    49   29   30 ar   
    50   29   32 1    
    51   30   31 1    
    52   31   50 1    
    53   31   51 1    
    54   31   52 1    
    55   32   53 1    
    56   32   54 1    
    57   32   55 1    
    58   33   34 1    
    59   34   56 1    
    60   34   57 1    
    61   34   58 1    
@<TRIPOS>SUBSTRUCTURE
     1 UNK         1 GROUP             0       ****    0 ROOT    
