@<TRIPOS>MOLECULE
ZINC09805431_2902
79   82    1
SMALL
USER_CHARGES


@<TRIPOS>ATOM
      1 C1          8.9636   56.1823   18.7566 C.3       1 UNK         0.0000 
      2 C2          8.1130   54.9234   18.5048 C.3       1 UNK         0.0000 
      3 H3          8.5415   54.1006   19.0820 H         1 UNK         0.0000 
      4 C4          8.1435   54.4983   17.0187 C.3       1 UNK         0.0000 
      5 C5          7.2983   53.2335   16.7654 C.3       1 UNK         0.0000 
      6 C6          5.8497   53.4176   17.2637 C.3       1 UNK         0.0000 
      7 C7          6.6506   55.1081   18.9800 C.3       1 UNK         0.0000 
      8 C8          4.4465   53.8008   19.3453 C.3       1 UNK         0.0000 
      9 C9          4.4392   53.6390   20.8785 C.2       1 UNK         0.0000 
     10 O10         5.4843   53.7299   21.5295 O.2       1 UNK         0.0000 
     11 N11         3.2336   53.3684   21.4168 N.am      1 UNK         0.0000 
     12 C12         2.9022   53.2994   22.7693 C.2       1 UNK         0.0000 
     13 C13         1.8053   52.6066   23.3157 C.2       1 UNK         0.0000 
     14 C14         1.7179   52.7834   24.7256 C.2       1 UNK         0.0000 
     15 C15         2.8029   53.5173   25.2235 C.2       1 UNK         0.0000 
     16 S16         3.8540   54.0969   23.9901 S.3       1 UNK         0.0000 
     17 C17         3.1356   53.7431   26.6835 C.3       1 UNK         0.0000 
     18 C18         1.8815   53.4885   27.5684 C.3       1 UNK         0.0000 
     19 H19         1.1654   54.2901   27.3765 H         1 UNK         0.0000 
     20 C20         1.2127   52.1612   27.1218 C.3       1 UNK         0.0000 
     21 C21         0.6492   52.2268   25.6807 C.3       1 UNK         0.0000 
     22 C22         2.2053   53.5551   29.1100 C.3       1 UNK         0.0000 
     23 C23         3.0186   52.3290   29.6112 C.3       1 UNK         0.0000 
     24 C24         0.8916   53.6336   29.9336 C.3       1 UNK         0.0000 
     25 C25         3.0286   54.8272   29.4253 C.3       1 UNK         0.0000 
     26 C26         0.8855   51.8549   22.4899 C.2       1 UNK         0.0000 
     27 O27         0.4487   52.3288   21.4371 O.2       1 UNK         0.0000 
     28 N28         0.6628   50.5918   22.9100 N.am      1 UNK         0.0000 
     29 C29         0.0551   49.5933   22.1356 C.ar      1 UNK         0.0000 
     30 C30        -1.0634   48.9633   22.6785 C.ar      1 UNK         0.0000 
     31 C31        -1.7091   47.9530   21.9722 C.ar      1 UNK         0.0000 
     32 C32        -1.2456   47.5449   20.7215 C.ar      1 UNK         0.0000 
     33 C33        -0.1074   48.1662   20.1868 C.ar      1 UNK         0.0000 
     34 C34         0.5626   49.1873   20.8823 C.ar      1 UNK         0.0000 
     35 O35         1.7204   49.7907   20.4121 O.3       1 UNK         0.0000 
     36 C36         2.2440   49.4333   19.1344 C.3       1 UNK         0.0000 
     37 O37        -1.9446   46.5275   20.1050 O.3       1 UNK         0.0000 
     38 C38        -1.5128   46.0493   18.8340 C.3       1 UNK         0.0000 
     39 H39         8.5842   57.0421   18.2018 H         1 UNK         0.0000 
     40 H40         8.9804   56.4472   19.8147 H         1 UNK         0.0000 
     41 H41        10.0004   56.0235   18.4543 H         1 UNK         0.0000 
     42 H42         9.1749   54.3402   16.6949 H         1 UNK         0.0000 
     43 H43         7.7750   55.3159   16.3950 H         1 UNK         0.0000 
     44 H44         7.7484   52.3718   17.2642 H         1 UNK         0.0000 
     45 H45         7.2946   52.9965   15.6985 H         1 UNK         0.0000 
     46 H46         5.2925   52.4860   17.1604 H         1 UNK         0.0000 
     47 H47         5.3163   54.2213   16.7462 H         1 UNK         0.0000 
     48 H48         6.1133   55.8939   18.4401 H         1 UNK         0.0000 
     49 H49         6.6429   55.3499   20.0437 H         1 UNK         0.0000 
     50 H50         3.9035   52.9698   18.8837 H         1 UNK         0.0000 
     51 H51         3.9840   54.7382   19.0216 H         1 UNK         0.0000 
     52 H52         2.4843   53.1108   20.7865 H         1 UNK         0.0000 
     53 H53         3.9440   53.0641   26.9508 H         1 UNK         0.0000 
     54 H54         3.5109   54.7584   26.8060 H         1 UNK         0.0000 
     55 H55         1.8993   51.3251   27.2633 H         1 UNK         0.0000 
     56 H56         0.3727   51.9274   27.7752 H         1 UNK         0.0000 
     57 H57        -0.2242   52.8802   25.6525 H         1 UNK         0.0000 
     58 H58         0.2933   51.2352   25.4022 H         1 UNK         0.0000 
     59 H59         3.9511   52.1945   29.0620 H         1 UNK         0.0000 
     60 H60         3.2840   52.4282   30.6656 H         1 UNK         0.0000 
     61 H61         2.4563   51.3993   29.5263 H         1 UNK         0.0000 
     62 H62         0.2560   54.4545   29.5978 H         1 UNK         0.0000 
     63 H63         0.3031   52.7184   29.8675 H         1 UNK         0.0000 
     64 H64         1.0884   53.7920   30.9955 H         1 UNK         0.0000 
     65 H65         2.5126   55.7382   29.1164 H         1 UNK         0.0000 
     66 H66         3.2193   54.8960   30.4827 H         1 UNK         0.0000 
     67 H67         4.0142   54.8232   28.9603 H         1 UNK         0.0000 
     68 H68         1.0248   50.3080   23.8088 H         1 UNK         0.0000 
     69 H69        -1.4440   49.2566   23.6459 H         1 UNK         0.0000 
     70 H70        -2.5797   47.4781   22.3970 H         1 UNK         0.0000 
     71 H71         0.2656   47.8453   19.2304 H         1 UNK         0.0000 
     72 H72         3.1038   50.0613   18.9072 H         1 UNK         0.0000 
     73 H73         2.5801   48.3954   19.1153 H         1 UNK         0.0000 
     74 H74         1.5141   49.5920   18.3392 H         1 UNK         0.0000 
     75 H75        -2.1690   45.2403   18.5100 H         1 UNK         0.0000 
     76 H76        -0.4988   45.6491   18.8803 H         1 UNK         0.0000 
     77 H77        -1.5542   46.8305   18.0731 H         1 UNK         0.0000 
     78 N78         5.8925   53.7672   18.7726 N.4       1 UNK         0.0000 
     79 H79         6.3748   53.0204   19.2605 H         1 UNK         0.0000 
@<TRIPOS>BOND
     1    1    2 1    
     2    1   39 1    
     3    1   40 1    
     4    1   41 1    
     5    2    3 1    
     6    2    7 1    
     7    2    4 1    
     8    4    5 1    
     9    4   42 1    
    10    4   43 1    
    11    5    6 1    
    12    5   44 1    
    13    5   45 1    
    14    6   46 1    
    15    6   47 1    
    16    6   78 1    
    17    7   48 1    
    18    7   49 1    
    19    7   78 1    
    20    8    9 1    
    21    8   50 1    
    22    8   51 1    
    23    8   78 1    
    24    9   10 2    
    25    9   11 am   BACKBONE|DICT|INTERRES
    26   11   12 am   BACKBONE|DICT|INTERRES
    27   11   52 1    
    28   12   16 1    
    29   12   13 2    
    30   13   14 1    
    31   13   26 1    
    32   14   21 1    
    33   14   15 2    
    34   15   16 1    
    35   15   17 1    
    36   17   18 1    
    37   17   53 1    
    38   17   54 1    
    39   18   19 1    
    40   18   20 1    
    41   18   22 1    
    42   20   21 1    
    43   20   55 1    
    44   20   56 1    
    45   21   57 1    
    46   21   58 1    
    47   22   23 1    
    48   22   24 1    
    49   22   25 1    
    50   23   59 1    
    51   23   60 1    
    52   23   61 1    
    53   24   62 1    
    54   24   63 1    
    55   24   64 1    
    56   25   65 1    
    57   25   66 1    
    58   25   67 1    
    59   26   27 2    
    60   26   28 am   BACKBONE|DICT|INTERRES
    61   28   29 1    
    62   28   68 1    
    63   29   34 ar   
    64   29   30 ar   
    65   30   31 ar   
    66   30   69 1    
    67   31   32 ar   
    68   31   70 1    
    69   32   33 ar   
    70   32   37 1    
    71   33   34 ar   
    72   33   71 1    
    73   34   35 1    
    74   35   36 1    
    75   36   72 1    
    76   36   73 1    
    77   36   74 1    
    78   37   38 1    
    79   38   75 1    
    80   38   76 1    
    81   38   77 1    
    82   78   79 1    
@<TRIPOS>SUBSTRUCTURE
     1 UNK         1 GROUP             0       ****    0 ROOT    
