@<TRIPOS>MOLECULE
ZINC21323622_2871
50   53    1
SMALL
USER_CHARGES


@<TRIPOS>ATOM
      1 C1          0.0787   49.5287   25.8382 C.3       1 UNK         0.0000 
      2 C2          0.4109   51.0300   25.7846 C.2       1 UNK         0.0000 
      3 N3          0.7214   51.6542   24.7109 N.2       1 UNK         0.0000 
      4 N4          0.7735   50.9820   23.4809 N.pl3     1 UNK         0.0000 
      5 C5          1.8056   51.2036   22.5953 C.ar      1 UNK         0.0000 
      6 N6          2.5046   50.2475   22.0454 N.2       1 UNK         0.0000 
      7 N7          3.4596   50.8619   21.2430 N.2       1 UNK         0.0000 
      8 C8          3.3042   52.1556   21.3451 C.ar      1 UNK         0.0000 
      9 N9          2.2308   52.4472   22.1653 N.pl3     1 UNK         0.0000 
     10 N10         1.7129   53.6962   22.4819 N.3       1 UNK         0.0000 
     11 S11         4.3168   53.2857   20.4547 S.3       1 UNK         0.0000 
     12 C12         4.6864   54.4413   21.8093 C.3       1 UNK         0.0000 
     13 C13         6.1509   54.8984   21.7566 C.2       1 UNK         0.0000 
     14 O14         6.8215   54.7075   22.7713 O.2       1 UNK         0.0000 
     15 C15         6.7207   55.5275   20.5135 C.ar      1 UNK         0.0000 
     16 C16         5.9100   55.9744   19.4575 C.ar      1 UNK         0.0000 
     17 C17         6.4768   56.5655   18.3311 C.ar      1 UNK         0.0000 
     18 C18         7.8579   56.7101   18.2464 C.ar      1 UNK         0.0000 
     19 C19         8.6767   56.2723   19.2822 C.ar      1 UNK         0.0000 
     20 C20         8.1100   55.6968   20.4167 C.ar      1 UNK         0.0000 
     21 Br21        8.6334   57.5145   16.7053 Br        1 UNK         0.0000 
     22 C22         0.3367   51.7690   27.0670 C.ar      1 UNK         0.0000 
     23 C23        -0.4988   51.3484   28.1068 C.ar      1 UNK         0.0000 
     24 C24        -0.5461   52.0071   29.3298 C.ar      1 UNK         0.0000 
     25 C25         0.1941   53.1898   29.5278 C.ar      1 UNK         0.0000 
     26 C26         0.1155   53.9183   30.7361 C.ar      1 UNK         0.0000 
     27 C27         0.7711   55.1374   30.8573 C.ar      1 UNK         0.0000 
     28 C28         1.5642   55.6256   29.8231 C.ar      1 UNK         0.0000 
     29 C29         1.7120   54.8983   28.6448 C.ar      1 UNK         0.0000 
     30 C30         1.0181   53.6745   28.4706 C.ar      1 UNK         0.0000 
     31 C31         1.1040   52.9260   27.2707 C.ar      1 UNK         0.0000 
     32 H32         0.3312   49.0849   26.8005 H         1 UNK         0.0000 
     33 H33        -0.9894   49.3688   25.6919 H         1 UNK         0.0000 
     34 H34         0.6012   48.9483   25.0781 H         1 UNK         0.0000 
     35 H35         0.5150   50.0146   23.6043 H         1 UNK         0.0000 
     36 H36         2.3666   54.2111   23.0501 H         1 UNK         0.0000 
     37 H37         1.5101   54.2031   21.6231 H         1 UNK         0.0000 
     38 H38         4.0236   55.2966   21.7320 H         1 UNK         0.0000 
     39 H39         4.5170   53.9569   22.7713 H         1 UNK         0.0000 
     40 H40         4.8366   55.8637   19.4788 H         1 UNK         0.0000 
     41 H41         5.8466   56.9066   17.5220 H         1 UNK         0.0000 
     42 H42         9.7488   56.3894   19.2135 H         1 UNK         0.0000 
     43 H43         8.7675   55.3741   21.2137 H         1 UNK         0.0000 
     44 H44        -1.1449   50.4963   27.9819 H         1 UNK         0.0000 
     45 H45        -1.1848   51.6346   30.1201 H         1 UNK         0.0000 
     46 H46        -0.4878   53.5370   31.5499 H         1 UNK         0.0000 
     47 H47         0.7049   55.6954   31.7765 H         1 UNK         0.0000 
     48 H48         2.0797   56.5685   29.9433 H         1 UNK         0.0000 
     49 H49         2.3359   55.2770   27.8483 H         1 UNK         0.0000 
     50 H50         1.7536   53.2952   26.4894 H         1 UNK         0.0000 
@<TRIPOS>BOND
     1    1    2 1    
     2    1   32 1    
     3    1   33 1    
     4    1   34 1    
     5    2    3 2    
     6    2   22 1    
     7    3    4 1    
     8    4    5 1    
     9    4   35 1    
    10    5    9 ar   
    11    5    6 ar   
    12    6    7 ar   
    13    7    8 ar   
    14    8    9 ar   
    15    8   11 1    
    16    9   10 1    
    17   10   36 1    
    18   10   37 1    
    19   11   12 1    
    20   12   13 1    
    21   12   38 1    
    22   12   39 1    
    23   13   14 2    
    24   13   15 1    
    25   15   20 ar   
    26   15   16 ar   
    27   16   17 ar   
    28   16   40 1    
    29   17   18 ar   
    30   17   41 1    
    31   18   19 ar   
    32   18   21 1    
    33   19   20 ar   
    34   19   42 1    
    35   20   43 1    
    36   22   31 ar   
    37   22   23 ar   
    38   23   24 ar   
    39   23   44 1    
    40   24   25 ar   
    41   24   45 1    
    42   25   30 ar   
    43   25   26 ar   
    44   26   27 ar   
    45   26   46 1    
    46   27   28 ar   
    47   27   47 1    
    48   28   29 ar   
    49   28   48 1    
    50   29   30 ar   
    51   29   49 1    
    52   30   31 ar   
    53   31   50 1    
@<TRIPOS>SUBSTRUCTURE
     1 UNK         1 GROUP             0       ****    0 ROOT    
