@<TRIPOS>MOLECULE
ZINC02292353_4464
55   60    1
SMALL
USER_CHARGES


@<TRIPOS>ATOM
      1 C1         -0.9999   51.5875   27.4837 C.ar      1 UNK         0.0000 
      2 C2          0.2537   51.9496   27.0114 C.ar      1 UNK         0.0000 
      3 C3          0.4847   52.0708   25.6443 C.ar      1 UNK         0.0000 
      4 C4         -0.5550   51.8296   24.6946 C.ar      1 UNK         0.0000 
      5 C5         -1.8433   51.4582   25.1992 C.ar      1 UNK         0.0000 
      6 C6         -2.0422   51.3418   26.5976 C.ar      1 UNK         0.0000 
      7 C7         -2.8971   51.2015   24.2931 C.ar      1 UNK         0.0000 
      8 C8         -2.6926   51.3092   22.9253 C.ar      1 UNK         0.0000 
      9 C9         -1.4512   51.6754   22.4220 C.ar      1 UNK         0.0000 
     10 C10        -0.3656   51.9300   23.2724 C.ar      1 UNK         0.0000 
     11 N11         0.9015   52.3310   22.7992 N.am      1 UNK         0.0000 
     12 C12         1.4101   52.3783   21.5490 C.2       1 UNK         0.0000 
     13 O13         0.8399   51.9729   20.5351 O.2       1 UNK         0.0000 
     14 C14         2.7354   52.9778   21.5001 C.ar      1 UNK         0.0000 
     15 C15         3.5350   53.5342   22.5544 C.ar      1 UNK         0.0000 
     16 C16         4.7677   53.9748   22.0222 C.ar      1 UNK         0.0000 
     17 N17         5.7537   54.4506   22.7962 N.ar      1 UNK         0.0000 
     18 C18         5.5473   54.4962   24.1440 C.ar      1 UNK         0.0000 
     19 C19         6.5685   54.9226   25.0193 C.ar      1 UNK         0.0000 
     20 C20         6.3586   54.9034   26.3995 C.ar      1 UNK         0.0000 
     21 C21         5.1358   54.4972   26.9279 C.ar      1 UNK         0.0000 
     22 C22         4.0937   54.1121   26.0894 C.ar      1 UNK         0.0000 
     23 C23         4.2942   54.0965   24.6899 C.ar      1 UNK         0.0000 
     24 N24         3.3087   53.6597   23.8671 N.ar      1 UNK         0.0000 
     25 N25         4.7237   53.8113   20.6406 N.pl3     1 UNK         0.0000 
     26 C26         3.5045   53.1868   20.3405 C.ar      1 UNK         0.0000 
     27 N27         3.1622   52.8966   19.0430 N.pl3     1 UNK         0.0000 
     28 C28         5.7196   54.2534   19.7182 C.ar      1 UNK         0.0000 
     29 C29         6.3829   55.4717   19.9341 C.ar      1 UNK         0.0000 
     30 C30         7.3966   55.8877   19.0736 C.ar      1 UNK         0.0000 
     31 C31         7.7557   55.0969   17.9828 C.ar      1 UNK         0.0000 
     32 C32         7.1079   53.8768   17.7451 C.ar      1 UNK         0.0000 
     33 C33         6.1034   53.4587   18.6273 C.ar      1 UNK         0.0000 
     34 C34         7.4901   53.0033   16.5482 C.3       1 UNK         0.0000 
     35 F35         6.3941   52.5376   15.9441 F         1 UNK         0.0000 
     36 F36         8.2000   53.6807   15.6432 F         1 UNK         0.0000 
     37 F37         8.2229   51.9714   16.9650 F         1 UNK         0.0000 
     38 H38        -1.1629   51.4769   28.5467 H         1 UNK         0.0000 
     39 H39         1.0575   52.1235   27.7126 H         1 UNK         0.0000 
     40 H40         1.4762   52.3336   25.3138 H         1 UNK         0.0000 
     41 H41        -3.0085   51.0453   26.9789 H         1 UNK         0.0000 
     42 H42        -3.8662   50.9119   24.6733 H         1 UNK         0.0000 
     43 H43        -3.5059   51.1027   22.2456 H         1 UNK         0.0000 
     44 H44        -1.3592   51.7530   21.3512 H         1 UNK         0.0000 
     45 H45         1.5083   52.7044   23.5111 H         1 UNK         0.0000 
     46 H46         7.5058   55.2458   24.5997 H         1 UNK         0.0000 
     47 H47         7.1405   55.2116   27.0770 H         1 UNK         0.0000 
     48 H48         4.9925   54.4943   27.9995 H         1 UNK         0.0000 
     49 H49         3.1454   53.8019   26.5035 H         1 UNK         0.0000 
     50 H50         2.2747   52.4515   18.8456 H         1 UNK         0.0000 
     51 H51         3.7799   53.0602   18.2606 H         1 UNK         0.0000 
     52 H52         6.1118   56.1063   20.7645 H         1 UNK         0.0000 
     53 H53         7.9061   56.8234   19.2485 H         1 UNK         0.0000 
     54 H54         8.5443   55.4365   17.3262 H         1 UNK         0.0000 
     55 H55         5.6386   52.4966   18.4636 H         1 UNK         0.0000 
@<TRIPOS>BOND
     1    1    6 ar   
     2    1    2 ar   
     3    1   38 1    
     4    2    3 ar   
     5    2   39 1    
     6    3    4 ar   
     7    3   40 1    
     8    4   10 ar   
     9    4    5 ar   
    10    5    6 ar   
    11    5    7 ar   
    12    6   41 1    
    13    7    8 ar   
    14    7   42 1    
    15    8    9 ar   
    16    8   43 1    
    17    9   10 ar   
    18    9   44 1    
    19   10   11 1    
    20   11   12 am   BACKBONE|DICT|INTERRES
    21   11   45 1    
    22   12   13 2    
    23   12   14 1    
    24   14   26 ar   
    25   14   15 ar   
    26   15   24 ar   
    27   15   16 ar   
    28   16   17 ar   
    29   16   25 ar   
    30   17   18 ar   
    31   18   23 ar   
    32   18   19 ar   
    33   19   20 ar   
    34   19   46 1    
    35   20   21 ar   
    36   20   47 1    
    37   21   22 ar   
    38   21   48 1    
    39   22   23 ar   
    40   22   49 1    
    41   23   24 ar   
    42   25   26 ar   
    43   25   28 1    
    44   26   27 1    
    45   27   50 1    
    46   27   51 1    
    47   28   33 ar   
    48   28   29 ar   
    49   29   30 ar   
    50   29   52 1    
    51   30   31 ar   
    52   30   53 1    
    53   31   32 ar   
    54   31   54 1    
    55   32   33 ar   
    56   32   34 1    
    57   33   55 1    
    58   34   35 1    
    59   34   36 1    
    60   34   37 1    
@<TRIPOS>SUBSTRUCTURE
     1 UNK         1 GROUP             0       ****    0 ROOT    
