@<TRIPOS>MOLECULE
ZINC36861250_4782
32   33    1
SMALL
USER_CHARGES


@<TRIPOS>ATOM
      1 C1         -0.0209   52.2121   25.2216 C.3       1 UNK         0.0000 
      2 C2          1.0377   51.7131   26.2181 C.3       1 UNK         0.0000 
      3 N3          0.6903   52.0346   27.6081 N.pl3     1 UNK         0.0000 
      4 C4         -0.3759   51.4337   28.2324 C.ar      1 UNK         0.0000 
      5 C5         -0.4414   51.7929   29.5537 C.ar      1 UNK         0.0000 
      6 C6          0.5885   52.7076   29.7350 C.ar      1 UNK         0.0000 
      7 C7          1.3114   52.8648   28.5485 C.ar      1 UNK         0.0000 
      8 C8          2.5592   53.5988   28.4405 C.2       1 UNK         0.0000 
      9 O9          3.2107   53.8491   29.4571 O.2       1 UNK         0.0000 
     10 N10         2.9264   53.9356   27.1894 N.am      1 UNK         0.0000 
     11 C11         4.2001   54.2530   26.6775 C.ar      1 UNK         0.0000 
     12 C12         5.3774   54.2629   27.4481 C.ar      1 UNK         0.0000 
     13 C13         6.6137   54.5002   26.8491 C.ar      1 UNK         0.0000 
     14 C14         6.6929   54.7294   25.4765 C.ar      1 UNK         0.0000 
     15 C15         5.5342   54.7289   24.7057 C.ar      1 UNK         0.0000 
     16 C16         4.2915   54.4967   25.2961 C.ar      1 UNK         0.0000 
     17 Br17        2.7479   54.4967   24.1688 Br        1 UNK         0.0000 
     18 N18        -1.2956   51.2967   30.4817 N.pl3     1 UNK         0.0000 
     19 H19         0.2145   51.8749   24.2117 H         1 UNK         0.0000 
     20 H20        -1.0183   51.8427   25.4633 H         1 UNK         0.0000 
     21 H21        -0.0604   53.2967   25.1941 H         1 UNK         0.0000 
     22 H22         2.0134   52.0967   25.9452 H         1 UNK         0.0000 
     23 H23         1.1044   50.6263   26.1544 H         1 UNK         0.0000 
     24 H24        -0.9791   50.7132   27.6967 H         1 UNK         0.0000 
     25 H25         0.8254   53.1720   30.6811 H         1 UNK         0.0000 
     26 H26         2.2283   53.7974   26.4760 H         1 UNK         0.0000 
     27 H27         5.3691   54.0680   28.5085 H         1 UNK         0.0000 
     28 H28         7.5064   54.4947   27.4567 H         1 UNK         0.0000 
     29 H29         7.6451   54.8967   24.9967 H         1 UNK         0.0000 
     30 H30         5.5999   54.8972   23.6407 H         1 UNK         0.0000 
     31 H31        -1.6956   50.3633   30.3675 H         1 UNK         0.0000 
     32 H32        -1.2957   51.6107   31.4602 H         1 UNK         0.0000 
@<TRIPOS>BOND
     1    1    2 1    
     2    1   19 1    
     3    1   20 1    
     4    1   21 1    
     5    2    3 1    
     6    2   22 1    
     7    2   23 1    
     8    3    7 ar   
     9    3    4 ar   
    10    4    5 ar   
    11    4   24 1    
    12    5    6 ar   
    13    5   18 1    
    14    6    7 ar   
    15    6   25 1    
    16    7    8 1    
    17    8    9 2    
    18    8   10 am   BACKBONE|DICT|INTERRES
    19   10   11 1    
    20   10   26 1    
    21   11   16 ar   
    22   11   12 ar   
    23   12   13 ar   
    24   12   27 1    
    25   13   14 ar   
    26   13   28 1    
    27   14   15 ar   
    28   14   29 1    
    29   15   16 ar   
    30   15   30 1    
    31   16   17 1    
    32   18   31 1    
    33   18   32 1    
@<TRIPOS>SUBSTRUCTURE
     1 UNK         1 GROUP             0       ****    0 ROOT    
