ZINC35324910_1378
                    3D
 Schrodinger Suite 2024-2.
 45 48  0  0  1  0            999 V2000
    4.6453   54.4559   18.1744 C   0  0  0  0  0  0
    5.5438   53.5377   19.0128 C   0  0  0  0  0  0
    4.7971   52.4969   19.7024 N   0  0  0  0  0  0
    4.0507   52.6313   20.8447 C   0  0  0  0  0  0
    3.2566   51.6901   21.2899 N   0  0  0  0  0  0
    2.6060   52.0958   22.3601 C   0  0  0  0  0  0
    2.9311   53.3432   22.8822 C   0  0  0  0  0  0
    4.0762   54.0910   21.8077 S   0  0  0  0  0  0
    2.2267   53.8943   24.1238 C   0  0  1  0  0  0
    2.1533   54.9794   24.0422 H   0  0  0  0  0  0
    0.7689   53.3161   24.0232 C   0  0  0  0  0  0
    0.7349   51.7671   23.8482 C   0  0  0  0  0  0
   -0.0669   51.0315   24.4140 O   0  0  0  0  0  0
    1.6188   51.3186   22.9279 N   0  0  0  0  0  0
    2.9431   53.6967   25.4860 C   0  0  0  0  0  0
    2.2799   53.0332   26.5404 C   0  0  0  0  0  0
    2.9114   52.9110   27.7643 C   0  0  0  0  0  0
    4.1479   53.4301   27.9898 C   0  0  0  0  0  0
    4.8552   54.1028   26.9871 C   0  0  0  0  0  0
    4.2421   54.2277   25.7140 C   0  0  0  0  0  0
    4.8509   54.8965   24.6694 O   0  0  0  0  0  0
    6.2519   54.7239   24.4582 C   0  0  0  0  0  0
    6.0793   54.6910   27.2326 O   0  0  0  0  0  0
    6.9947   54.0155   28.0823 C   0  0  0  0  0  0
    4.5014   53.1577   29.2755 O   0  0  0  0  0  0
    3.3792   52.5840   29.8831 C   0  0  0  0  0  0
    2.4701   52.2614   28.8725 O   0  0  0  0  0  0
    5.2372   55.2152   17.6629 H   0  0  0  0  0  0
    4.1054   53.8911   17.4134 H   0  0  0  0  0  0
    3.9106   54.9717   18.7939 H   0  0  0  0  0  0
    6.2799   53.0531   18.3698 H   0  0  0  0  0  0
    6.1139   54.1231   19.7354 H   0  0  0  0  0  0
    4.7046   51.6497   19.1350 H   0  0  0  0  0  0
    0.1439   53.5963   24.8678 H   0  0  0  0  0  0
    0.2991   53.6967   23.1223 H   0  0  0  0  0  0
    1.5842   50.3245   22.7613 H   0  0  0  0  0  0
    1.3002   52.5982   26.4316 H   0  0  0  0  0  0
    6.4853   54.9188   23.4113 H   0  0  0  0  0  0
    6.8329   55.4370   25.0438 H   0  0  0  0  0  0
    6.5879   53.7094   24.6841 H   0  0  0  0  0  0
    7.9611   54.4965   27.9707 H   0  0  0  0  0  0
    6.7242   54.0972   29.1335 H   0  0  0  0  0  0
    7.1050   52.9621   27.8171 H   0  0  0  0  0  0
    3.6737   51.6981   30.4432 H   0  0  0  0  0  0
    2.9099   53.3079   30.5466 H   0  0  0  0  0  0
  1  2  1  0  0  0
  1 28  1  0  0  0
  1 29  1  0  0  0
  1 30  1  0  0  0
  2  3  1  0  0  0
  2 31  1  0  0  0
  2 32  1  0  0  0
  3  4  1  0  0  0
  3 33  1  0  0  0
  4  8  1  0  0  0
  4  5  2  0  0  0
  5  6  1  0  0  0
  6 14  1  0  0  0
  6  7  2  0  0  0
  7  8  1  0  0  0
  7  9  1  0  0  0
  9 10  1  0  0  0
  9 11  1  0  0  0
  9 15  1  0  0  0
 11 12  1  0  0  0
 11 34  1  0  0  0
 11 35  1  0  0  0
 12 13  2  0  0  0
 12 14  1  0  0  0
 14 36  1  0  0  0
 15 20  2  0  0  0
 15 16  1  0  0  0
 16 17  2  0  0  0
 16 37  1  0  0  0
 17 27  1  0  0  0
 17 18  1  0  0  0
 18 19  2  0  0  0
 18 25  1  0  0  0
 19 20  1  0  0  0
 19 23  1  0  0  0
 20 21  1  0  0  0
 21 22  1  0  0  0
 22 38  1  0  0  0
 22 39  1  0  0  0
 22 40  1  0  0  0
 23 24  1  0  0  0
 24 41  1  0  0  0
 24 42  1  0  0  0
 24 43  1  0  0  0
 25 26  1  0  0  0
 26 27  1  0  0  0
 26 44  1  0  0  0
 26 45  1  0  0  0
M  END
> <i_i_glide_confnum>
6

> <i_i_glide_lignum>
1379

> <i_i_glide_posenum>
211

> <i_i_glide_rotatable_bonds>
5

> <i_m_Source_File_Index>
812

> <b_m_subgroup_collapsed>
0

> <r_i_docking_score>
-5.87835

> <r_i_glide_ecoul>
-0.764717

> <r_i_glide_eff_state_penalty>
0

> <r_i_glide_einternal>
10.311

> <r_i_glide_emodel>
-47.7049

> <r_i_glide_energy>
-38.6039

> <r_i_glide_erotb>
0.271944

> <r_i_glide_esite>
-0.0761244

> <r_i_glide_evdw>
-37.8391

> <r_i_glide_gscore>
-5.87835

> <r_i_glide_hbond>
-0.16

> <r_i_glide_ligand_efficiency>
-0.22609

> <r_i_glide_ligand_efficiency_ln>
-1.38051

> <r_i_glide_ligand_efficiency_sa>
-0.669792

> <r_i_glide_lipo>
-2.66417

> <r_i_glide_metal>
0

> <r_i_glide_rewards>
-1.24333

> <s_i_glide_gridfile>
wee1_glide-grid

> <s_m_Source_File>
wee1_decoys_glide_SP.sdf

> <s_m_Source_Path>
/Users/zhangxujun/Desktop

> <s_m_entry_id>
1087

> <s_m_entry_name>
wee1_decoys_glide_SP.812

> <s_m_subgroup_title>
wee1_decoys_glide_SP

> <s_m_subgroupid>
wee1_decoys_glide_SP


$$$$
