@<TRIPOS>MOLECULE
ZINC04556313_1315
48   51    1
SMALL
USER_CHARGES


@<TRIPOS>ATOM
      1 C1         -3.8727   45.8908   26.0373 C.3       1 UNK         0.0000 
      2 C2         -3.7126   47.3499   26.4892 C.3       1 UNK         0.0000 
      3 C3         -1.3464   47.6015   25.4889 C.3       1 UNK         0.0000 
      4 C4         -0.5294   48.3357   24.3977 C.3       1 UNK         0.0000 
      5 C5         -0.7550   49.8459   24.4492 C.2       1 UNK         0.0000 
      6 C6         -1.8269   50.4023   25.1628 C.2       1 UNK         0.0000 
      7 S7         -1.8682   52.1301   25.0755 S.3       1 UNK         0.0000 
      8 C8         -0.4253   52.1291   24.1318 C.2       1 UNK         0.0000 
      9 C9          0.0545   50.8427   23.8615 C.2       1 UNK         0.0000 
     10 C10         1.2445   50.7748   23.0181 C.2       1 UNK         0.0000 
     11 N11         1.9181   51.7726   22.6156 N.2       1 UNK         0.0000 
     12 C12         1.5006   53.1171   23.0474 C.3       1 UNK         0.0000 
     13 H13         1.4676   53.7442   22.1532 H         1 UNK         0.0000 
     14 N14         0.1714   53.2898   23.6818 N.pl3     1 UNK         0.0000 
     15 C15         2.6558   53.6721   23.8826 C.ar      1 UNK         0.0000 
     16 C16         2.5917   53.6961   25.2813 C.ar      1 UNK         0.0000 
     17 C17         3.6997   54.0738   26.0266 C.ar      1 UNK         0.0000 
     18 C18         4.8942   54.4204   25.3823 C.ar      1 UNK         0.0000 
     19 C19         4.9365   54.4676   23.9839 C.ar      1 UNK         0.0000 
     20 C20         3.8218   54.0959   23.2395 C.ar      1 UNK         0.0000 
     21 C21         6.1382   54.6886   26.1543 C.2       1 UNK         0.0000 
     22 O22         7.1041   55.2946   25.6867 O.2       1 UNK         0.0000 
     23 O23         6.1307   54.0825   27.3676 O.3       1 UNK         0.0000 
     24 C24         7.3024   54.0001   28.1598 C.3       1 UNK         0.0000 
     25 O25         1.7592   49.5840   22.5819 O.3       1 UNK         0.0000 
     26 C26        -2.8125   49.6347   26.0178 C.3       1 UNK         0.0000 
     27 H27        -4.6631   45.4054   26.6104 H         1 UNK         0.0000 
     28 H28        -4.1425   45.8190   24.9839 H         1 UNK         0.0000 
     29 H29        -2.9657   45.3164   26.2219 H         1 UNK         0.0000 
     30 H30        -3.2958   47.4259   27.4962 H         1 UNK         0.0000 
     31 H31        -4.6759   47.8619   26.4691 H         1 UNK         0.0000 
     32 H32        -0.9099   47.7049   26.4791 H         1 UNK         0.0000 
     33 H33        -1.3980   46.5422   25.2441 H         1 UNK         0.0000 
     34 H34        -0.8226   47.9724   23.4121 H         1 UNK         0.0000 
     35 H35         0.5225   48.0839   24.5248 H         1 UNK         0.0000 
     36 H36         0.1217   54.1466   24.2184 H         1 UNK         0.0000 
     37 H37         1.7056   53.3666   25.8049 H         1 UNK         0.0000 
     38 H38         3.6324   54.0378   27.1037 H         1 UNK         0.0000 
     39 H39         5.8400   54.7465   23.4604 H         1 UNK         0.0000 
     40 H40         3.8812   54.0891   22.1606 H         1 UNK         0.0000 
     41 H41         7.0369   53.8802   29.2085 H         1 UNK         0.0000 
     42 H42         7.9201   54.8931   28.0781 H         1 UNK         0.0000 
     43 H43         7.9030   53.1390   27.8602 H         1 UNK         0.0000 
     44 H44         1.7754   48.9515   23.3019 H         1 UNK         0.0000 
     45 H45        -2.5309   49.6967   27.0711 H         1 UNK         0.0000 
     46 H46        -3.8383   49.9855   25.8930 H         1 UNK         0.0000 
     47 N47        -2.7939   48.1600   25.5346 N.4       1 UNK         0.0000 
     48 H48        -3.1885   48.1158   24.6051 H         1 UNK         0.0000 
@<TRIPOS>BOND
     1    1    2 1    
     2    1   27 1    
     3    1   28 1    
     4    1   29 1    
     5    2   30 1    
     6    2   31 1    
     7    2   47 1    
     8    3    4 1    
     9    3   32 1    
    10    3   33 1    
    11    3   47 1    
    12    4    5 1    
    13    4   34 1    
    14    4   35 1    
    15    5    9 1    
    16    5    6 2    
    17    6    7 1    
    18    6   26 1    
    19    7    8 1    
    20    8   14 1    
    21    8    9 2    
    22    9   10 1    
    23   10   11 2    
    24   10   25 1    
    25   11   12 1    
    26   12   13 1    
    27   12   14 1    
    28   12   15 1    
    29   14   36 1    
    30   15   20 ar   
    31   15   16 ar   
    32   16   17 ar   
    33   16   37 1    
    34   17   18 ar   
    35   17   38 1    
    36   18   19 ar   
    37   18   21 1    
    38   19   20 ar   
    39   19   39 1    
    40   20   40 1    
    41   21   22 2    
    42   21   23 1    
    43   23   24 1    
    44   24   41 1    
    45   24   42 1    
    46   24   43 1    
    47   25   44 1    
    48   26   45 1    
    49   26   46 1    
    50   26   47 1    
    51   47   48 1    
@<TRIPOS>SUBSTRUCTURE
     1 UNK         1 GROUP             0       ****    0 ROOT    
