@<TRIPOS>MOLECULE
ZINC39633510_283
69   72    1
SMALL
USER_CHARGES


@<TRIPOS>ATOM
      1 C1         -0.6211   50.6564   25.1567 C.3       1 UNK         0.0000 
      2 C2          0.0143   51.9217   25.7670 C.3       1 UNK         0.0000 
      3 H3         -0.8087   52.6009   25.9819 H         1 UNK         0.0000 
      4 C4          0.9638   52.6377   24.7297 C.2       1 UNK         0.0000 
      5 O5          0.5323   52.8016   23.5856 O.2       1 UNK         0.0000 
      6 N6          2.2106   53.0824   25.0465 N.am      1 UNK         0.0000 
      7 C7          3.1254   53.7274   24.1001 C.3       1 UNK         0.0000 
      8 C8          4.0712   54.5841   24.9646 C.3       1 UNK         0.0000 
      9 H9          3.7026   55.6237   24.9620 H         1 UNK         0.0000 
     10 C10         3.9591   53.9991   26.4205 C.3       1 UNK         0.0000 
     11 C11         2.7057   53.1252   26.4023 C.3       1 UNK         0.0000 
     12 C12         5.2244   53.2961   26.9742 C.3       1 UNK         0.0000 
     13 C13         5.0006   52.7169   28.3760 C.3       1 UNK         0.0000 
     14 N14         4.7030   53.8984   29.2870 N.4       1 UNK         0.0000 
     15 C15         3.4645   54.6748   28.8644 C.3       1 UNK         0.0000 
     16 C16         3.7528   55.0906   27.4374 C.3       1 UNK         0.0000 
     17 C17         5.5256   54.7073   24.3716 C.2       1 UNK         0.0000 
     18 O18         6.3821   55.2606   25.0591 O.2       1 UNK         0.0000 
     19 N19         5.9043   54.3454   23.1296 N.am      1 UNK         0.0000 
     20 C20         5.2136   54.4973   21.8393 C.3       1 UNK         0.0000 
     21 C21         5.9073   55.5977   20.9775 C.3       1 UNK         0.0000 
     22 C22         7.0225   55.2036   19.9897 C.3       1 UNK         0.0000 
     23 C23         6.4864   54.6701   18.6495 C.3       1 UNK         0.0000 
     24 C24         5.7718   53.3035   18.6787 C.3       1 UNK         0.0000 
     25 C25         4.6013   53.1585   19.6682 C.3       1 UNK         0.0000 
     26 C26         5.0163   53.1234   21.1521 C.3       1 UNK         0.0000 
     27 O27         0.6864   51.4045   26.9372 O.3       1 UNK         0.0000 
     28 C28         0.6390   52.0214   28.1835 C.ar      1 UNK         0.0000 
     29 C29         1.5091   51.5174   29.1512 C.ar      1 UNK         0.0000 
     30 C30         1.5828   52.0964   30.4224 C.ar      1 UNK         0.0000 
     31 C31         0.7539   53.1626   30.7404 C.ar      1 UNK         0.0000 
     32 C32        -0.0952   53.6892   29.7770 C.ar      1 UNK         0.0000 
     33 C33        -0.1431   53.1349   28.4994 C.ar      1 UNK         0.0000 
     34 H34        -1.2256   50.8804   24.2739 H         1 UNK         0.0000 
     35 H35         0.1347   49.9247   24.8650 H         1 UNK         0.0000 
     36 H36        -1.2844   50.1751   25.8816 H         1 UNK         0.0000 
     37 H37         3.6867   52.9146   23.6652 H         1 UNK         0.0000 
     38 H38         2.6050   54.3333   23.3604 H         1 UNK         0.0000 
     39 H39         1.9248   53.6473   26.9465 H         1 UNK         0.0000 
     40 H40         2.9028   52.1274   26.7830 H         1 UNK         0.0000 
     41 H41         5.4992   52.4967   26.3236 H         1 UNK         0.0000 
     42 H42         6.1017   53.9327   27.0076 H         1 UNK         0.0000 
     43 H43         4.1754   52.0162   28.4637 H         1 UNK         0.0000 
     44 H44         5.9047   52.2738   28.7595 H         1 UNK         0.0000 
     45 H45         4.5996   53.5686   30.2371 H         1 UNK         0.0000 
     46 H46         2.6039   54.0263   28.9658 H         1 UNK         0.0000 
     47 H47         3.3713   55.5240   29.5445 H         1 UNK         0.0000 
     48 H48         4.6473   55.6965   27.4042 H         1 UNK         0.0000 
     49 H49         2.8962   55.6939   27.1642 H         1 UNK         0.0000 
     50 H50         6.8991   54.4610   23.0214 H         1 UNK         0.0000 
     51 H51         4.2220   54.9020   22.0487 H         1 UNK         0.0000 
     52 H52         5.1608   56.0818   20.3556 H         1 UNK         0.0000 
     53 H53         6.2680   56.3955   21.6222 H         1 UNK         0.0000 
     54 H54         7.6243   56.0955   19.7668 H         1 UNK         0.0000 
     55 H55         7.7226   54.4985   20.4325 H         1 UNK         0.0000 
     56 H56         5.8094   55.4081   18.2134 H         1 UNK         0.0000 
     57 H57         7.3219   54.6018   17.9525 H         1 UNK         0.0000 
     58 H58         5.4051   53.0922   17.6758 H         1 UNK         0.0000 
     59 H59         6.4936   52.5142   18.8671 H         1 UNK         0.0000 
     60 H60         3.8541   53.9385   19.4999 H         1 UNK         0.0000 
     61 H61         4.0905   52.2225   19.4414 H         1 UNK         0.0000 
     62 H62         5.8980   52.4952   21.3048 H         1 UNK         0.0000 
     63 H63         4.2182   52.6001   21.6745 H         1 UNK         0.0000 
     64 H64         2.1171   50.6615   28.8784 H         1 UNK         0.0000 
     65 H65         2.2438   51.6989   31.1811 H         1 UNK         0.0000 
     66 H66         0.7540   53.5740   31.7377 H         1 UNK         0.0000 
     67 H67        -0.7390   54.5021   30.0409 H         1 UNK         0.0000 
     68 H68        -0.8207   53.5807   27.7921 H         1 UNK         0.0000 
     69 H69         5.5026   54.5237   29.2759 H         1 UNK         0.0000 
@<TRIPOS>BOND
     1    1    2 1    
     2    1   34 1    
     3    1   35 1    
     4    1   36 1    
     5    2    3 1    
     6    2    4 1    
     7    2   27 1    
     8    4    5 2    
     9    4    6 am   BACKBONE|DICT|INTERRES
    10    6   11 1    
    11    6    7 1    
    12    7    8 1    
    13    7   37 1    
    14    7   38 1    
    15    8    9 1    
    16    8   10 1    
    17    8   17 1    
    18   10   16 1    
    19   10   11 1    
    20   10   12 1    
    21   11   39 1    
    22   11   40 1    
    23   12   13 1    
    24   12   41 1    
    25   12   42 1    
    26   13   14 1    
    27   13   43 1    
    28   13   44 1    
    29   14   15 1    
    30   14   45 1    
    31   14   69 1    
    32   15   16 1    
    33   15   46 1    
    34   15   47 1    
    35   16   48 1    
    36   16   49 1    
    37   17   18 2    
    38   17   19 am   BACKBONE|DICT|INTERRES
    39   19   20 1    
    40   19   50 1    
    41   20   26 1    
    42   20   21 1    
    43   20   51 1    
    44   21   22 1    
    45   21   52 1    
    46   21   53 1    
    47   22   23 1    
    48   22   54 1    
    49   22   55 1    
    50   23   24 1    
    51   23   56 1    
    52   23   57 1    
    53   24   25 1    
    54   24   58 1    
    55   24   59 1    
    56   25   26 1    
    57   25   60 1    
    58   25   61 1    
    59   26   62 1    
    60   26   63 1    
    61   27   28 1    
    62   28   33 ar   
    63   28   29 ar   
    64   29   30 ar   
    65   29   64 1    
    66   30   31 ar   
    67   30   65 1    
    68   31   32 ar   
    69   31   66 1    
    70   32   33 ar   
    71   32   67 1    
    72   33   68 1    
@<TRIPOS>SUBSTRUCTURE
     1 UNK         1 GROUP             0       ****    0 ROOT    
