ZINC38799178_4994
                    3D
 Schrodinger Suite 2024-2.
 58 62  0  0  1  0            999 V2000
    4.6573   53.6286   22.2482 C   0  0  0  0  0  0
    3.2262   53.4007   21.7023 C   0  0  1  0  0  0
    3.1049   54.0879   20.8656 H   0  0  0  0  0  0
    3.0294   51.9791   21.1265 C   0  0  0  0  0  0
    3.9042   51.1265   21.2829 O   0  0  0  0  0  0
    1.8536   51.7426   20.5029 N   0  0  0  0  0  0
    1.3939   50.5388   19.9261 C   0  0  0  0  0  0
    2.2985   49.6480   19.3247 C   0  0  0  0  0  0
    1.8640   48.4655   18.7390 C   0  0  0  0  0  0
    0.5099   48.1561   18.7333 C   0  0  0  0  0  0
   -0.4063   49.0389   19.2998 C   0  0  0  0  0  0
    0.0045   50.2462   19.8943 C   0  0  0  0  0  0
   -1.0406   51.1477   20.4621 N   0  3  0  0  0  0
   -0.7131   52.0960   21.1653 O   0  0  0  0  0  0
   -2.2190   50.9152   20.2086 O   0  5  0  0  0  0
    1.9012   53.8549   22.8814 S   0  0  0  0  0  0
    2.2728   52.8756   24.3381 C   0  0  1  0  0  0
    2.7038   51.9254   24.0244 H   0  0  0  0  0  0
    3.1520   53.5668   25.2645 N   0  0  0  0  0  0
    2.7394   53.3684   26.5688 N   0  0  0  0  0  0
    1.5741   52.8982   26.4966 C   0  0  0  0  0  0
    1.1368   52.6524   25.2182 N   0  0  0  0  0  0
    0.0714   51.8530   24.7709 C   0  0  0  0  0  0
   -1.1226   52.4628   24.3793 C   0  0  0  0  0  0
   -2.1889   51.6868   23.9304 C   0  0  0  0  0  0
   -2.0562   50.2982   23.8707 C   0  0  0  0  0  0
   -0.8706   49.6811   24.2695 C   0  0  0  0  0  0
    0.1941   50.4597   24.7167 C   0  0  0  0  0  0
   -3.3688   49.3373   23.2968 Cl  0  0  0  0  0  0
    0.8090   52.6610   27.6867 C   0  0  0  0  0  0
    0.7732   53.5101   28.7277 C   0  0  0  0  0  0
    1.3430   54.8583   28.9152 C   0  0  0  0  0  0
    1.2058   55.5037   30.0836 C   0  0  0  0  0  0
    0.5131   54.8074   31.1499 C   0  0  0  0  0  0
   -0.0064   53.5605   31.0034 C   0  0  0  0  0  0
    0.0862   52.8978   29.7782 C   0  0  0  0  0  0
   -0.3698   51.7146   29.4178 N   0  3  0  0  0  0
    0.0057   51.4230   28.0186 C   0  0  0  0  0  0
    5.3995   53.5321   21.4545 H   0  0  0  0  0  0
    4.7666   54.6289   22.6703 H   0  0  0  0  0  0
    4.9180   52.9011   23.0199 H   0  0  0  0  0  0
    1.1469   52.4592   20.6070 H   0  0  0  0  0  0
    3.3559   49.8667   19.2767 H   0  0  0  0  0  0
    2.5855   47.8062   18.2757 H   0  0  0  0  0  0
    0.1694   47.2433   18.2685 H   0  0  0  0  0  0
   -1.4543   48.7762   19.2652 H   0  0  0  0  0  0
    4.1350   53.3409   25.2115 H   0  0  0  0  0  0
   -1.2123   53.5405   24.4104 H   0  0  0  0  0  0
   -3.1092   52.1618   23.6191 H   0  0  0  0  0  0
   -0.7718   48.6068   24.2353 H   0  0  0  0  0  0
    1.1043   49.9746   25.0267 H   0  0  0  0  0  0
    1.8541   55.3747   28.1148 H   0  0  0  0  0  0
    1.6021   56.4998   30.2307 H   0  0  0  0  0  0
    0.4712   55.2950   32.1143 H   0  0  0  0  0  0
   -0.4647   53.0800   31.8561 H   0  0  0  0  0  0
   -0.9114   51.3063   27.4417 H   0  0  0  0  0  0
    0.5789   50.4977   27.9952 H   0  0  0  0  0  0
   -0.9024   51.0744   30.0079 H   0  0  0  0  0  0
  1  2  1  0  0  0
  1 39  1  0  0  0
  1 40  1  0  0  0
  1 41  1  0  0  0
  2  3  1  0  0  0
  2  4  1  0  0  0
  2 16  1  0  0  0
  4  5  2  0  0  0
  4  6  1  0  0  0
  6  7  1  0  0  0
  6 42  1  0  0  0
  7 12  2  0  0  0
  7  8  1  0  0  0
  8  9  2  0  0  0
  8 43  1  0  0  0
  9 10  1  0  0  0
  9 44  1  0  0  0
 10 11  2  0  0  0
 10 45  1  0  0  0
 11 12  1  0  0  0
 11 46  1  0  0  0
 12 13  1  0  0  0
 13 14  2  0  0  0
 13 15  1  0  0  0
 16 17  1  0  0  0
 17 18  1  0  0  0
 17 22  1  0  0  0
 17 19  1  0  0  0
 19 20  1  0  0  0
 19 47  1  0  0  0
 20 21  2  0  0  0
 21 22  1  0  0  0
 21 30  1  0  0  0
 22 23  1  0  0  0
 23 28  2  0  0  0
 23 24  1  0  0  0
 24 25  2  0  0  0
 24 48  1  0  0  0
 25 26  1  0  0  0
 25 49  1  0  0  0
 26 27  2  0  0  0
 26 29  1  0  0  0
 27 28  1  0  0  0
 27 50  1  0  0  0
 28 51  1  0  0  0
 30 38  1  0  0  0
 30 31  2  0  0  0
 31 36  1  0  0  0
 31 32  1  0  0  0
 32 33  2  0  0  0
 32 52  1  0  0  0
 33 34  1  0  0  0
 33 53  1  0  0  0
 34 35  2  0  0  0
 34 54  1  0  0  0
 35 36  1  0  0  0
 35 55  1  0  0  0
 36 37  2  0  0  0
 37 38  1  0  0  0
 37 58  1  0  0  0
 38 56  1  0  0  0
 38 57  1  0  0  0
M  CHG  3  13   1  15  -1  37   1
M  END
> <i_i_glide_confnum>
70

> <i_i_glide_lignum>
4995

> <i_i_glide_posenum>
319

> <i_i_glide_rotatable_bonds>
8

> <i_m_Source_File_Index>
5717

> <b_m_subgroup_collapsed>
0

> <r_i_docking_score>
-5.01718

> <r_i_glide_ecoul>
-6.03047

> <r_i_glide_eff_state_penalty>
0

> <r_i_glide_einternal>
8.40552

> <r_i_glide_emodel>
-58.9466

> <r_i_glide_energy>
-47.0295

> <r_i_glide_erotb>
0.528207

> <r_i_glide_esite>
-0.0792864

> <r_i_glide_evdw>
-40.999

> <r_i_glide_gscore>
-5.01718

> <r_i_glide_hbond>
0

> <r_i_glide_ligand_efficiency>
-0.139366

> <r_i_glide_ligand_efficiency_ln>
-1.09461

> <r_i_glide_ligand_efficiency_sa>
-0.460177

> <r_i_glide_lipo>
-1.80213

> <r_i_glide_metal>
0

> <r_i_glide_rewards>
-0.70945

> <s_i_glide_gridfile>
wee1_glide-grid

> <s_m_Source_File>
wee1_decoys_glide_SP.sdf

> <s_m_Source_Path>
/Users/zhangxujun/Desktop

> <s_m_entry_id>
5992

> <s_m_entry_name>
wee1_decoys_glide_SP.5717

> <s_m_subgroup_title>
wee1_decoys_glide_SP

> <s_m_subgroupid>
wee1_decoys_glide_SP


$$$$
