@<TRIPOS>MOLECULE
ZINC39606422_629
68   71    1
SMALL
USER_CHARGES


@<TRIPOS>ATOM
      1 C1          1.3513   52.0476   19.0037 C.3       1 UNK         0.0000 
      2 C2          2.0202   50.7698   18.4679 C.3       1 UNK         0.0000 
      3 C3          1.6511   49.4665   19.2223 C.3       1 UNK         0.0000 
      4 H4          0.5649   49.3729   19.2016 H         1 UNK         0.0000 
      5 C5          2.1947   48.2274   18.4810 C.3       1 UNK         0.0000 
      6 C6          2.1248   49.4566   20.6988 C.3       1 UNK         0.0000 
      7 N7          1.2900   50.2141   21.6328 N.am      1 UNK         0.0000 
      8 C8          0.0599   49.8469   22.0355 C.2       1 UNK         0.0000 
      9 O9         -0.5018   48.8422   21.6009 O.2       1 UNK         0.0000 
     10 C10        -0.6205   50.6597   23.1682 C.3       1 UNK         0.0000 
     11 H11        -1.6878   50.4896   23.0478 H         1 UNK         0.0000 
     12 C12        -0.3565   52.1796   23.1004 C.3       1 UNK         0.0000 
     13 N13         0.7926   52.3882   23.9938 N.am      1 UNK         0.0000 
     14 C14         1.1047   51.1738   24.7430 C.3       1 UNK         0.0000 
     15 C15        -0.1120   50.2477   24.5830 C.3       1 UNK         0.0000 
     16 C16         0.2866   48.7755   24.8684 C.3       1 UNK         0.0000 
     17 C17        -0.9129   47.8225   24.6999 C.3       1 UNK         0.0000 
     18 N18        -2.0201   48.2583   25.6817 N.4       1 UNK         0.0000 
     19 C19        -2.4108   49.7507   25.6130 C.3       1 UNK         0.0000 
     20 C20        -1.1217   50.5932   25.7167 C.3       1 UNK         0.0000 
     21 C21         1.4885   53.5541   24.0001 C.2       1 UNK         0.0000 
     22 O22         1.1568   54.4940   23.2820 O.2       1 UNK         0.0000 
     23 C23         2.7562   53.7285   24.8098 C.ar      1 UNK         0.0000 
     24 C24         3.9143   54.0968   24.1031 C.ar      1 UNK         0.0000 
     25 C25         5.0806   54.4486   24.7798 C.ar      1 UNK         0.0000 
     26 C26         5.0614   54.4414   26.1692 C.ar      1 UNK         0.0000 
     27 N27         3.9625   54.0962   26.8786 N.ar      1 UNK         0.0000 
     28 C28         2.8315   53.7104   26.2270 C.ar      1 UNK         0.0000 
     29 S29         1.4073   53.3205   27.2420 S.3       1 UNK         0.0000 
     30 C30         1.9046   52.8748   28.8906 C.ar      1 UNK         0.0000 
     31 C31         0.9134   52.9016   29.8745 C.ar      1 UNK         0.0000 
     32 C32         1.2066   52.4971   31.1722 C.ar      1 UNK         0.0000 
     33 C33         2.5042   52.0967   31.4834 C.ar      1 UNK         0.0000 
     34 C34         3.5051   52.0960   30.5193 C.ar      1 UNK         0.0000 
     35 C35         3.1938   52.4350   29.2100 C.ar      1 UNK         0.0000 
     36 H36         1.5568   52.8956   18.3503 H         1 UNK         0.0000 
     37 H37         1.7201   52.3156   19.9936 H         1 UNK         0.0000 
     38 H38         0.2697   51.9356   19.0673 H         1 UNK         0.0000 
     39 H39         1.7458   50.6603   17.4168 H         1 UNK         0.0000 
     40 H40         3.1036   50.9005   18.4677 H         1 UNK         0.0000 
     41 H41         3.2843   48.1856   18.5073 H         1 UNK         0.0000 
     42 H42         1.8224   47.3034   18.9238 H         1 UNK         0.0000 
     43 H43         1.8971   48.2265   17.4324 H         1 UNK         0.0000 
     44 H44         2.1956   48.4304   21.0679 H         1 UNK         0.0000 
     45 H45         3.1429   49.8417   20.7561 H         1 UNK         0.0000 
     46 H46         1.6867   51.0585   22.0177 H         1 UNK         0.0000 
     47 H47        -0.2031   52.5054   22.0695 H         1 UNK         0.0000 
     48 H48        -1.2292   52.6993   23.4995 H         1 UNK         0.0000 
     49 H49         1.3943   51.2967   25.7798 H         1 UNK         0.0000 
     50 H50         1.9488   50.7048   24.2401 H         1 UNK         0.0000 
     51 H51         1.0783   48.4787   24.1822 H         1 UNK         0.0000 
     52 H52         0.7278   48.6611   25.8605 H         1 UNK         0.0000 
     53 H53        -1.3630   47.8445   23.7094 H         1 UNK         0.0000 
     54 H54        -0.6660   46.7934   24.9565 H         1 UNK         0.0000 
     55 H55        -2.8424   47.6828   25.5718 H         1 UNK         0.0000 
     56 H56        -2.9729   49.8920   24.6903 H         1 UNK         0.0000 
     57 H57        -3.0755   49.9199   26.4625 H         1 UNK         0.0000 
     58 H58        -0.6673   50.4637   26.7036 H         1 UNK         0.0000 
     59 H59        -1.3937   51.6498   25.6762 H         1 UNK         0.0000 
     60 H60         3.9059   54.1476   23.0228 H         1 UNK         0.0000 
     61 H61         5.9686   54.7354   24.2357 H         1 UNK         0.0000 
     62 H62         5.9339   54.7223   26.7400 H         1 UNK         0.0000 
     63 H63        -0.0926   53.2090   29.6289 H         1 UNK         0.0000 
     64 H64         0.4332   52.4875   31.9299 H         1 UNK         0.0000 
     65 H65         2.7366   51.7752   32.4819 H         1 UNK         0.0000 
     66 H66         4.5055   51.7731   30.7696 H         1 UNK         0.0000 
     67 H67         3.9637   52.3197   28.4681 H         1 UNK         0.0000 
     68 H68        -1.6957   48.0966   26.6420 H         1 UNK         0.0000 
@<TRIPOS>BOND
     1    1    2 1    
     2    1   36 1    
     3    1   37 1    
     4    1   38 1    
     5    2    3 1    
     6    2   39 1    
     7    2   40 1    
     8    3    4 1    
     9    3    5 1    
    10    3    6 1    
    11    5   41 1    
    12    5   42 1    
    13    5   43 1    
    14    6    7 1    
    15    6   44 1    
    16    6   45 1    
    17    7    8 am   BACKBONE|DICT|INTERRES
    18    7   46 1    
    19    8    9 2    
    20    8   10 1    
    21   10   11 1    
    22   10   15 1    
    23   10   12 1    
    24   12   13 1    
    25   12   47 1    
    26   12   48 1    
    27   13   14 1    
    28   13   21 am   BACKBONE|DICT|INTERRES
    29   14   15 1    
    30   14   49 1    
    31   14   50 1    
    32   15   20 1    
    33   15   16 1    
    34   16   17 1    
    35   16   51 1    
    36   16   52 1    
    37   17   18 1    
    38   17   53 1    
    39   17   54 1    
    40   18   19 1    
    41   18   55 1    
    42   18   68 1    
    43   19   20 1    
    44   19   56 1    
    45   19   57 1    
    46   20   58 1    
    47   20   59 1    
    48   21   22 2    
    49   21   23 1    
    50   23   28 ar   
    51   23   24 ar   
    52   24   25 ar   
    53   24   60 1    
    54   25   26 ar   
    55   25   61 1    
    56   26   27 ar   
    57   26   62 1    
    58   27   28 ar   
    59   28   29 1    
    60   29   30 1    
    61   30   35 ar   
    62   30   31 ar   
    63   31   32 ar   
    64   31   63 1    
    65   32   33 ar   
    66   32   64 1    
    67   33   34 ar   
    68   33   65 1    
    69   34   35 ar   
    70   34   66 1    
    71   35   67 1    
@<TRIPOS>SUBSTRUCTURE
     1 UNK         1 GROUP             0       ****    0 ROOT    
