@<TRIPOS>MOLECULE
ZINC15732081_3217
55   58    1
SMALL
USER_CHARGES


@<TRIPOS>ATOM
      1 C1          1.4953   50.3455   22.5736 C.ar      1 UNK         0.0000 
      2 C2          1.7784   49.3395   21.6525 C.ar      1 UNK         0.0000 
      3 C3          0.8889   49.0415   20.6163 C.ar      1 UNK         0.0000 
      4 C4         -0.3290   49.7619   20.5099 C.ar      1 UNK         0.0000 
      5 C5         -0.5880   50.7745   21.4353 C.ar      1 UNK         0.0000 
      6 C6          0.3113   51.0699   22.4626 C.ar      1 UNK         0.0000 
      7 S7         -0.0742   52.3601   23.6398 S.o2      1 UNK         0.0000 
      8 O8         -1.3920   52.8965   23.2818 O.2       1 UNK         0.0000 
      9 O9          0.1787   51.8086   24.9750 O.2       1 UNK         0.0000 
     10 N10         1.1048   53.6596   23.3231 N.pl3     1 UNK         0.0000 
     11 C11         2.3185   53.7565   24.0131 C.ar      1 UNK         0.0000 
     12 C12         3.5168   53.9414   23.3209 C.ar      1 UNK         0.0000 
     13 C13         4.7304   54.0967   24.0160 C.ar      1 UNK         0.0000 
     14 C14         4.7095   54.0968   25.4189 C.ar      1 UNK         0.0000 
     15 C15         3.5141   53.9331   26.1155 C.ar      1 UNK         0.0000 
     16 C16         2.3282   53.7593   25.4066 C.ar      1 UNK         0.0000 
     17 S17         3.5368   53.9761   27.8906 S.3       1 UNK         0.0000 
     18 C18         1.8554   53.6694   28.5253 C.3       1 UNK         0.0000 
     19 C19         1.4378   52.1901   28.3409 C.3       1 UNK         0.0000 
     20 C20         0.0263   51.9332   28.8997 C.3       1 UNK         0.0000 
     21 C21        -0.0790   52.3595   30.3766 C.3       1 UNK         0.0000 
     22 C22         0.3650   53.8215   30.5880 C.3       1 UNK         0.0000 
     23 C23         1.7679   54.0827   30.0041 C.3       1 UNK         0.0000 
     24 N24         6.0084   54.2444   23.2821 N.pl3     1 UNK         0.0000 
     25 O25         7.0550   54.0960   23.9068 O.co2     1 UNK         0.0000 
     26 O26         5.9668   54.4978   22.0825 O.co2     1 UNK         0.0000 
     27 N27        -1.2699   49.5052   19.4930 N.am      1 UNK         0.0000 
     28 C28        -1.1081   49.3061   18.1710 C.2       1 UNK         0.0000 
     29 O29        -1.9961   48.8726   17.4407 O.2       1 UNK         0.0000 
     30 C30         0.3039   49.6254   17.6564 C.3       1 UNK         0.0000 
     31 C31         1.2970   48.4680   17.8694 C.3       1 UNK         0.0000 
     32 S32         1.2816   47.6973   19.5223 S.3       1 UNK         0.0000 
     33 H33         2.1914   50.5563   23.3717 H         1 UNK         0.0000 
     34 H34         2.6961   48.7769   21.7525 H         1 UNK         0.0000 
     35 H35        -1.5074   51.3322   21.3510 H         1 UNK         0.0000 
     36 H36         1.0982   53.9993   22.3716 H         1 UNK         0.0000 
     37 H37         3.5048   53.9581   22.2391 H         1 UNK         0.0000 
     38 H38         5.6261   54.2146   25.9780 H         1 UNK         0.0000 
     39 H39         1.3899   53.6822   25.9229 H         1 UNK         0.0000 
     40 H40         1.1811   54.3227   27.9708 H         1 UNK         0.0000 
     41 H41         1.4743   51.8887   27.2948 H         1 UNK         0.0000 
     42 H42         2.1457   51.5410   28.8571 H         1 UNK         0.0000 
     43 H43        -0.7091   52.4779   28.3047 H         1 UNK         0.0000 
     44 H44        -0.2306   50.8803   28.7981 H         1 UNK         0.0000 
     45 H45        -1.0949   52.2075   30.7382 H         1 UNK         0.0000 
     46 H46         0.5409   51.7001   30.9849 H         1 UNK         0.0000 
     47 H47        -0.3559   54.4886   30.1120 H         1 UNK         0.0000 
     48 H48         0.3451   54.0633   31.6531 H         1 UNK         0.0000 
     49 H49         2.5026   53.5128   30.5743 H         1 UNK         0.0000 
     50 H50         2.0228   55.1369   30.1164 H         1 UNK         0.0000 
     51 H51        -2.1985   49.2611   19.8028 H         1 UNK         0.0000 
     52 H52         0.2434   49.9087   16.6060 H         1 UNK         0.0000 
     53 H53         0.6696   50.4742   18.2362 H         1 UNK         0.0000 
     54 H54         1.1274   47.6837   17.1314 H         1 UNK         0.0000 
     55 H55         2.3044   48.8304   17.6655 H         1 UNK         0.0000 
@<TRIPOS>BOND
     1    1    6 ar   
     2    1    2 ar   
     3    1   33 1    
     4    2    3 ar   
     5    2   34 1    
     6    3   32 1    
     7    3    4 ar   
     8    4    5 ar   
     9    4   27 1    
    10    5    6 ar   
    11    5   35 1    
    12    6    7 1    
    13    7    8 2    
    14    7    9 2    
    15    7   10 1    
    16   10   11 1    
    17   10   36 1    
    18   11   16 ar   
    19   11   12 ar   
    20   12   13 ar   
    21   12   37 1    
    22   13   14 ar   
    23   13   24 1    
    24   14   15 ar   
    25   14   38 1    
    26   15   16 ar   
    27   15   17 1    
    28   16   39 1    
    29   17   18 1    
    30   18   23 1    
    31   18   19 1    
    32   18   40 1    
    33   19   20 1    
    34   19   41 1    
    35   19   42 1    
    36   20   21 1    
    37   20   43 1    
    38   20   44 1    
    39   21   22 1    
    40   21   45 1    
    41   21   46 1    
    42   22   23 1    
    43   22   47 1    
    44   22   48 1    
    45   23   49 1    
    46   23   50 1    
    47   24   25 2    
    48   24   26 1    
    49   27   28 am   BACKBONE|DICT|INTERRES
    50   27   51 1    
    51   28   29 2    
    52   28   30 1    
    53   30   31 1    
    54   30   52 1    
    55   30   53 1    
    56   31   32 1    
    57   31   54 1    
    58   31   55 1    
@<TRIPOS>SUBSTRUCTURE
     1 UNK         1 GROUP             0       ****    0 ROOT    
