@<TRIPOS>MOLECULE
ZINC38975725_5271
50   53    1
SMALL
USER_CHARGES


@<TRIPOS>ATOM
      1 C1          6.5591   54.3204   28.0302 C.3       1 UNK         0.0000 
      2 C2          5.4390   54.2166   27.0055 C.ar      1 UNK         0.0000 
      3 C3          5.6665   54.6293   25.6880 C.ar      1 UNK         0.0000 
      4 C4          4.6681   54.4905   24.7216 C.ar      1 UNK         0.0000 
      5 C5          3.4344   53.9231   25.0599 C.ar      1 UNK         0.0000 
      6 C6          3.1879   53.5798   26.3926 C.ar      1 UNK         0.0000 
      7 C7          4.1799   53.7102   27.3657 C.ar      1 UNK         0.0000 
      8 C8          3.8827   53.2584   28.7901 C.3       1 UNK         0.0000 
      9 S9          2.1606   53.5993   23.8240 S.o2      1 UNK         0.0000 
     10 O10         1.3460   52.5464   24.4457 O.2       1 UNK         0.0000 
     11 O11         1.5085   54.8963   23.6882 O.2       1 UNK         0.0000 
     12 N12         3.1959   53.1722   22.4670 N.2       1 UNK         0.0000 
     13 C13         2.8219   52.2561   21.6681 C.2       1 UNK         0.0000 
     14 C14         3.7142   52.0390   20.4052 C.3       1 UNK         0.0000 
     15 H15         4.7443   51.8877   20.7295 H         1 UNK         0.0000 
     16 N16         3.3988   50.7678   19.6817 N.pl3     1 UNK         0.0000 
     17 C17         2.3228   50.0232   19.9122 C.2       1 UNK         0.0000 
     18 C18         2.0425   48.8967   19.1399 C.2       1 UNK         0.0000 
     19 C19         0.9215   48.1727   19.4021 C.2       1 UNK         0.0000 
     20 C20        -0.0062   48.5340   20.4764 C.2       1 UNK         0.0000 
     21 C21         0.2437   49.6178   21.2487 C.2       1 UNK         0.0000 
     22 C22         1.4084   50.4570   21.0623 C.2       1 UNK         0.0000 
     23 N23         1.6693   51.4708   21.8063 N.2       1 UNK         0.0000 
     24 N24         3.6626   53.1850   19.4907 N.pl3     1 UNK         0.0000 
     25 C25         4.5476   54.2755   19.5103 C.ar      1 UNK         0.0000 
     26 C26         4.4435   55.2146   18.4815 C.ar      1 UNK         0.0000 
     27 C27         5.3047   56.3120   18.4310 C.ar      1 UNK         0.0000 
     28 C28         6.2809   56.4785   19.4131 C.ar      1 UNK         0.0000 
     29 C29         6.3795   55.5566   20.4543 C.ar      1 UNK         0.0000 
     30 C30         5.5146   54.4629   20.5056 C.ar      1 UNK         0.0000 
     31 Cl31        7.5723   55.7558   21.6835 Cl        1 UNK         0.0000 
     32 Cl32        5.1564   57.4676   17.1587 Cl        1 UNK         0.0000 
     33 H33         7.4102   54.8978   27.6738 H         1 UNK         0.0000 
     34 H34         6.1944   54.8115   28.9310 H         1 UNK         0.0000 
     35 H35         6.9085   53.3275   28.3157 H         1 UNK         0.0000 
     36 H36         6.6232   55.0354   25.3996 H         1 UNK         0.0000 
     37 H37         4.8727   54.7921   23.7060 H         1 UNK         0.0000 
     38 H38         2.2288   53.1633   26.6700 H         1 UNK         0.0000 
     39 H39         2.8992   52.7948   28.8817 H         1 UNK         0.0000 
     40 H40         3.9309   54.1073   29.4752 H         1 UNK         0.0000 
     41 H41         4.6240   52.5276   29.1159 H         1 UNK         0.0000 
     42 H42         2.7044   48.6210   18.3288 H         1 UNK         0.0000 
     43 H43         0.7037   47.3092   18.7894 H         1 UNK         0.0000 
     44 H44        -0.8881   47.9336   20.6524 H         1 UNK         0.0000 
     45 H45        -0.4551   49.8586   22.0370 H         1 UNK         0.0000 
     46 H46         2.8609   53.2540   18.8781 H         1 UNK         0.0000 
     47 H47         3.6950   55.0954   17.7116 H         1 UNK         0.0000 
     48 H48         6.9496   57.3240   19.3626 H         1 UNK         0.0000 
     49 H49         5.6094   53.7704   21.3270 H         1 UNK         0.0000 
     50 H50         4.0543   50.4985   18.9282 H         1 UNK         0.0000 
@<TRIPOS>BOND
     1    1    2 1    
     2    1   33 1    
     3    1   34 1    
     4    1   35 1    
     5    2    7 ar   
     6    2    3 ar   
     7    3    4 ar   
     8    3   36 1    
     9    4    5 ar   
    10    4   37 1    
    11    5    6 ar   
    12    5    9 1    
    13    6    7 ar   
    14    6   38 1    
    15    7    8 1    
    16    8   39 1    
    17    8   40 1    
    18    8   41 1    
    19    9   10 2    
    20    9   11 2    
    21    9   12 1    
    22   12   13 2    
    23   13   23 1    
    24   13   14 1    
    25   14   15 1    
    26   14   16 1    
    27   14   24 1    
    28   16   17 2    
    29   16   50 1    
    30   17   22 1    
    31   17   18 1    
    32   18   19 2    
    33   18   42 1    
    34   19   20 1    
    35   19   43 1    
    36   20   21 2    
    37   20   44 1    
    38   21   22 1    
    39   21   45 1    
    40   22   23 2    
    41   24   25 1    
    42   24   46 1    
    43   25   30 ar   
    44   25   26 ar   
    45   26   27 ar   
    46   26   47 1    
    47   27   28 ar   
    48   27   32 1    
    49   28   29 ar   
    50   28   48 1    
    51   29   30 ar   
    52   29   31 1    
    53   30   49 1    
@<TRIPOS>SUBSTRUCTURE
     1 UNK         1 GROUP             0       ****    0 ROOT    
