@<TRIPOS>MOLECULE
ZINC61365022_3904
34   37    1
SMALL
USER_CHARGES


@<TRIPOS>ATOM
      1 C1          2.6336   52.9439   28.2319 C.ar      1 UNK         0.0000 
      2 C2          2.5271   53.3200   26.8910 C.ar      1 UNK         0.0000 
      3 C3          3.7070   53.6984   26.2177 C.ar      1 UNK         0.0000 
      4 C4          4.9410   53.7498   26.9308 C.ar      1 UNK         0.0000 
      5 C5          5.0127   53.3795   28.2804 C.ar      1 UNK         0.0000 
      6 C6          3.8466   52.9571   28.9124 C.ar      1 UNK         0.0000 
      7 Br7         3.9041   52.3806   30.7264 Br        1 UNK         0.0000 
      8 N8          5.9583   54.1937   26.1468 N.2       1 UNK         0.0000 
      9 C9          5.4046   54.3978   24.9895 C.ar      1 UNK         0.0000 
     10 N10         4.0454   54.0853   24.9068 N.pl3     1 UNK         0.0000 
     11 C11         3.1973   54.2184   23.6713 C.3       1 UNK         0.0000 
     12 H12         3.3547   55.2384   23.3221 H         1 UNK         0.0000 
     13 C13         1.6652   54.0930   23.9152 C.3       1 UNK         0.0000 
     14 C14         1.1574   52.6333   23.9635 C.3       1 UNK         0.0000 
     15 C15         1.3185   51.9225   22.6167 C.3       1 UNK         0.0000 
     16 C16         2.7070   52.2130   22.0805 C.2       1 UNK         0.0000 
     17 C17         3.5481   53.2681   22.4975 C.2       1 UNK         0.0000 
     18 C18         4.6596   53.3639   21.6392 C.2       1 UNK         0.0000 
     19 C19         4.7055   52.3770   20.6676 C.2       1 UNK         0.0000 
     20 S20         3.3578   51.3098   20.7525 S.3       1 UNK         0.0000 
     21 N21         6.1469   54.8966   23.9659 N.pl3     1 UNK         0.0000 
     22 H22         1.7449   52.6244   28.7583 H         1 UNK         0.0000 
     23 H23         1.5530   53.2934   26.4381 H         1 UNK         0.0000 
     24 H24         5.9525   53.4100   28.8094 H         1 UNK         0.0000 
     25 H25         1.1444   54.6040   23.1032 H         1 UNK         0.0000 
     26 H26         1.3594   54.6312   24.8044 H         1 UNK         0.0000 
     27 H27         0.1114   52.6069   24.2717 H         1 UNK         0.0000 
     28 H28         1.7085   52.0528   24.7020 H         1 UNK         0.0000 
     29 H29         0.5701   52.2955   21.9164 H         1 UNK         0.0000 
     30 H30         1.1458   50.8512   22.7262 H         1 UNK         0.0000 
     31 H31         5.4150   54.1282   21.6972 H         1 UNK         0.0000 
     32 H32         5.4466   52.2348   19.8937 H         1 UNK         0.0000 
     33 H33         7.1502   54.9830   24.0547 H         1 UNK         0.0000 
     34 H34         5.7261   55.2423   23.1197 H         1 UNK         0.0000 
@<TRIPOS>BOND
     1    1    6 ar   
     2    1    2 ar   
     3    1   22 1    
     4    2    3 ar   
     5    2   23 1    
     6    3   10 ar   
     7    3    4 ar   
     8    4    5 ar   
     9    4    8 ar   
    10    5    6 ar   
    11    5   24 1    
    12    6    7 1    
    13    8    9 ar   
    14    9   10 ar   
    15    9   21 1    
    16   10   11 1    
    17   11   12 1    
    18   11   17 1    
    19   11   13 1    
    20   13   14 1    
    21   13   25 1    
    22   13   26 1    
    23   14   15 1    
    24   14   27 1    
    25   14   28 1    
    26   15   16 1    
    27   15   29 1    
    28   15   30 1    
    29   16   20 1    
    30   16   17 2    
    31   17   18 1    
    32   18   19 2    
    33   18   31 1    
    34   19   20 1    
    35   19   32 1    
    36   21   33 1    
    37   21   34 1    
@<TRIPOS>SUBSTRUCTURE
     1 UNK         1 GROUP             0       ****    0 ROOT    
