ZINC14023394_361
                    3D
 Schrodinger Suite 2024-2.
 67 70  0  0  1  0            999 V2000
    7.9188   52.9022   15.2983 C   0  0  0  0  0  0
    8.4998   54.2561   15.7483 C   0  0  0  0  0  0
    7.4414   55.2539   16.2520 C   0  0  0  0  0  0
    5.2642   54.4144   17.3035 C   0  0  0  0  0  0
    4.7441   53.5171   18.4486 C   0  0  0  0  0  0
    5.2764   53.9613   19.8196 C   0  0  0  0  0  0
    6.3028   54.9123   19.9133 C   0  0  0  0  0  0
    6.7045   55.2973   21.5464 S   0  0  0  0  0  0
    5.4919   54.1967   22.1455 C   0  0  0  0  0  0
    4.8308   53.5164   21.0983 C   0  0  0  0  0  0
    3.7713   52.5428   21.3322 C   0  0  0  0  0  0
    3.0625   52.5805   22.3364 O   0  0  0  0  0  0
    3.6417   51.5590   20.4380 N   0  0  0  0  0  0
    5.2845   53.9806   23.5091 N   0  0  0  0  0  0
    5.8882   54.5426   24.5788 C   0  0  0  0  0  0
    6.6917   55.4748   24.5327 O   0  0  0  0  0  0
    5.5102   53.9230   25.9381 C   0  0  1  0  0  0
    5.0771   52.9434   25.7411 H   0  0  0  0  0  0
    6.7659   53.7340   26.8299 C   0  0  0  0  0  0
    6.3629   53.1616   28.2075 C   0  0  0  0  0  0
    5.1332   53.8345   28.8670 C   0  0  0  0  0  0
    4.0591   54.0360   27.8702 N   0  0  0  0  0  0
    4.4901   54.8049   26.6780 C   0  0  0  0  0  0
    2.3781   54.1248   28.4305 S   0  0  0  0  0  0
    2.3255   53.6518   29.8211 O   0  0  0  0  0  0
    1.8498   55.4454   28.0844 O   0  0  0  0  0  0
    1.5028   52.9243   27.4170 C   0  0  0  0  0  0
    0.8294   51.8586   28.0168 C   0  0  0  0  0  0
    0.1937   50.9127   27.2174 C   0  0  0  0  0  0
    0.2580   51.0047   25.8272 C   0  0  0  0  0  0
    0.8957   52.0880   25.2271 C   0  0  0  0  0  0
    1.5111   53.0459   26.0239 C   0  0  0  0  0  0
   -0.3968   49.9399   24.9675 C   0  0  0  0  0  0
    6.9760   55.6004   18.7380 C   0  0  0  0  0  0
    8.7058   52.2539   14.9086 H   0  0  0  0  0  0
    7.1792   53.0323   14.5057 H   0  0  0  0  0  0
    7.4373   52.3678   16.1162 H   0  0  0  0  0  0
    9.2500   54.0921   16.5256 H   0  0  0  0  0  0
    9.0359   54.7032   14.9100 H   0  0  0  0  0  0
    7.8918   56.2153   16.5101 H   0  0  0  0  0  0
    6.6697   55.4437   15.5022 H   0  0  0  0  0  0
    4.7764   55.3907   17.2566 H   0  0  0  0  0  0
    5.1493   53.8981   16.3479 H   0  0  0  0  0  0
    3.6535   53.4985   18.4297 H   0  0  0  0  0  0
    5.0757   52.4967   18.2556 H   0  0  0  0  0  0
    4.2457   51.4781   19.6259 H   0  0  0  0  0  0
    2.9282   50.8601   20.5843 H   0  0  0  0  0  0
    4.5676   53.2952   23.7030 H   0  0  0  0  0  0
    7.4470   52.9926   26.4020 H   0  0  0  0  0  0
    7.2648   54.6843   27.0326 H   0  0  0  0  0  0
    6.1548   52.0968   28.0841 H   0  0  0  0  0  0
    7.2189   53.2441   28.8772 H   0  0  0  0  0  0
    4.7462   53.2408   29.6931 H   0  0  0  0  0  0
    5.4564   54.8158   29.2204 H   0  0  0  0  0  0
    4.9941   55.6967   27.0464 H   0  0  0  0  0  0
    3.6277   55.0908   26.0787 H   0  0  0  0  0  0
    0.7926   51.7562   29.0920 H   0  0  0  0  0  0
   -0.3396   50.0988   27.6812 H   0  0  0  0  0  0
    0.9283   52.1808   24.1510 H   0  0  0  0  0  0
    2.0032   53.8756   25.5430 H   0  0  0  0  0  0
    0.3669   49.3250   24.4863 H   0  0  0  0  0  0
   -1.0552   49.2939   25.5524 H   0  0  0  0  0  0
   -0.9992   50.4003   24.1836 H   0  0  0  0  0  0
    8.0571   55.6976   18.8618 H   0  0  0  0  0  0
    6.5344   56.5714   18.5005 H   0  0  0  0  0  0
    6.7736   54.6659   17.5226 N   0  3  2  0  0  0
    7.2206   53.7744   17.6885 H   0  0  0  0  0  0
  1  2  1  0  0  0
  1 35  1  0  0  0
  1 36  1  0  0  0
  1 37  1  0  0  0
  2  3  1  0  0  0
  2 38  1  0  0  0
  2 39  1  0  0  0
  3 40  1  0  0  0
  3 41  1  0  0  0
  3 66  1  0  0  0
  4  5  1  0  0  0
  4 42  1  0  0  0
  4 43  1  0  0  0
  4 66  1  0  0  0
  5  6  1  0  0  0
  5 44  1  0  0  0
  5 45  1  0  0  0
  6 10  1  0  0  0
  6  7  2  0  0  0
  7  8  1  0  0  0
  7 34  1  0  0  0
  8  9  1  0  0  0
  9 10  2  0  0  0
  9 14  1  0  0  0
 10 11  1  0  0  0
 11 12  2  0  0  0
 11 13  1  0  0  0
 13 46  1  0  0  0
 13 47  1  0  0  0
 14 15  1  0  0  0
 14 48  1  0  0  0
 15 16  2  0  0  0
 15 17  1  0  0  0
 17 18  1  0  0  0
 17 23  1  0  0  0
 17 19  1  0  0  0
 19 20  1  0  0  0
 19 49  1  0  0  0
 19 50  1  0  0  0
 20 21  1  0  0  0
 20 51  1  0  0  0
 20 52  1  0  0  0
 21 22  1  0  0  0
 21 53  1  0  0  0
 21 54  1  0  0  0
 22 23  1  0  0  0
 22 24  1  0  0  0
 23 55  1  0  0  0
 23 56  1  0  0  0
 24 25  2  0  0  0
 24 26  2  0  0  0
 24 27  1  0  0  0
 27 32  2  0  0  0
 27 28  1  0  0  0
 28 29  2  0  0  0
 28 57  1  0  0  0
 29 30  1  0  0  0
 29 58  1  0  0  0
 30 31  2  0  0  0
 30 33  1  0  0  0
 31 32  1  0  0  0
 31 59  1  0  0  0
 32 60  1  0  0  0
 33 61  1  0  0  0
 33 62  1  0  0  0
 33 63  1  0  0  0
 34 64  1  0  0  0
 34 65  1  0  0  0
 34 66  1  0  0  0
 66 67  1  0  0  0
M  CHG  1  66   1
M  END
> <i_i_glide_confnum>
11

> <i_i_glide_lignum>
362

> <i_i_glide_posenum>
108

> <i_i_glide_rotatable_bonds>
8

> <i_m_Source_File_Index>
2111

> <b_m_subgroup_collapsed>
0

> <r_i_docking_score>
-5.70037

> <r_i_glide_ecoul>
-7.47109

> <r_i_glide_eff_state_penalty>
0

> <r_i_glide_einternal>
4.07057

> <r_i_glide_emodel>
-68.0212

> <r_i_glide_energy>
-52.2179

> <r_i_glide_erotb>
0.479961

> <r_i_glide_esite>
-0.0492607

> <r_i_glide_evdw>
-44.7468

> <r_i_glide_gscore>
-5.70037

> <r_i_glide_hbond>
-0.103913

> <r_i_glide_ligand_efficiency>
-0.167658

> <r_i_glide_ligand_efficiency_ln>
-1.25937

> <r_i_glide_ligand_efficiency_sa>
-0.543147

> <r_i_glide_lipo>
-2.48604

> <r_i_glide_metal>
0

> <r_i_glide_rewards>
-0.183116

> <s_i_glide_gridfile>
wee1_glide-grid

> <s_m_Source_File>
wee1_decoys_glide_SP.sdf

> <s_m_Source_Path>
/Users/zhangxujun/Desktop

> <s_m_entry_id>
2386

> <s_m_entry_name>
wee1_decoys_glide_SP.2111

> <s_m_subgroup_title>
wee1_decoys_glide_SP

> <s_m_subgroupid>
wee1_decoys_glide_SP


$$$$
