@<TRIPOS>MOLECULE
ZINC06751746_4
55   59    1
SMALL
USER_CHARGES


@<TRIPOS>ATOM
      1 C1          4.7420   58.0161   15.4353 C.ar      1 UNK         0.0000 
      2 C2          5.2113   58.2581   16.7201 C.ar      1 UNK         0.0000 
      3 C3          5.1593   57.2532   17.6827 C.ar      1 UNK         0.0000 
      4 C4          4.6529   55.9704   17.3855 C.ar      1 UNK         0.0000 
      5 C5          4.1644   55.7476   16.0724 C.ar      1 UNK         0.0000 
      6 C6          4.2151   56.7687   15.1160 C.ar      1 UNK         0.0000 
      7 N7          3.5410   54.5299   15.7536 N.pl3     1 UNK         0.0000 
      8 C8          3.0591   53.9862   14.4860 C.3       1 UNK         0.0000 
      9 C9          2.8380   52.4797   14.6682 C.3       1 UNK         0.0000 
     10 C10         2.8670   52.2745   16.1767 C.3       1 UNK         0.0000 
     11 C11         3.7875   53.3979   16.6382 C.3       1 UNK         0.0000 
     12 H12         4.8196   53.0498   16.5454 H         1 UNK         0.0000 
     13 C13         3.6338   53.7897   18.1196 C.3       1 UNK         0.0000 
     14 N14         4.5314   54.9447   18.3851 N.am      1 UNK         0.0000 
     15 C15         5.3199   54.8969   19.5051 C.2       1 UNK         0.0000 
     16 O16         6.4413   55.4062   19.5572 O.2       1 UNK         0.0000 
     17 N17         4.6927   54.3876   20.5933 N.am      1 UNK         0.0000 
     18 C18         5.0518   54.4318   21.9522 C.ar      1 UNK         0.0000 
     19 C19         4.0526   54.0636   22.8553 C.ar      1 UNK         0.0000 
     20 C20         4.2937   54.0967   24.2266 C.ar      1 UNK         0.0000 
     21 C21         5.5476   54.4900   24.7163 C.ar      1 UNK         0.0000 
     22 C22         6.5395   54.8672   23.8067 C.ar      1 UNK         0.0000 
     23 C23         6.3046   54.8321   22.4371 C.ar      1 UNK         0.0000 
     24 C24         5.8442   54.5336   26.1965 C.2       1 UNK         0.0000 
     25 O25         6.7044   55.2967   26.6387 O.2       1 UNK         0.0000 
     26 N26         5.1327   53.6969   26.9724 N.am      1 UNK         0.0000 
     27 C27         5.1261   53.6837   28.4344 C.3       1 UNK         0.0000 
     28 C28         3.7053   53.8196   28.9345 C.2       1 UNK         0.0000 
     29 C29         2.9011   54.8970   29.2816 C.2       1 UNK         0.0000 
     30 C30         1.6694   54.3770   29.6817 C.2       1 UNK         0.0000 
     31 C31         1.7784   53.0008   29.5785 C.2       1 UNK         0.0000 
     32 O32         3.0146   52.6634   29.1293 O.3       1 UNK         0.0000 
     33 H33         4.7670   58.8045   14.6972 H         1 UNK         0.0000 
     34 H34         5.5949   59.2374   16.9745 H         1 UNK         0.0000 
     35 H35         5.5043   57.5019   18.6748 H         1 UNK         0.0000 
     36 H36         3.8270   56.6052   14.1220 H         1 UNK         0.0000 
     37 H37         2.1461   54.4901   14.1672 H         1 UNK         0.0000 
     38 H38         3.8085   54.1620   13.7130 H         1 UNK         0.0000 
     39 H39         1.8950   52.1439   14.2358 H         1 UNK         0.0000 
     40 H40         3.6457   51.9189   14.1947 H         1 UNK         0.0000 
     41 H41         3.2873   51.2967   16.4108 H         1 UNK         0.0000 
     42 H42         1.8798   52.3393   16.6368 H         1 UNK         0.0000 
     43 H43         3.8459   52.9124   18.7341 H         1 UNK         0.0000 
     44 H44         2.6137   54.0962   18.3539 H         1 UNK         0.0000 
     45 H45         3.7630   54.0341   20.4244 H         1 UNK         0.0000 
     46 H46         3.0764   53.7617   22.5022 H         1 UNK         0.0000 
     47 H47         3.4935   53.8172   24.8973 H         1 UNK         0.0000 
     48 H48         7.5044   55.1938   24.1571 H         1 UNK         0.0000 
     49 H49         7.1131   55.1204   21.7847 H         1 UNK         0.0000 
     50 H50         4.5762   52.9882   26.5177 H         1 UNK         0.0000 
     51 H51         5.7703   54.4565   28.8619 H         1 UNK         0.0000 
     52 H52         5.5322   52.7244   28.7564 H         1 UNK         0.0000 
     53 H53         3.1723   55.9417   29.2368 H         1 UNK         0.0000 
     54 H54         0.8038   54.9349   30.0093 H         1 UNK         0.0000 
     55 H55         1.0983   52.1833   29.7741 H         1 UNK         0.0000 
@<TRIPOS>BOND
     1    1    6 ar   
     2    1    2 ar   
     3    1   33 1    
     4    2    3 ar   
     5    2   34 1    
     6    3    4 ar   
     7    3   35 1    
     8    4   14 1    
     9    4    5 ar   
    10    5    6 ar   
    11    5    7 1    
    12    6   36 1    
    13    7   11 1    
    14    7    8 1    
    15    8    9 1    
    16    8   37 1    
    17    8   38 1    
    18    9   10 1    
    19    9   39 1    
    20    9   40 1    
    21   10   11 1    
    22   10   41 1    
    23   10   42 1    
    24   11   12 1    
    25   11   13 1    
    26   13   14 1    
    27   13   43 1    
    28   13   44 1    
    29   14   15 am   BACKBONE|DICT|INTERRES
    30   15   16 2    
    31   15   17 am   BACKBONE|DICT|INTERRES
    32   17   18 1    
    33   17   45 1    
    34   18   23 ar   
    35   18   19 ar   
    36   19   20 ar   
    37   19   46 1    
    38   20   21 ar   
    39   20   47 1    
    40   21   22 ar   
    41   21   24 1    
    42   22   23 ar   
    43   22   48 1    
    44   23   49 1    
    45   24   25 2    
    46   24   26 am   BACKBONE|DICT|INTERRES
    47   26   27 1    
    48   26   50 1    
    49   27   28 1    
    50   27   51 1    
    51   27   52 1    
    52   28   32 1    
    53   28   29 2    
    54   29   30 1    
    55   29   53 1    
    56   30   31 2    
    57   30   54 1    
    58   31   32 1    
    59   31   55 1    
@<TRIPOS>SUBSTRUCTURE
     1 UNK         1 GROUP             0       ****    0 ROOT    
