@<TRIPOS>MOLECULE
ZINC36678185_4682
43   44    1
SMALL
USER_CHARGES


@<TRIPOS>ATOM
      1 C1         -3.0368   49.6456   24.8937 C.3       1 UNK         0.0000 
      2 C2         -1.6075   49.9781   25.3797 C.3       1 UNK         0.0000 
      3 H3         -1.5559   49.6069   26.4092 H         1 UNK         0.0000 
      4 C4         -1.3971   51.5183   25.4333 C.3       1 UNK         0.0000 
      5 N5         -0.2007   51.9517   26.1789 N.am      1 UNK         0.0000 
      6 C6         -0.1852   52.0358   27.5255 C.2       1 UNK         0.0000 
      7 O7         -1.0653   51.6943   28.3163 O.2       1 UNK         0.0000 
      8 C8          1.1306   52.7215   27.8939 C.3       1 UNK         0.0000 
      9 C9          1.9460   51.7197   28.7789 C.3       1 UNK         0.0000 
     10 C10         3.1743   52.2320   29.5659 C.3       1 UNK         0.0000 
     11 C11         4.1608   53.1133   28.7736 C.3       1 UNK         0.0000 
     12 C12         4.2170   54.5926   29.2051 C.3       1 UNK         0.0000 
     13 C13         2.8817   55.2991   29.5272 C.3       1 UNK         0.0000 
     14 C14         1.7961   55.2380   28.4473 C.3       1 UNK         0.0000 
     15 C15         0.7726   54.0808   28.5802 C.3       1 UNK         0.0000 
     16 N16         1.6728   52.8972   26.5725 N.am      1 UNK         0.0000 
     17 C17         0.9177   52.4240   25.5797 C.2       1 UNK         0.0000 
     18 O18         1.2723   52.2958   24.4107 O.2       1 UNK         0.0000 
     19 C19        -0.5304   49.2671   24.5464 C.2       1 UNK         0.0000 
     20 S20        -0.3326   49.3866   22.8995 S.2       1 UNK         0.0000 
     21 N21         0.3011   48.4992   25.2816 N.pl3     1 UNK         0.0000 
     22 H22        -3.2100   48.5678   24.8810 H         1 UNK         0.0000 
     23 H23        -3.7853   50.0774   25.5596 H         1 UNK         0.0000 
     24 H24        -3.2318   50.0271   23.8894 H         1 UNK         0.0000 
     25 H25        -1.3713   51.9209   24.4186 H         1 UNK         0.0000 
     26 H26        -2.2686   51.9839   25.8976 H         1 UNK         0.0000 
     27 H27         1.2867   51.2883   29.5310 H         1 UNK         0.0000 
     28 H28         2.2726   50.8790   28.1627 H         1 UNK         0.0000 
     29 H29         2.8445   52.7340   30.4747 H         1 UNK         0.0000 
     30 H30         3.7141   51.3516   29.9258 H         1 UNK         0.0000 
     31 H31         5.1639   52.6982   28.8802 H         1 UNK         0.0000 
     32 H32         3.9720   53.0479   27.7035 H         1 UNK         0.0000 
     33 H33         4.8585   54.6763   30.0814 H         1 UNK         0.0000 
     34 H34         4.7370   55.1538   28.4269 H         1 UNK         0.0000 
     35 H35         2.4753   54.9648   30.4812 H         1 UNK         0.0000 
     36 H36         3.1045   56.3551   29.6814 H         1 UNK         0.0000 
     37 H37         1.2326   56.1721   28.5044 H         1 UNK         0.0000 
     38 H38         2.2660   55.2559   27.4668 H         1 UNK         0.0000 
     39 H39        -0.1386   54.4838   28.1328 H         1 UNK         0.0000 
     40 H40         0.5098   53.9200   29.6274 H         1 UNK         0.0000 
     41 H41         2.3984   53.5777   26.4118 H         1 UNK         0.0000 
     42 H42         0.1319   48.3604   26.2698 H         1 UNK         0.0000 
     43 H43         1.0701   48.0212   24.8327 H         1 UNK         0.0000 
@<TRIPOS>BOND
     1    1    2 1    
     2    1   22 1    
     3    1   23 1    
     4    1   24 1    
     5    2    3 1    
     6    2    4 1    
     7    2   19 1    
     8    4    5 1    
     9    4   25 1    
    10    4   26 1    
    11    5   17 am   BACKBONE|DICT|INTERRES
    12    5    6 am   BACKBONE|DICT|INTERRES
    13    6    7 2    
    14    6    8 1    
    15    8   15 1    
    16    8    9 1    
    17    8   16 1    
    18    9   10 1    
    19    9   27 1    
    20    9   28 1    
    21   10   11 1    
    22   10   29 1    
    23   10   30 1    
    24   11   12 1    
    25   11   31 1    
    26   11   32 1    
    27   12   13 1    
    28   12   33 1    
    29   12   34 1    
    30   13   14 1    
    31   13   35 1    
    32   13   36 1    
    33   14   15 1    
    34   14   37 1    
    35   14   38 1    
    36   15   39 1    
    37   15   40 1    
    38   16   17 am   BACKBONE|DICT|INTERRES
    39   16   41 1    
    40   17   18 2    
    41   19   20 2    
    42   19   21 1    
    43   21   42 1    
    44   21   43 1    
@<TRIPOS>SUBSTRUCTURE
     1 UNK         1 GROUP             0       ****    0 ROOT    
