@<TRIPOS>MOLECULE
ZINC36413020_3019
73   76    1
SMALL
USER_CHARGES


@<TRIPOS>ATOM
      1 C1         -5.1304   45.0609   27.2934 C.3       1 UNK         0.0000 
      2 C2         -4.9066   46.5858   27.1816 C.3       1 UNK         0.0000 
      3 C3         -5.3936   47.4317   28.3982 C.3       1 UNK         0.0000 
      4 C4         -4.7992   47.0645   29.7843 C.3       1 UNK         0.0000 
      5 C5         -6.0507   47.0263   30.6954 C.3       1 UNK         0.0000 
      6 C6         -6.6352   48.4465   30.8682 C.3       1 UNK         0.0000 
      7 C7         -7.2820   48.7176   29.4900 C.3       1 UNK         0.0000 
      8 C8         -6.9229   47.4413   28.6907 C.3       1 UNK         0.0000 
      9 C9         -7.0958   46.3881   29.7861 C.3       1 UNK         0.0000 
     10 N10        -3.5051   46.8963   26.8811 N.am      1 UNK         0.0000 
     11 C11        -2.8883   46.7235   25.7022 C.2       1 UNK         0.0000 
     12 O12        -3.3606   46.0951   24.7539 O.2       1 UNK         0.0000 
     13 N13        -1.6958   47.3256   25.6819 N.am      1 UNK         0.0000 
     14 C14        -0.7718   47.3682   24.5484 C.3       1 UNK         0.0000 
     15 C15        -0.4343   48.8112   24.1540 C.2       1 UNK         0.0000 
     16 O16        -1.0188   49.7750   24.6600 O.2       1 UNK         0.0000 
     17 N17         0.5428   48.9273   23.2293 N.am      1 UNK         0.0000 
     18 C18         1.1934   50.0963   22.8037 C.ar      1 UNK         0.0000 
     19 C19         1.3939   51.1629   23.6845 C.ar      1 UNK         0.0000 
     20 C20         2.0196   52.3302   23.2636 C.ar      1 UNK         0.0000 
     21 C21         2.4425   52.4423   21.9382 C.ar      1 UNK         0.0000 
     22 C22         2.3034   51.3615   21.0670 C.ar      1 UNK         0.0000 
     23 C23         1.6932   50.1659   21.4915 C.ar      1 UNK         0.0000 
     24 O24         1.5455   49.0530   20.6776 O.3       1 UNK         0.0000 
     25 C25         2.0722   49.0794   19.3515 C.3       1 UNK         0.0000 
     26 S26         2.2176   53.6688   24.4325 S.o2      1 UNK         0.0000 
     27 O27         1.9621   54.8966   23.6819 O.2       1 UNK         0.0000 
     28 O28         1.4013   53.3309   25.6040 O.2       1 UNK         0.0000 
     29 N29         3.9164   53.7016   24.9493 N.pl3     1 UNK         0.0000 
     30 C30         4.1555   54.1180   26.3624 C.3       1 UNK         0.0000 
     31 C31         5.5138   53.7177   26.9688 C.3       1 UNK         0.0000 
     32 C32         6.7034   54.6100   26.5662 C.3       1 UNK         0.0000 
     33 C33         7.0964   54.5733   25.0803 C.3       1 UNK         0.0000 
     34 C34         5.9749   54.9632   24.1167 C.3       1 UNK         0.0000 
     35 C35         4.9284   53.8653   23.8701 C.3       1 UNK         0.0000 
     36 H36        -6.1685   44.8245   27.5155 H         1 UNK         0.0000 
     37 H37        -4.9091   44.5552   26.3535 H         1 UNK         0.0000 
     38 H38        -4.5095   44.6148   28.0712 H         1 UNK         0.0000 
     39 H39        -5.4956   46.9297   26.3284 H         1 UNK         0.0000 
     40 H40        -5.1053   48.4626   28.1731 H         1 UNK         0.0000 
     41 H41        -4.0935   47.8171   30.1445 H         1 UNK         0.0000 
     42 H42        -4.3015   46.0965   29.7832 H         1 UNK         0.0000 
     43 H43        -5.8878   46.5062   31.6409 H         1 UNK         0.0000 
     44 H44        -5.8668   49.1794   31.1218 H         1 UNK         0.0000 
     45 H45        -7.3865   48.4700   31.6590 H         1 UNK         0.0000 
     46 H46        -8.3645   48.8271   29.5833 H         1 UNK         0.0000 
     47 H47        -6.9061   49.6281   29.0223 H         1 UNK         0.0000 
     48 H48        -7.5486   47.2967   27.8086 H         1 UNK         0.0000 
     49 H49        -6.8678   45.3692   29.4849 H         1 UNK         0.0000 
     50 H50        -8.0984   46.3756   30.2218 H         1 UNK         0.0000 
     51 H51        -2.9859   47.3741   27.6120 H         1 UNK         0.0000 
     52 H52        -1.3750   47.7582   26.5465 H         1 UNK         0.0000 
     53 H53         0.1455   46.8847   24.8753 H         1 UNK         0.0000 
     54 H54        -1.1698   46.8358   23.6842 H         1 UNK         0.0000 
     55 H55         0.8850   48.0891   22.7890 H         1 UNK         0.0000 
     56 H56         1.0584   51.0877   24.7085 H         1 UNK         0.0000 
     57 H57         2.8847   53.3577   21.5726 H         1 UNK         0.0000 
     58 H58         2.6687   51.4736   20.0576 H         1 UNK         0.0000 
     59 H59         1.9181   48.1084   18.8805 H         1 UNK         0.0000 
     60 H60         1.5678   49.8257   18.7375 H         1 UNK         0.0000 
     61 H61         3.1439   49.2801   19.3409 H         1 UNK         0.0000 
     62 H62         3.9921   55.1929   26.4383 H         1 UNK         0.0000 
     63 H63         3.3770   53.6656   26.9741 H         1 UNK         0.0000 
     64 H64         5.4205   53.7876   28.0530 H         1 UNK         0.0000 
     65 H65         5.7224   52.6693   26.7727 H         1 UNK         0.0000 
     66 H66         6.4877   55.6419   26.8525 H         1 UNK         0.0000 
     67 H67         7.5675   54.3217   27.1662 H         1 UNK         0.0000 
     68 H68         7.5013   53.5936   24.8169 H         1 UNK         0.0000 
     69 H69         7.9044   55.2782   24.8997 H         1 UNK         0.0000 
     70 H70         6.4313   55.2080   23.1546 H         1 UNK         0.0000 
     71 H71         5.5036   55.8753   24.4818 H         1 UNK         0.0000 
     72 H72         5.4936   52.9309   23.8139 H         1 UNK         0.0000 
     73 H73         4.4330   53.9951   22.9113 H         1 UNK         0.0000 
@<TRIPOS>BOND
     1    1    2 1    
     2    1   36 1    
     3    1   37 1    
     4    1   38 1    
     5    2    3 1    
     6    2   10 1    
     7    2   39 1    
     8    3    8 1    
     9    3    4 1    
    10    3   40 1    
    11    4    5 1    
    12    4   41 1    
    13    4   42 1    
    14    5    9 1    
    15    5    6 1    
    16    5   43 1    
    17    6    7 1    
    18    6   44 1    
    19    6   45 1    
    20    7    8 1    
    21    7   46 1    
    22    7   47 1    
    23    8    9 1    
    24    8   48 1    
    25    9   49 1    
    26    9   50 1    
    27   10   11 am   BACKBONE|DICT|INTERRES
    28   10   51 1    
    29   11   12 2    
    30   11   13 am   BACKBONE|DICT|INTERRES
    31   13   14 1    
    32   13   52 1    
    33   14   15 1    
    34   14   53 1    
    35   14   54 1    
    36   15   16 2    
    37   15   17 am   BACKBONE|DICT|INTERRES
    38   17   18 1    
    39   17   55 1    
    40   18   23 ar   
    41   18   19 ar   
    42   19   20 ar   
    43   19   56 1    
    44   20   21 ar   
    45   20   26 1    
    46   21   22 ar   
    47   21   57 1    
    48   22   23 ar   
    49   22   58 1    
    50   23   24 1    
    51   24   25 1    
    52   25   59 1    
    53   25   60 1    
    54   25   61 1    
    55   26   27 2    
    56   26   28 2    
    57   26   29 1    
    58   29   35 1    
    59   29   30 1    
    60   30   31 1    
    61   30   62 1    
    62   30   63 1    
    63   31   32 1    
    64   31   64 1    
    65   31   65 1    
    66   32   33 1    
    67   32   66 1    
    68   32   67 1    
    69   33   34 1    
    70   33   68 1    
    71   33   69 1    
    72   34   35 1    
    73   34   70 1    
    74   34   71 1    
    75   35   72 1    
    76   35   73 1    
@<TRIPOS>SUBSTRUCTURE
     1 UNK         1 GROUP             0       ****    0 ROOT    
