@<TRIPOS>MOLECULE
ZINC64742813_2790
53   56    1
SMALL
USER_CHARGES


@<TRIPOS>ATOM
      1 C1          4.4679   53.6029   17.6804 C.3       1 UNK         0.0000 
      2 C2          3.6565   52.8970   18.7502 C.ar      1 UNK         0.0000 
      3 C3          3.8925   53.1629   20.0990 C.ar      1 UNK         0.0000 
      4 C4          3.1610   52.4956   21.0800 C.ar      1 UNK         0.0000 
      5 C5          2.1896   51.5550   20.7242 C.ar      1 UNK         0.0000 
      6 C6          1.9727   51.2502   19.3652 C.ar      1 UNK         0.0000 
      7 C7          2.7040   51.9401   18.3918 C.ar      1 UNK         0.0000 
      8 C8          1.0304   50.1451   18.9079 C.3       1 UNK         0.0000 
      9 N9          1.5120   50.9483   21.7882 N.am      1 UNK         0.0000 
     10 C10         0.1797   50.9693   21.9997 C.2       1 UNK         0.0000 
     11 O11        -0.6451   51.3964   21.1908 O.2       1 UNK         0.0000 
     12 C12        -0.3048   50.4869   23.3919 C.3       1 UNK         0.0000 
     13 H13        -1.2916   50.9462   23.5082 H         1 UNK         0.0000 
     14 C14        -0.4571   48.9373   23.3772 C.3       1 UNK         0.0000 
     15 C15        -0.8407   48.3413   24.7524 C.2       1 UNK         0.0000 
     16 O16        -1.3757   47.2404   24.8667 O.2       1 UNK         0.0000 
     17 N17        -0.5015   49.0913   25.8256 N.am      1 UNK         0.0000 
     18 C18         0.1122   50.2990   25.8982 C.2       1 UNK         0.0000 
     19 N19         0.2894   50.8491   27.0384 N.2       1 UNK         0.0000 
     20 C20         0.8873   52.1043   27.0635 C.2       1 UNK         0.0000 
     21 N21         1.1048   52.8968   26.0802 N.am      1 UNK         0.0000 
     22 C22         0.7634   52.5260   24.7829 C.2       1 UNK         0.0000 
     23 O23         0.6507   53.2903   23.8289 O.2       1 UNK         0.0000 
     24 C24         0.5901   50.9731   24.5846 C.3       1 UNK         0.0000 
     25 H25         1.6049   50.6122   24.4324 H         1 UNK         0.0000 
     26 S26         1.3915   52.6705   28.7074 S.3       1 UNK         0.0000 
     27 C27         2.0964   54.3325   28.3867 C.3       1 UNK         0.0000 
     28 C28         3.5519   54.2804   27.9348 C.ar      1 UNK         0.0000 
     29 C29         4.5694   54.1146   28.8794 C.ar      1 UNK         0.0000 
     30 C30         5.9062   54.0971   28.4814 C.ar      1 UNK         0.0000 
     31 C31         6.2377   54.2399   27.1353 C.ar      1 UNK         0.0000 
     32 C32         5.2303   54.4133   26.1868 C.ar      1 UNK         0.0000 
     33 C33         3.8926   54.4388   26.5844 C.ar      1 UNK         0.0000 
     34 F34         5.5514   54.5667   24.8828 F         1 UNK         0.0000 
     35 H35         3.9304   54.4737   17.3048 H         1 UNK         0.0000 
     36 H36         5.4383   53.9191   18.0646 H         1 UNK         0.0000 
     37 H37         4.6675   52.9303   16.8462 H         1 UNK         0.0000 
     38 H38         4.6318   53.8941   20.3898 H         1 UNK         0.0000 
     39 H39         3.3422   52.7311   22.1190 H         1 UNK         0.0000 
     40 H40         2.5646   51.6986   17.3479 H         1 UNK         0.0000 
     41 H41         0.0297   50.5380   18.7337 H         1 UNK         0.0000 
     42 H42         1.3929   49.6860   17.9880 H         1 UNK         0.0000 
     43 H43         0.9766   49.3417   19.6411 H         1 UNK         0.0000 
     44 H44         2.0916   50.6918   22.5712 H         1 UNK         0.0000 
     45 H45        -1.0210   48.5452   22.5299 H         1 UNK         0.0000 
     46 H46         0.5425   48.5206   23.2331 H         1 UNK         0.0000 
     47 H47        -0.7877   48.6904   26.7179 H         1 UNK         0.0000 
     48 H48         1.4850   54.8957   27.6812 H         1 UNK         0.0000 
     49 H49         2.0425   54.9005   29.3157 H         1 UNK         0.0000 
     50 H50         4.3264   54.0019   29.9258 H         1 UNK         0.0000 
     51 H51         6.6864   53.9879   29.2236 H         1 UNK         0.0000 
     52 H52         7.2725   54.2214   26.8288 H         1 UNK         0.0000 
     53 H53         3.1259   54.5786   25.8368 H         1 UNK         0.0000 
@<TRIPOS>BOND
     1    1    2 1    
     2    1   35 1    
     3    1   36 1    
     4    1   37 1    
     5    2    7 ar   
     6    2    3 ar   
     7    3    4 ar   
     8    3   38 1    
     9    4    5 ar   
    10    4   39 1    
    11    5    6 ar   
    12    5    9 1    
    13    6    7 ar   
    14    6    8 1    
    15    7   40 1    
    16    8   41 1    
    17    8   42 1    
    18    8   43 1    
    19    9   10 am   BACKBONE|DICT|INTERRES
    20    9   44 1    
    21   10   11 2    
    22   10   12 1    
    23   12   13 1    
    24   12   24 1    
    25   12   14 1    
    26   14   15 1    
    27   14   45 1    
    28   14   46 1    
    29   15   16 2    
    30   15   17 am   BACKBONE|DICT|INTERRES
    31   17   18 1    
    32   17   47 1    
    33   18   24 1    
    34   18   19 2    
    35   19   20 1    
    36   20   21 2    BACKBONE|DICT|INTERRES
    37   20   26 1    
    38   21   22 am   BACKBONE|DICT|INTERRES
    39   22   23 2    
    40   22   24 1    
    41   24   25 1    
    42   26   27 1    
    43   27   28 1    
    44   27   48 1    
    45   27   49 1    
    46   28   33 ar   
    47   28   29 ar   
    48   29   30 ar   
    49   29   50 1    
    50   30   31 ar   
    51   30   51 1    
    52   31   32 ar   
    53   31   52 1    
    54   32   33 ar   
    55   32   34 1    
    56   33   53 1    
@<TRIPOS>SUBSTRUCTURE
     1 UNK         1 GROUP             0       ****    0 ROOT    
