ZINC31310163_5242
                    3D
 Schrodinger Suite 2024-2.
 55 57  0  0  1  0            999 V2000
    5.4082   54.4801   20.4596 C   0  0  0  0  0  0
    4.7271   53.3856   21.2947 C   0  0  1  0  0  0
    5.4250   52.5472   21.3608 H   0  0  0  0  0  0
    4.4344   53.8479   22.7395 C   0  0  0  0  0  0
    3.1150   54.0735   23.1663 C   0  0  0  0  0  0
    2.8304   54.3720   24.4936 C   0  0  0  0  0  0
    3.8635   54.4991   25.4180 C   0  0  0  0  0  0
    5.1827   54.3271   25.0085 C   0  0  0  0  0  0
    5.4716   53.9903   23.6848 C   0  0  0  0  0  0
    7.1252   53.6966   23.2821 Cl  0  0  0  0  0  0
    3.5076   54.8933   27.0594 Cl  0  0  0  0  0  0
    3.5569   52.9038   20.5491 N   0  0  0  0  0  0
    2.8815   51.7721   20.8079 C   0  0  0  0  0  0
    3.2246   50.9755   21.6820 O   0  0  0  0  0  0
    1.6085   51.5103   19.9668 C   0  0  2  0  0  0
    1.7438   51.8796   18.9472 H   0  0  0  0  0  0
    0.4483   52.2453   20.6461 C   0  0  0  0  0  0
    1.4488   49.9694   19.8167 N   0  3  0  0  0  0
    0.0709   49.5238   19.2746 C   0  0  0  0  0  0
    0.0184   47.9743   19.1763 C   0  0  0  0  0  0
    1.1442   47.3691   18.4307 N   0  0  0  0  0  0
    2.4254   47.8665   18.9520 C   0  0  0  0  0  0
    2.5298   49.3900   18.8816 C   0  0  0  0  0  0
    1.0082   46.6788   17.2214 C   0  0  0  0  0  0
    2.0774   46.4976   16.3267 C   0  0  0  0  0  0
    1.8864   45.7396   15.1723 C   0  0  0  0  0  0
    0.6392   45.1675   14.9128 C   0  0  0  0  0  0
   -0.3850   45.3939   15.8377 C   0  0  0  0  0  0
   -0.2120   46.1271   16.9664 N   0  0  0  0  0  0
    0.4259   44.3274   13.6570 C   0  0  0  0  0  0
    1.2312   43.2649   13.6958 F   0  0  0  0  0  0
   -0.8322   43.8993   13.5431 F   0  0  0  0  0  0
    0.7250   45.0516   12.5784 F   0  0  0  0  0  0
    6.2894   54.8957   20.9454 H   0  0  0  0  0  0
    5.7298   54.0917   19.4923 H   0  0  0  0  0  0
    4.7170   55.2970   20.2646 H   0  0  0  0  0  0
    2.2879   53.9903   22.4795 H   0  0  0  0  0  0
    1.8036   54.4964   24.8065 H   0  0  0  0  0  0
    5.9834   54.4196   25.7282 H   0  0  0  0  0  0
    3.2014   53.5250   19.8378 H   0  0  0  0  0  0
    0.6963   53.2966   20.8076 H   0  0  0  0  0  0
   -0.4404   52.2069   20.0163 H   0  0  0  0  0  0
    0.2169   51.7915   21.6122 H   0  0  0  0  0  0
   -0.6650   49.8619   20.0031 H   0  0  0  0  0  0
   -0.0844   50.0211   18.3142 H   0  0  0  0  0  0
    0.0759   47.5365   20.1751 H   0  0  0  0  0  0
   -0.9476   47.6804   18.7648 H   0  0  0  0  0  0
    3.2834   47.4373   18.4401 H   0  0  0  0  0  0
    2.5104   47.5358   19.9896 H   0  0  0  0  0  0
    2.3811   49.7947   17.8776 H   0  0  0  0  0  0
    3.5044   49.6938   19.2675 H   0  0  0  0  0  0
    3.0485   46.9389   16.4899 H   0  0  0  0  0  0
    2.7078   45.5994   14.4851 H   0  0  0  0  0  0
   -1.3740   44.9829   15.6930 H   0  0  0  0  0  0
    1.5942   49.5761   20.7373 H   0  0  0  0  0  0
  1  2  1  0  0  0
  1 34  1  0  0  0
  1 35  1  0  0  0
  1 36  1  0  0  0
  2  3  1  0  0  0
  2  4  1  0  0  0
  2 12  1  0  0  0
  4  9  2  0  0  0
  4  5  1  0  0  0
  5  6  2  0  0  0
  5 37  1  0  0  0
  6  7  1  0  0  0
  6 38  1  0  0  0
  7  8  2  0  0  0
  7 11  1  0  0  0
  8  9  1  0  0  0
  8 39  1  0  0  0
  9 10  1  0  0  0
 12 13  1  0  0  0
 12 40  1  0  0  0
 13 14  2  0  0  0
 13 15  1  0  0  0
 15 16  1  0  0  0
 15 17  1  0  0  0
 15 18  1  0  0  0
 17 41  1  0  0  0
 17 42  1  0  0  0
 17 43  1  0  0  0
 18 23  1  0  0  0
 18 19  1  0  0  0
 18 55  1  0  0  0
 19 20  1  0  0  0
 19 44  1  0  0  0
 19 45  1  0  0  0
 20 21  1  0  0  0
 20 46  1  0  0  0
 20 47  1  0  0  0
 21 22  1  0  0  0
 21 24  1  0  0  0
 22 23  1  0  0  0
 22 48  1  0  0  0
 22 49  1  0  0  0
 23 50  1  0  0  0
 23 51  1  0  0  0
 24 29  2  0  0  0
 24 25  1  0  0  0
 25 26  2  0  0  0
 25 52  1  0  0  0
 26 27  1  0  0  0
 26 53  1  0  0  0
 27 28  2  0  0  0
 27 30  1  0  0  0
 28 29  1  0  0  0
 28 54  1  0  0  0
 30 31  1  0  0  0
 30 32  1  0  0  0
 30 33  1  0  0  0
M  CHG  1  18   1
M  END
> <i_i_glide_confnum>
10

> <i_i_glide_lignum>
5243

> <i_i_glide_posenum>
375

> <i_i_glide_rotatable_bonds>
7

> <i_m_Source_File_Index>
5456

> <b_m_subgroup_collapsed>
0

> <r_i_docking_score>
-3.71292

> <r_i_glide_ecoul>
-2.63387

> <r_i_glide_eff_state_penalty>
0

> <r_i_glide_einternal>
1.92641

> <r_i_glide_emodel>
-42.2639

> <r_i_glide_energy>
-33.9623

> <r_i_glide_erotb>
0.446207

> <r_i_glide_esite>
-0.062003

> <r_i_glide_evdw>
-31.3284

> <r_i_glide_gscore>
-3.71292

> <r_i_glide_hbond>
0

> <r_i_glide_ligand_efficiency>
-0.119771

> <r_i_glide_ligand_efficiency_ln>
-0.837376

> <r_i_glide_ligand_efficiency_sa>
-0.376248

> <r_i_glide_lipo>
-1.88372

> <r_i_glide_metal>
0

> <r_i_glide_rewards>
-0.251904

> <s_i_glide_gridfile>
wee1_glide-grid

> <s_m_Source_File>
wee1_decoys_glide_SP.sdf

> <s_m_Source_Path>
/Users/zhangxujun/Desktop

> <s_m_entry_id>
5731

> <s_m_entry_name>
wee1_decoys_glide_SP.5456

> <s_m_subgroup_title>
wee1_decoys_glide_SP

> <s_m_subgroupid>
wee1_decoys_glide_SP


$$$$
