ZINC40427371_5417
                    3D
 Schrodinger Suite 2024-2.
 72 76  0  0  1  0            999 V2000
    4.2198   58.3179   16.4647 C   0  0  0  0  0  0
    5.5892   58.0803   16.4063 C   0  0  0  0  0  0
    6.0809   56.8146   16.7240 C   0  0  0  0  0  0
    5.2113   55.7909   17.1342 C   0  0  0  0  0  0
    3.8355   56.0545   17.1806 C   0  0  0  0  0  0
    3.3410   57.3110   16.8436 C   0  0  0  0  0  0
    5.7008   54.3774   17.5402 C   0  0  0  0  0  0
    7.2093   54.0746   17.4668 C   0  0  0  0  0  0
    8.1493   54.8628   18.1460 C   0  0  0  0  0  0
    9.5085   54.5777   18.0478 C   0  0  0  0  0  0
    9.9333   53.4958   17.2814 C   0  0  0  0  0  0
    9.0101   52.6919   16.6184 C   0  0  0  0  0  0
    7.6517   52.9839   16.7076 C   0  0  0  0  0  0
    5.1162   53.8816   18.7975 N   0  0  0  0  0  0
    5.1917   54.4689   20.0069 C   0  0  0  0  0  0
    5.8028   55.5232   20.1988 O   0  0  0  0  0  0
    4.4314   53.7439   21.1446 C   0  0  0  0  0  0
    4.6395   54.3752   22.4630 N   0  0  0  0  0  0
    3.5959   53.9800   23.4122 C   0  0  0  0  0  0
    3.7580   54.6310   24.8112 C   0  0  0  0  0  0
    5.1540   54.4915   25.2946 N   0  0  0  0  0  0
    6.1887   54.9067   24.3137 C   0  0  0  0  0  0
    5.9796   54.1247   23.0051 C   0  0  0  0  0  0
    5.5734   54.1607   26.5600 C   0  0  0  0  0  0
    6.7668   54.2664   26.8740 O   0  0  0  0  0  0
    4.6718   53.6311   27.5922 C   0  0  0  0  0  0
    5.1045   53.3216   28.8816 C   0  0  0  0  0  0
    3.8572   52.5237   29.7871 S   0  0  0  0  0  0
    2.8352   52.7118   28.4110 C   0  0  0  0  0  0
    3.4091   53.2963   27.3878 N   0  0  0  0  0  0
    1.5501   52.2276   28.4567 N   0  0  0  0  0  0
    0.5090   52.3647   27.4430 C   0  0  0  0  0  0
    0.9227   51.6852   26.1182 C   0  0  0  0  0  0
   -0.1864   51.8534   25.0582 C   0  0  0  0  0  0
   -1.5417   51.3138   25.5646 C   0  0  0  0  0  0
   -1.9210   51.8791   26.9523 C   0  0  0  0  0  0
   -0.7777   51.6970   27.9690 C   0  0  0  0  0  0
    3.8383   59.2983   16.2151 H   0  0  0  0  0  0
    6.2603   58.8773   16.1172 H   0  0  0  0  0  0
    7.1456   56.6542   16.6476 H   0  0  0  0  0  0
    3.1444   55.2832   17.4949 H   0  0  0  0  0  0
    2.2793   57.5160   16.8856 H   0  0  0  0  0  0
    5.2411   53.7443   16.7788 H   0  0  0  0  0  0
    7.8330   55.7035   18.7451 H   0  0  0  0  0  0
   10.2310   55.1958   18.5571 H   0  0  0  0  0  0
   10.9873   53.2676   17.2145 H   0  0  0  0  0  0
    9.3468   51.8411   16.0433 H   0  0  0  0  0  0
    6.9469   52.3478   16.1933 H   0  0  0  0  0  0
    4.6691   52.9792   18.7368 H   0  0  0  0  0  0
    3.3707   53.7964   20.8786 H   0  0  0  0  0  0
    4.7092   52.6856   21.1663 H   0  0  0  0  0  0
    2.6147   54.2461   23.0117 H   0  0  0  0  0  0
    3.6602   52.8970   23.5391 H   0  0  0  0  0  0
    3.5569   55.6964   24.7442 H   0  0  0  0  0  0
    2.9641   54.2286   25.4206 H   0  0  0  0  0  0
    7.2097   54.7129   24.6486 H   0  0  0  0  0  0
    6.1139   55.9746   24.1104 H   0  0  0  0  0  0
    6.0952   53.0556   23.1981 H   0  0  0  0  0  0
    6.7534   54.4342   22.3024 H   0  0  0  0  0  0
    6.0960   53.4737   29.2812 H   0  0  0  0  0  0
    1.1678   51.9232   29.3381 H   0  0  0  0  0  0
    0.3313   53.4276   27.2817 H   0  0  0  0  0  0
    1.8493   52.1006   25.7241 H   0  0  0  0  0  0
    1.1023   50.6209   26.2832 H   0  0  0  0  0  0
   -0.2872   52.9081   24.7983 H   0  0  0  0  0  0
    0.0989   51.3387   24.1381 H   0  0  0  0  0  0
   -2.3293   51.5359   24.8419 H   0  0  0  0  0  0
   -1.4899   50.2255   25.6286 H   0  0  0  0  0  0
   -2.1677   52.9365   26.8531 H   0  0  0  0  0  0
   -2.8229   51.3879   27.3196 H   0  0  0  0  0  0
   -0.6113   50.6276   28.1163 H   0  0  0  0  0  0
   -1.0723   52.1073   28.9367 H   0  0  0  0  0  0
  1  6  2  0  0  0
  1  2  1  0  0  0
  1 38  1  0  0  0
  2  3  2  0  0  0
  2 39  1  0  0  0
  3  4  1  0  0  0
  3 40  1  0  0  0
  4  5  2  0  0  0
  4  7  1  0  0  0
  5  6  1  0  0  0
  5 41  1  0  0  0
  6 42  1  0  0  0
  7  8  1  0  0  0
  7 14  1  0  0  0
  7 43  1  0  0  0
  8 13  2  0  0  0
  8  9  1  0  0  0
  9 10  2  0  0  0
  9 44  1  0  0  0
 10 11  1  0  0  0
 10 45  1  0  0  0
 11 12  2  0  0  0
 11 46  1  0  0  0
 12 13  1  0  0  0
 12 47  1  0  0  0
 13 48  1  0  0  0
 14 15  1  0  0  0
 14 49  1  0  0  0
 15 16  2  0  0  0
 15 17  1  0  0  0
 17 18  1  0  0  0
 17 50  1  0  0  0
 17 51  1  0  0  0
 18 23  1  0  0  0
 18 19  1  0  0  0
 19 20  1  0  0  0
 19 52  1  0  0  0
 19 53  1  0  0  0
 20 21  1  0  0  0
 20 54  1  0  0  0
 20 55  1  0  0  0
 21 22  1  0  0  0
 21 24  1  0  0  0
 22 23  1  0  0  0
 22 56  1  0  0  0
 22 57  1  0  0  0
 23 58  1  0  0  0
 23 59  1  0  0  0
 24 25  2  0  0  0
 24 26  1  0  0  0
 26 30  1  0  0  0
 26 27  2  0  0  0
 27 28  1  0  0  0
 27 60  1  0  0  0
 28 29  1  0  0  0
 29 30  2  0  0  0
 29 31  1  0  0  0
 31 32  1  0  0  0
 31 61  1  0  0  0
 32 37  1  0  0  0
 32 33  1  0  0  0
 32 62  1  0  0  0
 33 34  1  0  0  0
 33 63  1  0  0  0
 33 64  1  0  0  0
 34 35  1  0  0  0
 34 65  1  0  0  0
 34 66  1  0  0  0
 35 36  1  0  0  0
 35 67  1  0  0  0
 35 68  1  0  0  0
 36 37  1  0  0  0
 36 69  1  0  0  0
 36 70  1  0  0  0
 37 71  1  0  0  0
 37 72  1  0  0  0
M  END
> <i_i_glide_confnum>
3

> <i_i_glide_lignum>
5418

> <i_i_glide_posenum>
5

> <i_i_glide_rotatable_bonds>
10

> <i_m_Source_File_Index>
1473

> <b_m_subgroup_collapsed>
0

> <r_i_docking_score>
-5.65667

> <r_i_glide_ecoul>
-3.98922

> <r_i_glide_eff_state_penalty>
0

> <r_i_glide_einternal>
2.549

> <r_i_glide_emodel>
-67.257

> <r_i_glide_energy>
-50.3958

> <r_i_glide_erotb>
0.766181

> <r_i_glide_esite>
-0.0241576

> <r_i_glide_evdw>
-46.4066

> <r_i_glide_gscore>
-5.65667

> <r_i_glide_hbond>
0

> <r_i_glide_ligand_efficiency>
-0.152883

> <r_i_glide_ligand_efficiency_ln>
-1.2268

> <r_i_glide_ligand_efficiency_sa>
-0.50944

> <r_i_glide_lipo>
-2.59908

> <r_i_glide_metal>
0

> <r_i_glide_rewards>
-0.880894

> <s_i_glide_gridfile>
wee1_glide-grid

> <s_m_Source_File>
wee1_decoys_glide_SP.sdf

> <s_m_Source_Path>
/Users/zhangxujun/Desktop

> <s_m_entry_id>
1748

> <s_m_entry_name>
wee1_decoys_glide_SP.1473

> <s_m_subgroup_title>
wee1_decoys_glide_SP

> <s_m_subgroupid>
wee1_decoys_glide_SP


$$$$
