@<TRIPOS>MOLECULE
ZINC02863578_2182
52   55    1
SMALL
USER_CHARGES


@<TRIPOS>ATOM
      1 C1          2.4656   48.5588   19.0346 C.3       1 UNK         0.0000 
      2 O2          2.5421   49.6967   19.8836 O.3       1 UNK         0.0000 
      3 C3          1.6257   49.9042   20.8458 C.2       1 UNK         0.0000 
      4 O4          0.7025   49.1223   21.0951 O.2       1 UNK         0.0000 
      5 C5          1.8796   51.1418   21.6213 C.2       1 UNK         0.0000 
      6 C6          2.6761   52.2741   21.2344 C.2       1 UNK         0.0000 
      7 C7          2.8632   53.1994   22.2825 C.2       1 UNK         0.0000 
      8 S8          1.9043   52.7844   23.6506 S.3       1 UNK         0.0000 
      9 C9          1.2979   51.3737   22.8776 C.2       1 UNK         0.0000 
     10 N10         0.4030   50.5662   23.5484 N.pl3     1 UNK         0.0000 
     11 C11        -0.7776   50.9697   24.3161 C.3       1 UNK         0.0000 
     12 C12        -1.2522   49.7331   25.0822 C.2       1 UNK         0.0000 
     13 O13        -1.6319   48.6480   24.6460 O.2       1 UNK         0.0000 
     14 N14        -1.1024   50.0967   26.4817 N.am      1 UNK         0.0000 
     15 C15        -0.5962   51.3168   26.6301 C.2       1 UNK         0.0000 
     16 C16        -0.1849   51.9744   27.8660 C.ar      1 UNK         0.0000 
     17 C17         0.8744   52.8967   27.8477 C.ar      1 UNK         0.0000 
     18 C18         1.2763   53.5309   29.0206 C.ar      1 UNK         0.0000 
     19 C19         0.6313   53.2368   30.2185 C.ar      1 UNK         0.0000 
     20 C20        -0.4118   52.3176   30.2493 C.ar      1 UNK         0.0000 
     21 C21        -0.8301   51.6967   29.0765 C.ar      1 UNK         0.0000 
     22 C22        -1.9235   51.5439   23.4161 C.3       1 UNK         0.0000 
     23 F23        -2.2248   50.7322   22.3998 F         1 UNK         0.0000 
     24 F24        -3.0554   51.7634   24.0918 F         1 UNK         0.0000 
     25 F25        -1.5719   52.7158   22.8818 F         1 UNK         0.0000 
     26 C26         3.7021   54.4622   22.2970 C.3       1 UNK         0.0000 
     27 C27         5.1616   54.2762   21.8379 C.3       1 UNK         0.0000 
     28 C28         5.3432   54.0315   20.3293 C.3       1 UNK         0.0000 
     29 C29         4.8014   52.6884   19.8088 C.3       1 UNK         0.0000 
     30 C30         3.2695   52.5587   19.8529 C.3       1 UNK         0.0000 
     31 H31         3.3965   48.4416   18.4825 H         1 UNK         0.0000 
     32 H32         2.3044   47.6437   19.6057 H         1 UNK         0.0000 
     33 H33         1.6538   48.6673   18.3147 H         1 UNK         0.0000 
     34 H34         0.2497   49.6488   23.1450 H         1 UNK         0.0000 
     35 H35        -1.2956   49.4313   27.2493 H         1 UNK         0.0000 
     36 H36         1.4052   53.1287   26.9342 H         1 UNK         0.0000 
     37 H37         2.0901   54.2416   29.0013 H         1 UNK         0.0000 
     38 H38         0.9402   53.7187   31.1349 H         1 UNK         0.0000 
     39 H39        -0.8956   52.0842   31.1871 H         1 UNK         0.0000 
     40 H40        -1.6433   50.9829   29.1321 H         1 UNK         0.0000 
     41 H41         3.7279   54.8787   23.3050 H         1 UNK         0.0000 
     42 H42         3.2232   55.2188   21.6817 H         1 UNK         0.0000 
     43 H43         5.6300   53.4704   22.4059 H         1 UNK         0.0000 
     44 H44         5.7212   55.1763   22.0963 H         1 UNK         0.0000 
     45 H45         6.4023   54.0967   20.0817 H         1 UNK         0.0000 
     46 H46         4.8783   54.8477   19.7736 H         1 UNK         0.0000 
     47 H47         5.2635   51.8525   20.3357 H         1 UNK         0.0000 
     48 H48         5.1194   52.5797   18.7705 H         1 UNK         0.0000 
     49 H49         2.8462   53.4920   19.4812 H         1 UNK         0.0000 
     50 H50         2.9558   51.8530   19.0885 H         1 UNK         0.0000 
     51 N51        -0.5123   51.8750   25.4299 N.pl3     1 UNK         0.0000 
     52 H52        -0.1835   52.8155   25.2797 H         1 UNK         0.0000 
@<TRIPOS>BOND
     1    1    2 1    
     2    1   31 1    
     3    1   32 1    
     4    1   33 1    
     5    2    3 1    
     6    3    4 2    
     7    3    5 1    
     8    5    9 2    
     9    5    6 1    
    10    6   30 1    
    11    6    7 2    
    12    7    8 1    
    13    7   26 1    
    14    8    9 1    
    15    9   10 1    
    16   10   11 1    
    17   10   34 1    
    18   11   12 1    
    19   11   22 1    
    20   11   51 1    
    21   12   13 2    
    22   12   14 am   BACKBONE|DICT|INTERRES
    23   14   15 1    
    24   14   35 1    
    25   15   16 1    
    26   15   51 2    
    27   16   21 ar   
    28   16   17 ar   
    29   17   18 ar   
    30   17   36 1    
    31   18   19 ar   
    32   18   37 1    
    33   19   20 ar   
    34   19   38 1    
    35   20   21 ar   
    36   20   39 1    
    37   21   40 1    
    38   22   23 1    
    39   22   24 1    
    40   22   25 1    
    41   26   27 1    
    42   26   41 1    
    43   26   42 1    
    44   27   28 1    
    45   27   43 1    
    46   27   44 1    
    47   28   29 1    
    48   28   45 1    
    49   28   46 1    
    50   29   30 1    
    51   29   47 1    
    52   29   48 1    
    53   30   49 1    
    54   30   50 1    
    55   51   52 1    
@<TRIPOS>SUBSTRUCTURE
     1 UNK         1 GROUP             0       ****    0 ROOT    
