@<TRIPOS>MOLECULE
ZINC03360619_2652
44   47    1
SMALL
USER_CHARGES


@<TRIPOS>ATOM
      1 C1          4.1135   54.4270   27.9431 C.ar      1 UNK         0.0000 
      2 C2          2.8010   54.0393   27.7154 C.ar      1 UNK         0.0000 
      3 C3          2.3942   53.6963   26.4302 C.ar      1 UNK         0.0000 
      4 C4          3.2827   53.7381   25.3459 C.ar      1 UNK         0.0000 
      5 C5          4.6196   54.1803   25.5663 C.ar      1 UNK         0.0000 
      6 C6          5.0078   54.4966   26.8800 C.ar      1 UNK         0.0000 
      7 C7          5.6692   54.3414   24.4727 C.2       1 UNK         0.0000 
      8 O8          6.8662   54.3573   24.7657 O.2       1 UNK         0.0000 
      9 N9          5.2049   54.4963   23.2133 N.am      1 UNK         0.0000 
     10 C10         5.8976   54.7875   22.0271 C.ar      1 UNK         0.0000 
     11 C11         7.1503   55.4162   21.9914 C.ar      1 UNK         0.0000 
     12 C12         7.7756   55.6960   20.7753 C.ar      1 UNK         0.0000 
     13 C13         7.1368   55.3638   19.5835 C.ar      1 UNK         0.0000 
     14 C14         5.8723   54.7548   19.6094 C.ar      1 UNK         0.0000 
     15 C15         5.2471   54.4859   20.8261 C.ar      1 UNK         0.0000 
     16 O16         5.1843   54.4483   18.4539 O.3       1 UNK         0.0000 
     17 C17         6.0217   54.3392   17.2978 C.3       1 UNK         0.0000 
     18 C18         7.0021   55.5371   17.2326 C.3       1 UNK         0.0000 
     19 O19         7.8207   55.5909   18.4071 O.3       1 UNK         0.0000 
     20 N20         2.8608   53.2962   24.0751 N.pl3     1 UNK         0.0000 
     21 S21         1.1981   53.0137   23.5418 S.o2      1 UNK         0.0000 
     22 O22         0.3615   54.0828   24.0813 O.2       1 UNK         0.0000 
     23 O23         1.2753   52.7443   22.1030 O.2       1 UNK         0.0000 
     24 C24         0.7045   51.4640   24.3239 C.2       1 UNK         0.0000 
     25 C25         1.0940   50.1923   23.9196 C.2       1 UNK         0.0000 
     26 C26         0.5146   49.1868   24.7006 C.2       1 UNK         0.0000 
     27 C27        -0.3156   49.6846   25.6929 C.2       1 UNK         0.0000 
     28 S28        -0.4086   51.4122   25.6585 S.3       1 UNK         0.0000 
     29 H29         4.4399   54.6875   28.9403 H         1 UNK         0.0000 
     30 H30         2.0987   53.9903   28.5348 H         1 UNK         0.0000 
     31 H31         1.3733   53.3853   26.2969 H         1 UNK         0.0000 
     32 H32         6.0168   54.8211   27.0972 H         1 UNK         0.0000 
     33 H33         4.2015   54.4301   23.1147 H         1 UNK         0.0000 
     34 H34         7.6561   55.6994   22.9000 H         1 UNK         0.0000 
     35 H35         8.7595   56.1405   20.7585 H         1 UNK         0.0000 
     36 H36         4.2669   54.0297   20.8201 H         1 UNK         0.0000 
     37 H37         6.5907   53.4090   17.3500 H         1 UNK         0.0000 
     38 H38         5.4018   54.2985   16.4027 H         1 UNK         0.0000 
     39 H39         7.6388   55.4642   16.3518 H         1 UNK         0.0000 
     40 H40         6.4298   56.4642   17.1522 H         1 UNK         0.0000 
     41 H41         3.5622   52.8644   23.4937 H         1 UNK         0.0000 
     42 H42         1.7700   49.9995   23.0991 H         1 UNK         0.0000 
     43 H43         0.7044   48.1321   24.5606 H         1 UNK         0.0000 
     44 H44        -0.8645   49.1265   26.4423 H         1 UNK         0.0000 
@<TRIPOS>BOND
     1    1    6 ar   
     2    1    2 ar   
     3    1   29 1    
     4    2    3 ar   
     5    2   30 1    
     6    3    4 ar   
     7    3   31 1    
     8    4    5 ar   
     9    4   20 1    
    10    5    6 ar   
    11    5    7 1    
    12    6   32 1    
    13    7    8 2    
    14    7    9 am   BACKBONE|DICT|INTERRES
    15    9   10 1    
    16    9   33 1    
    17   10   15 ar   
    18   10   11 ar   
    19   11   12 ar   
    20   11   34 1    
    21   12   13 ar   
    22   12   35 1    
    23   13   19 1    
    24   13   14 ar   
    25   14   15 ar   
    26   14   16 1    
    27   15   36 1    
    28   16   17 1    
    29   17   18 1    
    30   17   37 1    
    31   17   38 1    
    32   18   19 1    
    33   18   39 1    
    34   18   40 1    
    35   20   21 1    
    36   20   41 1    
    37   21   22 2    
    38   21   23 2    
    39   21   24 1    
    40   24   28 1    
    41   24   25 2    
    42   25   26 1    
    43   25   42 1    
    44   26   27 2    
    45   26   43 1    
    46   27   28 1    
    47   27   44 1    
@<TRIPOS>SUBSTRUCTURE
     1 UNK         1 GROUP             0       ****    0 ROOT    
