ZINC40984335_1104
                    3D
 Schrodinger Suite 2024-2.
 68 71  0  0  1  0            999 V2000
    6.7216   55.0283   22.2950 C   0  0  0  0  0  0
    5.3890   54.4965   22.7580 C   0  0  0  0  0  0
    4.2625   53.9720   22.1348 C   0  0  0  0  0  0
    3.3319   53.7308   23.0501 N   0  0  0  0  0  0
    3.8813   54.0424   24.2043 C   0  0  0  0  0  0
    5.1482   54.5142   24.0895 O   0  0  0  0  0  0
    3.2991   53.8721   25.5743 C   0  0  0  0  0  0
    2.0371   53.2970   25.7414 C   0  0  0  0  0  0
    1.5044   53.1138   27.0155 C   0  0  0  0  0  0
    2.2131   53.5177   28.1583 C   0  0  0  0  0  0
    3.4814   54.0984   28.0039 C   0  0  0  0  0  0
    4.0150   54.2598   26.7123 C   0  0  0  0  0  0
    4.1341   54.4927   29.1584 O   0  0  0  0  0  0
    5.5047   54.8680   29.1038 C   0  0  0  0  0  0
    1.7356   53.3666   29.4503 O   0  0  0  0  0  0
    0.4718   52.7443   29.6676 C   0  0  0  0  0  0
    4.0430   53.6809   20.6537 C   0  0  0  0  0  0
    3.1262   52.4511   20.4212 N   0  3  1  0  0  0
    2.8547   52.2768   18.9038 C   0  0  0  0  0  0
    1.8817   51.0969   18.6987 C   0  0  0  0  0  0
    2.4777   49.8241   19.3443 C   0  0  1  0  0  0
    2.6866   50.0282   20.8581 C   0  0  0  0  0  0
    3.7217   51.1552   21.0278 C   0  0  0  0  0  0
    1.5360   48.6339   19.0699 C   0  0  0  0  0  0
    0.5046   48.4784   19.7261 O   0  0  0  0  0  0
    1.9059   47.8132   18.0750 N   0  0  0  0  0  0
    1.1524   46.6623   17.5806 C   0  0  0  0  0  0
    1.2757   46.4069   16.0782 C   0  0  0  0  0  0
    0.7678   45.2149   15.5519 C   0  0  0  0  0  0
    0.8588   44.9499   14.1865 C   0  0  0  0  0  0
    1.4613   45.8730   13.3322 C   0  0  0  0  0  0
    1.9911   47.0662   13.8404 C   0  0  0  0  0  0
    1.8966   47.3208   15.2130 C   0  0  0  0  0  0
    2.6592   48.0948   12.9277 C   0  0  0  0  0  0
    3.9678   48.1170   13.1766 F   0  0  0  0  0  0
    2.4826   47.8091   11.6358 F   0  0  0  0  0  0
    2.1570   49.3083   13.1567 F   0  0  0  0  0  0
    7.5519   54.4881   22.7469 H   0  0  0  0  0  0
    6.8366   54.9686   21.2110 H   0  0  0  0  0  0
    6.8444   56.0755   22.5711 H   0  0  0  0  0  0
    1.4647   52.9779   24.8822 H   0  0  0  0  0  0
    0.5292   52.6583   27.0957 H   0  0  0  0  0  0
    4.9913   54.6958   26.5746 H   0  0  0  0  0  0
    5.7963   55.2588   30.0789 H   0  0  0  0  0  0
    6.1326   54.0027   28.8845 H   0  0  0  0  0  0
    5.7289   55.6433   28.3723 H   0  0  0  0  0  0
    0.2700   52.6981   30.7380 H   0  0  0  0  0  0
   -0.3381   53.3109   29.2058 H   0  0  0  0  0  0
    0.4562   51.7215   29.2875 H   0  0  0  0  0  0
    4.9684   53.4789   20.1099 H   0  0  0  0  0  0
    3.5260   54.5052   20.1610 H   0  0  0  0  0  0
    3.8144   52.1140   18.4065 H   0  0  0  0  0  0
    2.4027   53.2051   18.5482 H   0  0  0  0  0  0
    1.7826   50.9818   17.6173 H   0  0  0  0  0  0
    0.9335   51.3821   19.1578 H   0  0  0  0  0  0
    3.4278   49.5528   18.8820 H   0  0  0  0  0  0
    1.7727   50.3490   21.3627 H   0  0  0  0  0  0
    3.1026   49.1408   21.3366 H   0  0  0  0  0  0
    4.6718   50.9590   20.5263 H   0  0  0  0  0  0
    3.9002   51.3349   22.0818 H   0  0  0  0  0  0
    2.8020   47.9932   17.6312 H   0  0  0  0  0  0
    0.0910   46.7440   17.8287 H   0  0  0  0  0  0
    1.4953   45.7743   18.1123 H   0  0  0  0  0  0
    0.2938   44.4924   16.1996 H   0  0  0  0  0  0
    0.4562   44.0293   13.7875 H   0  0  0  0  0  0
    1.5123   45.6537   12.2746 H   0  0  0  0  0  0
    2.3045   48.2472   15.5958 H   0  0  0  0  0  0
    2.2501   52.6498   20.8858 H   0  0  0  0  0  0
  1  2  1  0  0  0
  1 38  1  0  0  0
  1 39  1  0  0  0
  1 40  1  0  0  0
  2  6  1  0  0  0
  2  3  2  0  0  0
  3  4  1  0  0  0
  3 17  1  0  0  0
  4  5  2  0  0  0
  5  6  1  0  0  0
  5  7  1  0  0  0
  7 12  2  0  0  0
  7  8  1  0  0  0
  8  9  2  0  0  0
  8 41  1  0  0  0
  9 10  1  0  0  0
  9 42  1  0  0  0
 10 11  2  0  0  0
 10 15  1  0  0  0
 11 12  1  0  0  0
 11 13  1  0  0  0
 12 43  1  0  0  0
 13 14  1  0  0  0
 14 44  1  0  0  0
 14 45  1  0  0  0
 14 46  1  0  0  0
 15 16  1  0  0  0
 16 47  1  0  0  0
 16 48  1  0  0  0
 16 49  1  0  0  0
 17 18  1  0  0  0
 17 50  1  0  0  0
 17 51  1  0  0  0
 18 23  1  0  0  0
 18 19  1  0  0  0
 18 68  1  0  0  0
 19 20  1  0  0  0
 19 52  1  0  0  0
 19 53  1  0  0  0
 20 21  1  0  0  0
 20 54  1  0  0  0
 20 55  1  0  0  0
 21 22  1  0  0  0
 21 24  1  0  0  0
 21 56  1  0  0  0
 22 23  1  0  0  0
 22 57  1  0  0  0
 22 58  1  0  0  0
 23 59  1  0  0  0
 23 60  1  0  0  0
 24 25  2  0  0  0
 24 26  1  0  0  0
 26 27  1  0  0  0
 26 61  1  0  0  0
 27 28  1  0  0  0
 27 62  1  0  0  0
 27 63  1  0  0  0
 28 33  2  0  0  0
 28 29  1  0  0  0
 29 30  2  0  0  0
 29 64  1  0  0  0
 30 31  1  0  0  0
 30 65  1  0  0  0
 31 32  2  0  0  0
 31 66  1  0  0  0
 32 33  1  0  0  0
 32 34  1  0  0  0
 33 67  1  0  0  0
 34 35  1  0  0  0
 34 36  1  0  0  0
 34 37  1  0  0  0
M  CHG  1  18   1
M  END
> <i_i_glide_confnum>
162

> <i_i_glide_lignum>
1105

> <i_i_glide_posenum>
36

> <i_i_glide_rotatable_bonds>
10

> <i_m_Source_File_Index>
4451

> <b_m_subgroup_collapsed>
0

> <r_i_docking_score>
-4.82515

> <r_i_glide_ecoul>
-5.40741

> <r_i_glide_eff_state_penalty>
0

> <r_i_glide_einternal>
4.05384

> <r_i_glide_emodel>
-59.5444

> <r_i_glide_energy>
-45.1818

> <r_i_glide_erotb>
0.53469

> <r_i_glide_esite>
-0.205173

> <r_i_glide_evdw>
-39.7744

> <r_i_glide_gscore>
-4.82515

> <r_i_glide_hbond>
-0.147195

> <r_i_glide_ligand_efficiency>
-0.130409

> <r_i_glide_ligand_efficiency_ln>
-1.04646

> <r_i_glide_ligand_efficiency_sa>
-0.434553

> <r_i_glide_lipo>
-2.15765

> <r_i_glide_metal>
0

> <r_i_glide_rewards>
-0.0499856

> <s_i_glide_gridfile>
wee1_glide-grid

> <s_m_Source_File>
wee1_decoys_glide_SP.sdf

> <s_m_Source_Path>
/Users/zhangxujun/Desktop

> <s_m_entry_id>
4726

> <s_m_entry_name>
wee1_decoys_glide_SP.4451

> <s_m_subgroup_title>
wee1_decoys_glide_SP

> <s_m_subgroupid>
wee1_decoys_glide_SP


$$$$
