@<TRIPOS>MOLECULE
ZINC08971869_762
67   73    1
SMALL
USER_CHARGES


@<TRIPOS>ATOM
      1 C1         -0.1535   51.4277   27.7082 C.3       1 UNK         0.0000 
      2 C2         -0.2755   50.8495   26.3102 C.ar      1 UNK         0.0000 
      3 C3         -0.8052   51.6134   25.2687 C.ar      1 UNK         0.0000 
      4 C4         -0.9343   51.0588   23.9959 C.ar      1 UNK         0.0000 
      5 C5         -0.5054   49.7469   23.7580 C.ar      1 UNK         0.0000 
      6 C6         -0.0010   48.9790   24.8105 C.ar      1 UNK         0.0000 
      7 C7          0.1268   49.5357   26.0757 C.ar      1 UNK         0.0000 
      8 C8         -0.6759   49.1059   22.4259 C.2       1 UNK         0.0000 
      9 O9         -1.3001   48.0531   22.2918 O.2       1 UNK         0.0000 
     10 C10         0.1687   49.6148   21.2273 C.3       1 UNK         0.0000 
     11 H11         0.7724   48.7331   21.0142 H         1 UNK         0.0000 
     12 C12         1.1548   50.7688   21.5047 C.3       1 UNK         0.0000 
     13 H13         0.7166   51.5918   22.0718 H         1 UNK         0.0000 
     14 C14         2.5482   50.4150   22.0323 C.3       1 UNK         0.0000 
     15 C15         3.4339   51.5207   21.4634 C.3       1 UNK         0.0000 
     16 C16         2.9329   51.7058   20.0283 C.3       1 UNK         0.0000 
     17 C17         0.6045   50.6182   19.0585 C.3       1 UNK         0.0000 
     18 C18        -0.5814   49.9601   19.8964 C.3       1 UNK         0.0000 
     19 C19        -1.3582   48.8225   19.2503 C.ar      1 UNK         0.0000 
     20 C20        -0.9789   47.5330   18.8572 C.ar      1 UNK         0.0000 
     21 C21        -1.9153   46.6791   18.2695 C.ar      1 UNK         0.0000 
     22 C22        -3.2332   47.1033   18.0825 C.ar      1 UNK         0.0000 
     23 C23        -3.6230   48.3790   18.4963 C.ar      1 UNK         0.0000 
     24 C24        -2.6736   49.2156   19.0830 C.ar      1 UNK         0.0000 
     25 N25        -2.8475   50.4825   19.6014 N.am      1 UNK         0.0000 
     26 C26        -1.7254   50.9979   20.1294 C.2       1 UNK         0.0000 
     27 O27        -1.6276   52.0965   20.6747 O.2       1 UNK         0.0000 
     28 C28         0.3041   51.4627   17.8363 C.ar      1 UNK         0.0000 
     29 C29        -0.3483   52.6889   17.6815 C.ar      1 UNK         0.0000 
     30 C30        -0.5164   53.2393   16.4080 C.ar      1 UNK         0.0000 
     31 C31        -0.0118   52.5678   15.2879 C.ar      1 UNK         0.0000 
     32 C32         0.6666   51.3521   15.4336 C.ar      1 UNK         0.0000 
     33 C33         0.8090   50.8212   16.7182 C.ar      1 UNK         0.0000 
     34 N34         1.5044   49.6922   17.1121 N.am      1 UNK         0.0000 
     35 C35         1.5251   49.5202   18.4417 C.2       1 UNK         0.0000 
     36 O36         2.1662   48.6645   19.0517 O.2       1 UNK         0.0000 
     37 C37         1.2454   50.6582   14.2111 C.3       1 UNK         0.0000 
     38 C38        -1.2149   54.5771   16.2464 C.3       1 UNK         0.0000 
     39 H39        -0.3884   52.4912   27.7384 H         1 UNK         0.0000 
     40 H40        -0.8223   50.8982   28.3877 H         1 UNK         0.0000 
     41 H41         0.8615   51.2956   28.0824 H         1 UNK         0.0000 
     42 H42        -1.1362   52.6261   25.4456 H         1 UNK         0.0000 
     43 H43        -1.3749   51.6545   23.2107 H         1 UNK         0.0000 
     44 H44         0.3018   47.9504   24.6640 H         1 UNK         0.0000 
     45 H45         0.5107   48.9218   26.8752 H         1 UNK         0.0000 
     46 H46         2.5742   50.3232   23.1194 H         1 UNK         0.0000 
     47 H47         2.8745   49.4536   21.6288 H         1 UNK         0.0000 
     48 H48         3.3196   52.4464   22.0316 H         1 UNK         0.0000 
     49 H49         4.4912   51.2532   21.4890 H         1 UNK         0.0000 
     50 H50         3.0702   52.7197   19.6492 H         1 UNK         0.0000 
     51 H51         3.4223   50.9801   19.3789 H         1 UNK         0.0000 
     52 H52         0.0303   47.1789   18.9980 H         1 UNK         0.0000 
     53 H53        -1.6180   45.6888   17.9589 H         1 UNK         0.0000 
     54 H54        -3.9562   46.4447   17.6239 H         1 UNK         0.0000 
     55 H55        -4.6478   48.6938   18.3662 H         1 UNK         0.0000 
     56 H56        -3.7349   50.9581   19.6329 H         1 UNK         0.0000 
     57 H57        -0.7224   53.2263   18.5371 H         1 UNK         0.0000 
     58 H58        -0.1300   53.0023   14.3058 H         1 UNK         0.0000 
     59 H59         2.1694   49.2045   16.5214 H         1 UNK         0.0000 
     60 H60         1.0323   51.1924   13.2839 H         1 UNK         0.0000 
     61 H61         2.3282   50.5654   14.3153 H         1 UNK         0.0000 
     62 H62         0.8403   49.6489   14.1248 H         1 UNK         0.0000 
     63 H63        -0.9937   55.2320   17.0900 H         1 UNK         0.0000 
     64 H64        -0.8707   55.0959   15.3508 H         1 UNK         0.0000 
     65 H65        -2.2942   54.4388   16.1829 H         1 UNK         0.0000 
     66 N66         1.4070   51.4262   20.1337 N.4       1 UNK         0.0000 
     67 H67         0.9525   52.3280   20.1838 H         1 UNK         0.0000 
@<TRIPOS>BOND
     1    1    2 1    
     2    1   39 1    
     3    1   40 1    
     4    1   41 1    
     5    2    7 ar   
     6    2    3 ar   
     7    3    4 ar   
     8    3   42 1    
     9    4    5 ar   
    10    4   43 1    
    11    5    6 ar   
    12    5    8 1    
    13    6    7 ar   
    14    6   44 1    
    15    7   45 1    
    16    8    9 2    
    17    8   10 1    
    18   10   11 1    
    19   10   18 1    
    20   10   12 1    
    21   12   13 1    
    22   12   14 1    
    23   12   66 1    
    24   14   15 1    
    25   14   46 1    
    26   14   47 1    
    27   15   16 1    
    28   15   48 1    
    29   15   49 1    
    30   16   50 1    
    31   16   51 1    
    32   16   66 1    
    33   17   35 1    
    34   17   18 1    
    35   17   28 1    
    36   17   66 1    
    37   18   26 1    
    38   18   19 1    
    39   19   24 ar   
    40   19   20 ar   
    41   20   21 ar   
    42   20   52 1    
    43   21   22 ar   
    44   21   53 1    
    45   22   23 ar   
    46   22   54 1    
    47   23   24 ar   
    48   23   55 1    
    49   24   25 1    
    50   25   26 am   BACKBONE|DICT|INTERRES
    51   25   56 1    
    52   26   27 2    
    53   28   33 ar   
    54   28   29 ar   
    55   29   30 ar   
    56   29   57 1    
    57   30   31 ar   
    58   30   38 1    
    59   31   32 ar   
    60   31   58 1    
    61   32   33 ar   
    62   32   37 1    
    63   33   34 1    
    64   34   35 am   BACKBONE|DICT|INTERRES
    65   34   59 1    
    66   35   36 2    
    67   37   60 1    
    68   37   61 1    
    69   37   62 1    
    70   38   63 1    
    71   38   64 1    
    72   38   65 1    
    73   66   67 1    
@<TRIPOS>SUBSTRUCTURE
     1 UNK         1 GROUP             0       ****    0 ROOT    
