@<TRIPOS>MOLECULE
ZINC49549400_1796
38   40    1
SMALL
USER_CHARGES


@<TRIPOS>ATOM
      1 C1          0.4154   52.1031   29.5011 C.3       1 UNK         0.0000 
      2 C2          1.6470   52.9623   29.8572 C.3       1 UNK         0.0000 
      3 H3          1.2959   53.9043   30.2812 H         1 UNK         0.0000 
      4 C4          2.5650   53.3390   28.6810 C.ar      1 UNK         0.0000 
      5 C5          3.8906   53.7251   28.9227 C.ar      1 UNK         0.0000 
      6 C6          4.7289   54.0977   27.8734 C.ar      1 UNK         0.0000 
      7 C7          4.2439   54.0966   26.5578 C.ar      1 UNK         0.0000 
      8 C8          2.9248   53.7145   26.3141 C.ar      1 UNK         0.0000 
      9 C9          2.0911   53.3431   27.3637 C.ar      1 UNK         0.0000 
     10 N10         4.9900   54.4444   25.4174 N.am      1 UNK         0.0000 
     11 C11         6.2923   54.7711   25.2826 C.2       1 UNK         0.0000 
     12 O12         7.0785   54.8978   26.2175 O.2       1 UNK         0.0000 
     13 N13         6.7286   55.0339   24.0317 N.am      1 UNK         0.0000 
     14 C14         6.1724   54.7679   22.7829 C.2       1 UNK         0.0000 
     15 N15         6.7041   55.2970   21.7018 N.2       1 UNK         0.0000 
     16 C16         6.0472   54.9154   20.6249 C.2       1 UNK         0.0000 
     17 C17         4.9994   54.0494   20.8012 C.2       1 UNK         0.0000 
     18 S18         4.8089   53.6967   22.4822 S.3       1 UNK         0.0000 
     19 C19         4.3553   53.6183   19.5171 C.3       1 UNK         0.0000 
     20 C20         5.0098   54.5882   18.5109 C.3       1 UNK         0.0000 
     21 C21         6.2549   55.2283   19.1683 C.3       1 UNK         0.0000 
     22 O22         2.3255   52.2761   30.8914 O.3       1 UNK         0.0000 
     23 H23        -0.2673   52.6310   28.8357 H         1 UNK         0.0000 
     24 H24         0.7050   51.1710   29.0145 H         1 UNK         0.0000 
     25 H25        -0.1656   51.8432   30.3886 H         1 UNK         0.0000 
     26 H26         4.2805   53.7369   29.9299 H         1 UNK         0.0000 
     27 H27         5.7406   54.3849   28.1109 H         1 UNK         0.0000 
     28 H28         2.5323   53.7020   25.3077 H         1 UNK         0.0000 
     29 H29         1.0764   53.0606   27.1311 H         1 UNK         0.0000 
     30 H30         4.4695   54.4014   24.5559 H         1 UNK         0.0000 
     31 H31         3.2697   53.7250   19.5195 H         1 UNK         0.0000 
     32 H32         4.5823   52.5780   19.2755 H         1 UNK         0.0000 
     33 H33         4.2940   55.3740   18.2615 H         1 UNK         0.0000 
     34 H34         5.2567   54.0894   17.5726 H         1 UNK         0.0000 
     35 H35         7.1783   54.7902   18.7869 H         1 UNK         0.0000 
     36 H36         6.2945   56.2985   18.9624 H         1 UNK         0.0000 
     37 H37         1.6915   52.0964   31.5921 H         1 UNK         0.0000 
     38 H38         7.6500   55.4494   23.9896 H         1 UNK         0.0000 
@<TRIPOS>BOND
     1    1    2 1    
     2    1   23 1    
     3    1   24 1    
     4    1   25 1    
     5    2    3 1    
     6    2    4 1    
     7    2   22 1    
     8    4    9 ar   
     9    4    5 ar   
    10    5    6 ar   
    11    5   26 1    
    12    6    7 ar   
    13    6   27 1    
    14    7    8 ar   
    15    7   10 1    
    16    8    9 ar   
    17    8   28 1    
    18    9   29 1    
    19   10   11 am   BACKBONE|DICT|INTERRES
    20   10   30 1    
    21   11   12 2    
    22   11   13 am   BACKBONE|DICT|INTERRES
    23   13   14 am   BACKBONE|DICT|INTERRES
    24   13   38 1    
    25   14   18 1    
    26   14   15 2    
    27   15   16 1    
    28   16   21 1    
    29   16   17 2    
    30   17   18 1    
    31   17   19 1    
    32   19   20 1    
    33   19   31 1    
    34   19   32 1    
    35   20   21 1    
    36   20   33 1    
    37   20   34 1    
    38   21   35 1    
    39   21   36 1    
    40   22   37 1    
@<TRIPOS>SUBSTRUCTURE
     1 UNK         1 GROUP             0       ****    0 ROOT    
