@<TRIPOS>MOLECULE
ZINC40826839_5462
74   78    1
SMALL
USER_CHARGES


@<TRIPOS>ATOM
      1 C1         10.7495   54.4182   13.1696 C.3       1 UNK         0.0000 
      2 C2          9.5339   54.4682   14.0733 C.ar      1 UNK         0.0000 
      3 C3          9.2562   53.3879   14.9159 C.ar      1 UNK         0.0000 
      4 C4          8.1462   53.3701   15.7705 C.ar      1 UNK         0.0000 
      5 C5          7.2917   54.4940   15.7766 C.ar      1 UNK         0.0000 
      6 C6          7.6018   55.5795   14.9183 C.ar      1 UNK         0.0000 
      7 C7          8.7076   55.5933   14.0643 C.ar      1 UNK         0.0000 
      8 O8          6.6848   56.5785   15.0311 O.3       1 UNK         0.0000 
      9 C9          5.7840   56.1476   15.9534 C.2       1 UNK         0.0000 
     10 C10         6.0811   54.8868   16.4597 C.2       1 UNK         0.0000 
     11 C11         5.2831   54.1054   17.4926 C.3       1 UNK         0.0000 
     12 C12         5.7082   54.3436   18.9519 C.2       1 UNK         0.0000 
     13 O13         6.7929   54.8684   19.2259 O.2       1 UNK         0.0000 
     14 N14         4.8084   53.9374   19.8698 N.am      1 UNK         0.0000 
     15 N15         4.9486   54.1396   21.1977 N.2       1 UNK         0.0000 
     16 C16         3.9967   53.6963   21.9218 C.2       1 UNK         0.0000 
     17 C17         2.7384   52.8940   21.4696 C.3       1 UNK         0.0000 
     18 C18         1.4923   53.2075   22.3322 C.3       1 UNK         0.0000 
     19 C19         1.6912   52.9039   23.8260 C.3       1 UNK         0.0000 
     20 C20         3.0244   53.5078   24.2059 C.2       1 UNK         0.0000 
     21 C21         4.0801   53.8817   23.3891 C.2       1 UNK         0.0000 
     22 C22         5.1065   54.3616   24.2470 C.2       1 UNK         0.0000 
     23 C23         4.5778   54.2563   25.5551 C.2       1 UNK         0.0000 
     24 O24         3.3438   53.6966   25.4955 O.3       1 UNK         0.0000 
     25 C25         5.2017   54.4972   26.8536 C.2       1 UNK         0.0000 
     26 O26         6.4083   54.7458   26.8655 O.2       1 UNK         0.0000 
     27 N27         4.4614   54.4769   28.0133 N.am      1 UNK         0.0000 
     28 C28         5.1588   54.6895   29.2879 C.3       1 UNK         0.0000 
     29 C29         3.0327   54.1146   28.2014 C.3       1 UNK         0.0000 
     30 C30         2.8401   52.5796   28.3266 C.3       1 UNK         0.0000 
     31 C31         1.4051   52.1050   28.6014 C.3       1 UNK         0.0000 
     32 N32         0.8622   52.8817   29.8171 N.4       1 UNK         0.0000 
     33 C33         0.7985   54.3871   29.4837 C.3       1 UNK         0.0000 
     34 C34         2.2391   54.8988   29.2825 C.3       1 UNK         0.0000 
     35 C35        -0.5471   52.3555   30.1746 C.3       1 UNK         0.0000 
     36 C36         6.4561   54.9402   23.8403 C.3       1 UNK         0.0000 
     37 C37         7.9159   52.1483   16.6430 C.3       1 UNK         0.0000 
     38 H38        10.5583   53.7740   12.3095 H         1 UNK         0.0000 
     39 H39        11.0359   55.4104   12.8158 H         1 UNK         0.0000 
     40 H40        11.6087   54.0116   13.7068 H         1 UNK         0.0000 
     41 H41         9.9191   52.5351   14.8971 H         1 UNK         0.0000 
     42 H42         8.9065   56.4399   13.4244 H         1 UNK         0.0000 
     43 H43         4.9786   56.8389   16.1581 H         1 UNK         0.0000 
     44 H44         4.2308   54.3755   17.4033 H         1 UNK         0.0000 
     45 H45         5.3186   53.0349   17.2919 H         1 UNK         0.0000 
     46 H46         3.9519   53.4866   19.5849 H         1 UNK         0.0000 
     47 H47         2.4947   53.1110   20.4299 H         1 UNK         0.0000 
     48 H48         2.9665   51.8281   21.5079 H         1 UNK         0.0000 
     49 H49         1.2349   54.2597   22.2178 H         1 UNK         0.0000 
     50 H50         0.6335   52.6543   21.9547 H         1 UNK         0.0000 
     51 H51         0.8756   53.3404   24.4041 H         1 UNK         0.0000 
     52 H52         1.6876   51.8287   24.0067 H         1 UNK         0.0000 
     53 H53         6.2354   54.5075   29.2422 H         1 UNK         0.0000 
     54 H54         5.0001   55.6963   29.6786 H         1 UNK         0.0000 
     55 H55         4.7625   54.0002   30.0312 H         1 UNK         0.0000 
     56 H56         2.4751   54.4206   27.3175 H         1 UNK         0.0000 
     57 H57         3.1716   52.0980   27.4104 H         1 UNK         0.0000 
     58 H58         3.4787   52.1970   29.1210 H         1 UNK         0.0000 
     59 H59         0.7345   52.2741   27.7573 H         1 UNK         0.0000 
     60 H60         1.3936   51.0433   28.8668 H         1 UNK         0.0000 
     61 H61         0.1836   54.4968   28.5890 H         1 UNK         0.0000 
     62 H62         0.3203   54.8884   30.3284 H         1 UNK         0.0000 
     63 H63         2.7385   54.8276   30.2429 H         1 UNK         0.0000 
     64 H64         2.2086   55.9583   29.0212 H         1 UNK         0.0000 
     65 H65        -1.2087   52.4949   29.3194 H         1 UNK         0.0000 
     66 H66        -0.4708   51.2970   30.4151 H         1 UNK         0.0000 
     67 H67        -0.8912   52.8970   31.0586 H         1 UNK         0.0000 
     68 H68         6.8467   55.6576   24.5594 H         1 UNK         0.0000 
     69 H69         7.2059   54.1617   23.6989 H         1 UNK         0.0000 
     70 H70         6.4024   55.5018   22.9065 H         1 UNK         0.0000 
     71 H71         7.7999   52.4520   17.6818 H         1 UNK         0.0000 
     72 H72         8.7380   51.4345   16.5941 H         1 UNK         0.0000 
     73 H73         6.9977   51.6450   16.3420 H         1 UNK         0.0000 
     74 H74         1.4534   52.7316   30.6224 H         1 UNK         0.0000 
@<TRIPOS>BOND
     1    1    2 1    
     2    1   38 1    
     3    1   39 1    
     4    1   40 1    
     5    2    7 ar   
     6    2    3 ar   
     7    3    4 ar   
     8    3   41 1    
     9    4    5 ar   
    10    4   37 1    
    11    5   10 1    
    12    5    6 ar   
    13    6    7 ar   
    14    6    8 1    
    15    7   42 1    
    16    8    9 1    
    17    9   10 2    
    18    9   43 1    
    19   10   11 1    
    20   11   12 1    
    21   11   44 1    
    22   11   45 1    
    23   12   13 2    
    24   12   14 am   BACKBONE|DICT|INTERRES
    25   14   15 1    
    26   14   46 1    
    27   15   16 2    
    28   16   21 1    
    29   16   17 1    
    30   17   18 1    
    31   17   47 1    
    32   17   48 1    
    33   18   19 1    
    34   18   49 1    
    35   18   50 1    
    36   19   20 1    
    37   19   51 1    
    38   19   52 1    
    39   20   24 1    
    40   20   21 2    
    41   21   22 1    
    42   22   23 2    
    43   22   36 1    
    44   23   24 1    
    45   23   25 1    
    46   25   26 2    
    47   25   27 am   BACKBONE|DICT|INTERRES
    48   27   28 1    
    49   27   29 1    
    50   28   53 1    
    51   28   54 1    
    52   28   55 1    
    53   29   34 1    
    54   29   30 1    
    55   29   56 1    
    56   30   31 1    
    57   30   57 1    
    58   30   58 1    
    59   31   32 1    
    60   31   59 1    
    61   31   60 1    
    62   32   33 1    
    63   32   35 1    
    64   32   74 1    
    65   33   34 1    
    66   33   61 1    
    67   33   62 1    
    68   34   63 1    
    69   34   64 1    
    70   35   65 1    
    71   35   66 1    
    72   35   67 1    
    73   36   68 1    
    74   36   69 1    
    75   36   70 1    
    76   37   71 1    
    77   37   72 1    
    78   37   73 1    
@<TRIPOS>SUBSTRUCTURE
     1 UNK         1 GROUP             0       ****    0 ROOT    
