@<TRIPOS>MOLECULE
ZINC03113462_2962
40   41    1
SMALL
USER_CHARGES


@<TRIPOS>ATOM
      1 C1          6.9583   53.7249   23.9073 C.3       1 UNK         0.0000 
      2 O2          6.1144   54.7876   24.3363 O.3       1 UNK         0.0000 
      3 C3          5.1040   54.4135   25.1947 C.ar      1 UNK         0.0000 
      4 C4          3.8229   54.0261   24.7245 C.ar      1 UNK         0.0000 
      5 C5          2.8383   53.7027   25.6712 C.ar      1 UNK         0.0000 
      6 C6          3.1036   53.7551   27.0379 C.ar      1 UNK         0.0000 
      7 C7          4.3694   54.1141   27.4868 C.ar      1 UNK         0.0000 
      8 C8          5.3662   54.4409   26.5723 C.ar      1 UNK         0.0000 
      9 Br9         7.0957   54.8965   27.2297 Br        1 UNK         0.0000 
     10 Br10        1.7376   53.3248   28.2909 Br        1 UNK         0.0000 
     11 C11         3.4653   53.8715   23.2999 C.2       1 UNK         0.0000 
     12 N12         4.2814   54.0972   22.3447 N.2       1 UNK         0.0000 
     13 N13         4.0361   53.7731   21.0326 N.am      1 UNK         0.0000 
     14 C14         3.1064   52.9866   20.4272 C.2       1 UNK         0.0000 
     15 O15         2.1290   52.4923   20.9924 O.2       1 UNK         0.0000 
     16 C16         3.2638   52.7461   18.9054 C.3       1 UNK         0.0000 
     17 N17         4.6420   52.8967   18.4063 N.am      1 UNK         0.0000 
     18 C18         5.3153   54.0497   18.2279 C.2       1 UNK         0.0000 
     19 O19         4.8126   55.1524   18.4496 O.2       1 UNK         0.0000 
     20 C20         6.7748   53.9282   17.8600 C.ar      1 UNK         0.0000 
     21 C21         7.6829   54.8964   18.3133 C.ar      1 UNK         0.0000 
     22 C22         9.0414   54.7776   18.0309 C.ar      1 UNK         0.0000 
     23 C23         9.4989   53.6967   17.2817 C.ar      1 UNK         0.0000 
     24 C24         8.6068   52.7381   16.8069 C.ar      1 UNK         0.0000 
     25 C25         7.2483   52.8548   17.0915 C.ar      1 UNK         0.0000 
     26 Cl26       11.1852   53.5394   16.9512 Cl        1 UNK         0.0000 
     27 H27         7.6815   54.1009   23.1859 H         1 UNK         0.0000 
     28 H28         7.5041   53.2968   24.7456 H         1 UNK         0.0000 
     29 H29         6.4018   52.9293   23.4098 H         1 UNK         0.0000 
     30 H30         1.8493   53.3974   25.3572 H         1 UNK         0.0000 
     31 H31         4.5805   54.1401   28.5456 H         1 UNK         0.0000 
     32 H32         2.4486   53.5319   23.1266 H         1 UNK         0.0000 
     33 H33         4.7627   54.1150   20.4204 H         1 UNK         0.0000 
     34 H34         2.6125   53.4464   18.3800 H         1 UNK         0.0000 
     35 H35         2.9090   51.7448   18.6572 H         1 UNK         0.0000 
     36 H36         5.1043   52.0008   18.2068 H         1 UNK         0.0000 
     37 H37         7.3449   55.7373   18.9032 H         1 UNK         0.0000 
     38 H38         9.7396   55.5153   18.4005 H         1 UNK         0.0000 
     39 H39         8.9672   51.9009   16.2270 H         1 UNK         0.0000 
     40 H40         6.5739   52.0966   16.7183 H         1 UNK         0.0000 
@<TRIPOS>BOND
     1    1    2 1    
     2    1   27 1    
     3    1   28 1    
     4    1   29 1    
     5    2    3 1    
     6    3    8 ar   
     7    3    4 ar   
     8    4    5 ar   
     9    4   11 1    
    10    5    6 ar   
    11    5   30 1    
    12    6    7 ar   
    13    6   10 1    
    14    7    8 ar   
    15    7   31 1    
    16    8    9 1    
    17   11   12 2    
    18   11   32 1    
    19   12   13 1    
    20   13   14 am   BACKBONE|DICT|INTERRES
    21   13   33 1    
    22   14   15 2    
    23   14   16 1    
    24   16   17 1    
    25   16   34 1    
    26   16   35 1    
    27   17   18 am   BACKBONE|DICT|INTERRES
    28   17   36 1    
    29   18   19 2    
    30   18   20 1    
    31   20   25 ar   
    32   20   21 ar   
    33   21   22 ar   
    34   21   37 1    
    35   22   23 ar   
    36   22   38 1    
    37   23   24 ar   
    38   23   26 1    
    39   24   25 ar   
    40   24   39 1    
    41   25   40 1    
@<TRIPOS>SUBSTRUCTURE
     1 UNK         1 GROUP             0       ****    0 ROOT    
