@<TRIPOS>MOLECULE
ZINC35955602_4340
66   69    1
SMALL
USER_CHARGES


@<TRIPOS>ATOM
      1 C1         -6.5120   51.3798   25.0245 C.3       1 UNK         0.0000 
      2 C2         -6.1470   50.3644   26.1055 C.ar      1 UNK         0.0000 
      3 C3         -7.0747   49.3531   26.3788 C.ar      1 UNK         0.0000 
      4 C4         -6.8018   48.3700   27.3279 C.ar      1 UNK         0.0000 
      5 C5         -5.5945   48.3879   28.0161 C.ar      1 UNK         0.0000 
      6 C6         -4.6613   49.3875   27.7595 C.ar      1 UNK         0.0000 
      7 C7         -4.9144   50.3910   26.8046 C.ar      1 UNK         0.0000 
      8 C8         -3.8789   51.4707   26.5745 C.2       1 UNK         0.0000 
      9 O9         -4.1971   52.6348   26.3231 O.2       1 UNK         0.0000 
     10 N10        -2.5977   51.0750   26.6713 N.am      1 UNK         0.0000 
     11 C11        -1.4247   51.9242   26.4483 C.3       1 UNK         0.0000 
     12 H12        -1.6344   52.8639   26.9648 H         1 UNK         0.0000 
     13 C13        -1.1509   52.2507   24.9535 C.3       1 UNK         0.0000 
     14 C14        -0.6856   51.0116   24.1588 C.3       1 UNK         0.0000 
     15 C15         0.5436   50.3530   24.8182 C.3       1 UNK         0.0000 
     16 C16         0.2832   50.0513   26.3110 C.3       1 UNK         0.0000 
     17 C17        -0.1599   51.3084   27.1076 C.3       1 UNK         0.0000 
     18 H18        -0.4451   50.9881   28.1150 H         1 UNK         0.0000 
     19 N19         0.8945   52.3157   27.2733 N.am      1 UNK         0.0000 
     20 C20         1.9023   52.2338   28.1557 C.2       1 UNK         0.0000 
     21 O21         2.0264   51.2970   28.9421 O.2       1 UNK         0.0000 
     22 C22         2.9284   53.3758   28.1444 C.3       1 UNK         0.0000 
     23 H23         2.4176   54.2578   27.7555 H         1 UNK         0.0000 
     24 C24         3.4224   53.6664   29.5756 C.3       1 UNK         0.0000 
     25 C25         4.5021   54.7519   29.4967 C.3       1 UNK         0.0000 
     26 C26         5.6568   54.4236   28.5217 C.3       1 UNK         0.0000 
     27 N27         5.0567   54.0918   27.2148 N.am      1 UNK         0.0000 
     28 C28         4.1172   52.9529   27.2548 C.3       1 UNK         0.0000 
     29 C29         5.5888   54.6043   26.0656 C.2       1 UNK         0.0000 
     30 O30         6.6114   55.2984   26.0711 O.2       1 UNK         0.0000 
     31 C31         4.8887   54.3615   24.7401 C.ar      1 UNK         0.0000 
     32 C32         3.4878   54.4214   24.6348 C.ar      1 UNK         0.0000 
     33 C33         2.8431   54.1664   23.4248 C.ar      1 UNK         0.0000 
     34 C34         3.5915   53.8859   22.2861 C.ar      1 UNK         0.0000 
     35 C35         4.9810   53.8530   22.3613 C.ar      1 UNK         0.0000 
     36 C36         5.6329   54.0877   23.5754 C.ar      1 UNK         0.0000 
     37 F37         6.9846   54.0102   23.6056 F         1 UNK         0.0000 
     38 H38        -5.6901   51.4992   24.3165 H         1 UNK         0.0000 
     39 H39        -7.3832   51.0729   24.4446 H         1 UNK         0.0000 
     40 H40        -6.7150   52.3538   25.4696 H         1 UNK         0.0000 
     41 H41        -8.0162   49.3209   25.8514 H         1 UNK         0.0000 
     42 H42        -7.5297   47.5953   27.5277 H         1 UNK         0.0000 
     43 H43        -5.3766   47.6289   28.7539 H         1 UNK         0.0000 
     44 H44        -3.7356   49.3660   28.3216 H         1 UNK         0.0000 
     45 H45        -2.4176   50.0916   26.8299 H         1 UNK         0.0000 
     46 H46        -2.0449   52.6732   24.4910 H         1 UNK         0.0000 
     47 H47        -0.3937   53.0316   24.8807 H         1 UNK         0.0000 
     48 H48        -0.4568   51.2885   23.1289 H         1 UNK         0.0000 
     49 H49        -1.5012   50.2882   24.1039 H         1 UNK         0.0000 
     50 H50         1.4041   51.0149   24.7156 H         1 UNK         0.0000 
     51 H51         0.8053   49.4333   24.2921 H         1 UNK         0.0000 
     52 H52         1.1658   49.6076   26.7709 H         1 UNK         0.0000 
     53 H53        -0.4833   49.2792   26.3934 H         1 UNK         0.0000 
     54 H54         0.9224   53.0502   26.5830 H         1 UNK         0.0000 
     55 H55         2.6132   54.0406   30.2057 H         1 UNK         0.0000 
     56 H56         3.9123   52.7965   30.0203 H         1 UNK         0.0000 
     57 H57         4.0337   55.6950   29.2248 H         1 UNK         0.0000 
     58 H58         4.9295   54.8966   30.4815 H         1 UNK         0.0000 
     59 H59         6.3047   55.2966   28.4729 H         1 UNK         0.0000 
     60 H60         6.2270   53.5653   28.8815 H         1 UNK         0.0000 
     61 H61         4.6344   52.1014   27.6980 H         1 UNK         0.0000 
     62 H62         3.7728   52.6421   26.2693 H         1 UNK         0.0000 
     63 H63         2.8808   54.6537   25.4970 H         1 UNK         0.0000 
     64 H64         1.7646   54.1988   23.3682 H         1 UNK         0.0000 
     65 H65         3.0944   53.7019   21.3423 H         1 UNK         0.0000 
     66 H66         5.5580   53.6368   21.4757 H         1 UNK         0.0000 
@<TRIPOS>BOND
     1    1    2 1    
     2    1   38 1    
     3    1   39 1    
     4    1   40 1    
     5    2    7 ar   
     6    2    3 ar   
     7    3    4 ar   
     8    3   41 1    
     9    4    5 ar   
    10    4   42 1    
    11    5    6 ar   
    12    5   43 1    
    13    6    7 ar   
    14    6   44 1    
    15    7    8 1    
    16    8    9 2    
    17    8   10 am   BACKBONE|DICT|INTERRES
    18   10   11 1    
    19   10   45 1    
    20   11   12 1    
    21   11   17 1    
    22   11   13 1    
    23   13   14 1    
    24   13   46 1    
    25   13   47 1    
    26   14   15 1    
    27   14   48 1    
    28   14   49 1    
    29   15   16 1    
    30   15   50 1    
    31   15   51 1    
    32   16   17 1    
    33   16   52 1    
    34   16   53 1    
    35   17   18 1    
    36   17   19 1    
    37   19   20 am   BACKBONE|DICT|INTERRES
    38   19   54 1    
    39   20   21 2    
    40   20   22 1    
    41   22   23 1    
    42   22   28 1    
    43   22   24 1    
    44   24   25 1    
    45   24   55 1    
    46   24   56 1    
    47   25   26 1    
    48   25   57 1    
    49   25   58 1    
    50   26   27 1    
    51   26   59 1    
    52   26   60 1    
    53   27   28 1    
    54   27   29 am   BACKBONE|DICT|INTERRES
    55   28   61 1    
    56   28   62 1    
    57   29   30 2    
    58   29   31 1    
    59   31   36 ar   
    60   31   32 ar   
    61   32   33 ar   
    62   32   63 1    
    63   33   34 ar   
    64   33   64 1    
    65   34   35 ar   
    66   34   65 1    
    67   35   36 ar   
    68   35   66 1    
    69   36   37 1    
@<TRIPOS>SUBSTRUCTURE
     1 UNK         1 GROUP             0       ****    0 ROOT    
