@<TRIPOS>MOLECULE
ZINC16401803_4879
52   54    1
SMALL
USER_CHARGES


@<TRIPOS>ATOM
      1 C1          3.9447   54.0164   23.7833 C.ar      1 UNK         0.0000 
      2 C2          4.1818   54.1872   22.4221 C.ar      1 UNK         0.0000 
      3 C3          5.4659   54.4966   21.9807 C.ar      1 UNK         0.0000 
      4 C4          6.5153   54.6215   22.8864 C.ar      1 UNK         0.0000 
      5 C5          6.2823   54.4333   24.2456 C.ar      1 UNK         0.0000 
      6 C6          4.9971   54.1230   24.7024 C.ar      1 UNK         0.0000 
      7 C7          4.7868   53.8822   26.1981 C.3       1 UNK         0.0000 
      8 O8          3.4386   53.5120   26.4807 O.3       1 UNK         0.0000 
      9 C9          3.0698   53.1668   27.7685 C.ar      1 UNK         0.0000 
     10 C10         3.9603   53.1128   28.8549 C.ar      1 UNK         0.0000 
     11 C11         3.5049   52.7731   30.1297 C.ar      1 UNK         0.0000 
     12 C12         2.1549   52.4975   30.3377 C.ar      1 UNK         0.0000 
     13 C13         1.2674   52.5308   29.2690 C.ar      1 UNK         0.0000 
     14 C14         1.7206   52.8493   27.9868 C.ar      1 UNK         0.0000 
     15 C15         0.7148   52.8960   26.8473 C.3       1 UNK         0.0000 
     16 C16         0.3448   50.3318   26.7224 C.3       1 UNK         0.0000 
     17 C17        -0.0441   49.1943   25.7552 C.3       1 UNK         0.0000 
     18 N18         0.7044   49.1702   24.4961 N.pl3     1 UNK         0.0000 
     19 C19         0.2590   49.7934   23.3177 C.ar      1 UNK         0.0000 
     20 C20        -0.9755   50.4475   23.2200 C.ar      1 UNK         0.0000 
     21 C21        -1.3698   51.0319   22.0228 C.ar      1 UNK         0.0000 
     22 C22        -0.5321   50.9895   20.9020 C.ar      1 UNK         0.0000 
     23 C23         0.7119   50.3491   21.0063 C.ar      1 UNK         0.0000 
     24 C24         1.0987   49.7528   22.2060 C.ar      1 UNK         0.0000 
     25 N25        -0.9657   51.6072   19.6263 N.pl3     1 UNK         0.0000 
     26 O26        -0.1873   51.6061   18.6802 O.co2     1 UNK         0.0000 
     27 O27        -2.0925   52.0972   19.5690 O.co2     1 UNK         0.0000 
     28 Br28        1.5042   52.0967   32.0778 Br        1 UNK         0.0000 
     29 F29         5.6944   54.6849   20.6598 F         1 UNK         0.0000 
     30 H30         2.9444   53.7812   24.1128 H         1 UNK         0.0000 
     31 H31         3.3735   54.1004   21.7086 H         1 UNK         0.0000 
     32 H32         7.5059   54.8645   22.5320 H         1 UNK         0.0000 
     33 H33         7.1069   54.5152   24.9385 H         1 UNK         0.0000 
     34 H34         5.0463   54.7942   26.7400 H         1 UNK         0.0000 
     35 H35         5.4688   53.0886   26.5093 H         1 UNK         0.0000 
     36 H36         5.0080   53.3385   28.7290 H         1 UNK         0.0000 
     37 H37         4.1998   52.7346   30.9557 H         1 UNK         0.0000 
     38 H38         0.2257   52.3048   29.4466 H         1 UNK         0.0000 
     39 H39         0.9682   53.6965   26.1496 H         1 UNK         0.0000 
     40 H40        -0.3109   53.0200   27.2047 H         1 UNK         0.0000 
     41 H41        -0.4643   50.5428   27.4248 H         1 UNK         0.0000 
     42 H42         1.2511   50.0965   27.2818 H         1 UNK         0.0000 
     43 H43        -1.1167   49.2246   25.5741 H         1 UNK         0.0000 
     44 H44         0.0770   48.2360   26.2550 H         1 UNK         0.0000 
     45 H45         1.6148   48.7075   24.4899 H         1 UNK         0.0000 
     46 H46        -1.6575   50.5012   24.0537 H         1 UNK         0.0000 
     47 H47        -2.3359   51.5136   21.9742 H         1 UNK         0.0000 
     48 H48         1.3825   50.3011   20.1611 H         1 UNK         0.0000 
     49 H49         2.0574   49.2558   22.2645 H         1 UNK         0.0000 
     50 N50         0.6684   51.6384   25.9694 N.4       1 UNK         0.0000 
     51 H51         1.5538   51.5211   25.4996 H         1 UNK         0.0000 
     52 H52        -0.0267   51.7600   25.2467 H         1 UNK         0.0000 
@<TRIPOS>BOND
     1    1    6 ar   
     2    1    2 ar   
     3    1   30 1    
     4    2    3 ar   
     5    2   31 1    
     6    3    4 ar   
     7    3   29 1    
     8    4    5 ar   
     9    4   32 1    
    10    5    6 ar   
    11    5   33 1    
    12    6    7 1    
    13    7    8 1    
    14    7   34 1    
    15    7   35 1    
    16    8    9 1    
    17    9   14 ar   
    18    9   10 ar   
    19   10   11 ar   
    20   10   36 1    
    21   11   12 ar   
    22   11   37 1    
    23   12   13 ar   
    24   12   28 1    
    25   13   14 ar   
    26   13   38 1    
    27   14   15 1    
    28   15   39 1    
    29   15   40 1    
    30   15   50 1    
    31   16   17 1    
    32   16   41 1    
    33   16   42 1    
    34   16   50 1    
    35   17   18 1    
    36   17   43 1    
    37   17   44 1    
    38   18   19 1    
    39   18   45 1    
    40   19   24 ar   
    41   19   20 ar   
    42   20   21 ar   
    43   20   46 1    
    44   21   22 ar   
    45   21   47 1    
    46   22   23 ar   
    47   22   25 1    
    48   23   24 ar   
    49   23   48 1    
    50   24   49 1    
    51   25   26 2    
    52   25   27 1    
    53   50   51 1    
    54   50   52 1    
@<TRIPOS>SUBSTRUCTURE
     1 UNK         1 GROUP             0       ****    0 ROOT    
