@<TRIPOS>MOLECULE
ZINC20572300_975
48   51    1
SMALL
USER_CHARGES


@<TRIPOS>ATOM
      1 C1         -1.6447   51.9863   26.7867 C.3       1 UNK         0.0000 
      2 C2         -0.1777   51.5509   26.9918 C.3       1 UNK         0.0000 
      3 H3         -0.1210   50.4876   26.7436 H         1 UNK         0.0000 
      4 C4          0.2137   51.6972   28.4781 C.3       1 UNK         0.0000 
      5 C5          1.7073   51.4923   28.6676 C.3       1 UNK         0.0000 
      6 C6          2.4207   52.5265   27.8327 C.ar      1 UNK         0.0000 
      7 C7          3.5896   53.1307   28.3124 C.ar      1 UNK         0.0000 
      8 C8          4.2555   54.0935   27.5640 C.ar      1 UNK         0.0000 
      9 C9          3.7285   54.4964   26.3460 C.ar      1 UNK         0.0000 
     10 C10         2.5500   53.9221   25.8766 C.ar      1 UNK         0.0000 
     11 C11         1.9031   52.8947   26.5662 C.ar      1 UNK         0.0000 
     12 N12         0.7319   52.2523   26.0409 N.pl3     1 UNK         0.0000 
     13 S13         0.2639   52.1740   24.2787 S.o2      1 UNK         0.0000 
     14 O14        -0.2338   50.8105   24.0608 O.2       1 UNK         0.0000 
     15 O15        -0.6323   53.3145   24.0719 O.2       1 UNK         0.0000 
     16 C16         1.6470   52.3753   23.1281 C.ar      1 UNK         0.0000 
     17 C17         2.0162   53.6480   22.7021 C.ar      1 UNK         0.0000 
     18 C18         3.1042   53.8214   21.8590 C.ar      1 UNK         0.0000 
     19 C19         3.8106   52.7373   21.3285 C.ar      1 UNK         0.0000 
     20 C20         3.3610   51.4585   21.6816 C.ar      1 UNK         0.0000 
     21 C21         2.3044   51.2701   22.5836 C.ar      1 UNK         0.0000 
     22 N22         4.8876   52.8412   20.4768 N.2       1 UNK         0.0000 
     23 S23         5.4725   54.1938   19.9114 S.o2      1 UNK         0.0000 
     24 O24         5.5049   55.2975   20.8778 O.2       1 UNK         0.0000 
     25 O25         6.6911   54.0136   19.1172 O.2       1 UNK         0.0000 
     26 C26         4.3086   54.7452   18.6396 C.2       1 UNK         0.0000 
     27 C27         4.2956   56.0177   18.0816 C.2       1 UNK         0.0000 
     28 C28         3.3196   56.1610   17.0903 C.2       1 UNK         0.0000 
     29 C29         2.5957   54.9951   16.8761 C.2       1 UNK         0.0000 
     30 S30         3.1405   53.6967   17.8894 S.3       1 UNK         0.0000 
     31 Cl31        1.3054   54.7481   15.7683 Cl        1 UNK         0.0000 
     32 F32         5.3954   54.6503   28.0292 F         1 UNK         0.0000 
     33 H33        -2.2963   51.5224   27.5278 H         1 UNK         0.0000 
     34 H34        -1.7553   53.0673   26.8793 H         1 UNK         0.0000 
     35 H35        -2.0341   51.6959   25.8120 H         1 UNK         0.0000 
     36 H36        -0.0835   52.6769   28.8570 H         1 UNK         0.0000 
     37 H37        -0.3424   50.9724   29.0750 H         1 UNK         0.0000 
     38 H38         1.9942   50.4967   28.3365 H         1 UNK         0.0000 
     39 H39         1.9698   51.5788   29.7212 H         1 UNK         0.0000 
     40 H40         3.9971   52.8404   29.2686 H         1 UNK         0.0000 
     41 H41         4.2164   55.2755   25.7787 H         1 UNK         0.0000 
     42 H42         2.1179   54.3359   24.9931 H         1 UNK         0.0000 
     43 H43         1.4674   54.5217   23.0198 H         1 UNK         0.0000 
     44 H44         3.3389   54.8361   21.5893 H         1 UNK         0.0000 
     45 H45         3.8594   50.5920   21.2717 H         1 UNK         0.0000 
     46 H46         2.0119   50.2672   22.8594 H         1 UNK         0.0000 
     47 H47         4.9650   56.8092   18.3887 H         1 UNK         0.0000 
     48 H48         3.1462   57.0818   16.5524 H         1 UNK         0.0000 
@<TRIPOS>BOND
     1    1    2 1    
     2    1   33 1    
     3    1   34 1    
     4    1   35 1    
     5    2    3 1    
     6    2   12 1    
     7    2    4 1    
     8    4    5 1    
     9    4   36 1    
    10    4   37 1    
    11    5    6 1    
    12    5   38 1    
    13    5   39 1    
    14    6   11 ar   
    15    6    7 ar   
    16    7    8 ar   
    17    7   40 1    
    18    8    9 ar   
    19    8   32 1    
    20    9   10 ar   
    21    9   41 1    
    22   10   11 ar   
    23   10   42 1    
    24   11   12 1    
    25   12   13 1    
    26   13   14 2    
    27   13   15 2    
    28   13   16 1    
    29   16   21 ar   
    30   16   17 ar   
    31   17   18 ar   
    32   17   43 1    
    33   18   19 ar   
    34   18   44 1    
    35   19   20 ar   
    36   19   22 1    
    37   20   21 ar   
    38   20   45 1    
    39   21   46 1    
    40   22   23 1    
    41   23   24 2    
    42   23   25 2    
    43   23   26 1    
    44   26   30 1    
    45   26   27 2    
    46   27   28 1    
    47   27   47 1    
    48   28   29 2    
    49   28   48 1    
    50   29   30 1    
    51   29   31 1    
@<TRIPOS>SUBSTRUCTURE
     1 UNK         1 GROUP             0       ****    0 ROOT    
