ZINC21242387_2362
                    3D
 Schrodinger Suite 2024-2.
 47 50  0  0  1  0            999 V2000
    6.8798   56.2257   18.3502 C   0  0  0  0  0  0
    6.9376   56.8621   17.1136 C   0  0  0  0  0  0
    5.7763   57.0311   16.3621 C   0  0  0  0  0  0
    4.5503   56.5770   16.8487 C   0  0  0  0  0  0
    4.4885   55.9330   18.0812 C   0  0  0  0  0  0
    5.6488   55.7664   18.8407 C   0  0  0  0  0  0
    5.5064   55.1058   20.0707 N   0  0  0  0  0  0
    6.2217   55.2966   21.1981 C   0  0  0  0  0  0
    7.1523   56.0966   21.3006 O   0  0  0  0  0  0
    5.7541   54.4639   22.3993 C   0  0  0  0  0  0
    6.5745   54.8457   23.9889 S   0  0  0  0  0  0
    5.4258   54.5349   25.2953 C   0  0  0  0  0  0
    5.8819   54.7508   26.5530 N   0  0  0  0  0  0
    5.0267   54.4927   27.5749 C   0  0  0  0  0  0
    3.7144   54.0175   27.3492 C   0  0  0  0  0  0
    2.6299   53.6719   28.2233 C   0  0  0  0  0  0
    1.5289   53.2078   27.5034 C   0  0  0  0  0  0
    1.7457   53.2604   25.7670 S   0  0  0  0  0  0
    3.3749   53.8473   25.9776 C   0  0  0  0  0  0
    4.1883   54.0971   24.9503 N   0  0  0  0  0  0
    0.2155   52.7687   28.1334 C   0  0  0  0  0  0
    0.4588   52.4074   29.6122 C   0  0  0  0  0  0
    1.2349   53.5201   30.3366 C   0  0  0  0  0  0
    2.6505   53.7422   29.7523 C   0  0  0  0  0  0
    5.5044   54.7307   28.8602 N   0  0  0  0  0  0
    5.8510   57.6603   15.1460 O   0  0  0  0  0  0
    5.7850   56.7891   14.0227 C   0  0  0  0  0  0
    6.3977   57.3626   12.9886 F   0  0  0  0  0  0
    4.5179   56.5335   13.6937 F   0  0  0  0  0  0
    7.7942   56.0867   18.9080 H   0  0  0  0  0  0
    7.8827   57.2191   16.7333 H   0  0  0  0  0  0
    3.6513   56.7212   16.2675 H   0  0  0  0  0  0
    3.5333   55.5809   18.4451 H   0  0  0  0  0  0
    4.7030   54.4985   20.1354 H   0  0  0  0  0  0
    4.6804   54.6166   22.5044 H   0  0  0  0  0  0
    5.9057   53.4069   22.1827 H   0  0  0  0  0  0
   -0.5007   53.5872   28.0764 H   0  0  0  0  0  0
   -0.2240   51.9234   27.6018 H   0  0  0  0  0  0
   -0.4948   52.2281   30.1121 H   0  0  0  0  0  0
    1.0117   51.4687   29.6766 H   0  0  0  0  0  0
    0.6646   54.4486   30.2718 H   0  0  0  0  0  0
    1.3033   53.2902   31.4006 H   0  0  0  0  0  0
    3.3358   52.9897   30.1454 H   0  0  0  0  0  0
    3.0200   54.7132   30.0817 H   0  0  0  0  0  0
    4.9121   54.5489   29.6548 H   0  0  0  0  0  0
    6.4356   55.1226   28.9851 H   0  0  0  0  0  0
    6.2980   55.8386   14.1863 H   0  0  0  0  0  0
  1  6  2  0  0  0
  1  2  1  0  0  0
  1 30  1  0  0  0
  2  3  2  0  0  0
  2 31  1  0  0  0
  3  4  1  0  0  0
  3 26  1  0  0  0
  4  5  2  0  0  0
  4 32  1  0  0  0
  5  6  1  0  0  0
  5 33  1  0  0  0
  6  7  1  0  0  0
  7  8  1  0  0  0
  7 34  1  0  0  0
  8  9  2  0  0  0
  8 10  1  0  0  0
 10 11  1  0  0  0
 10 35  1  0  0  0
 10 36  1  0  0  0
 11 12  1  0  0  0
 12 20  2  0  0  0
 12 13  1  0  0  0
 13 14  2  0  0  0
 14 15  1  0  0  0
 14 25  1  0  0  0
 15 19  2  0  0  0
 15 16  1  0  0  0
 16 24  1  0  0  0
 16 17  2  0  0  0
 17 18  1  0  0  0
 17 21  1  0  0  0
 18 19  1  0  0  0
 19 20  1  0  0  0
 21 22  1  0  0  0
 21 37  1  0  0  0
 21 38  1  0  0  0
 22 23  1  0  0  0
 22 39  1  0  0  0
 22 40  1  0  0  0
 23 24  1  0  0  0
 23 41  1  0  0  0
 23 42  1  0  0  0
 24 43  1  0  0  0
 24 44  1  0  0  0
 25 45  1  0  0  0
 25 46  1  0  0  0
 26 27  1  0  0  0
 27 28  1  0  0  0
 27 29  1  0  0  0
 27 47  1  0  0  0
M  END
> <i_i_glide_confnum>
9

> <i_i_glide_lignum>
2363

> <i_i_glide_posenum>
228

> <i_i_glide_rotatable_bonds>
7

> <i_m_Source_File_Index>
3459

> <b_m_subgroup_collapsed>
0

> <r_i_docking_score>
-3.89608

> <r_i_glide_ecoul>
-3.93672

> <r_i_glide_eff_state_penalty>
0

> <r_i_glide_einternal>
4.77259

> <r_i_glide_emodel>
-48.5419

> <r_i_glide_energy>
-44.388

> <r_i_glide_erotb>
0.627715

> <r_i_glide_esite>
-0.0134214

> <r_i_glide_evdw>
-40.4513

> <r_i_glide_gscore>
-3.89608

> <r_i_glide_hbond>
-0.394963

> <r_i_glide_ligand_efficiency>
-0.134347

> <r_i_glide_ligand_efficiency_ln>
-0.892102

> <r_i_glide_ligand_efficiency_sa>
-0.412758

> <r_i_glide_lipo>
-2.3049

> <r_i_glide_metal>
0

> <r_i_glide_rewards>
0.802569

> <s_i_glide_gridfile>
wee1_glide-grid

> <s_m_Source_File>
wee1_decoys_glide_SP.sdf

> <s_m_Source_Path>
/Users/zhangxujun/Desktop

> <s_m_entry_id>
3734

> <s_m_entry_name>
wee1_decoys_glide_SP.3459

> <s_m_subgroup_title>
wee1_decoys_glide_SP

> <s_m_subgroupid>
wee1_decoys_glide_SP


$$$$
