ZINC04730281_1477
                    3D
 Schrodinger Suite 2024-2.
 43 45  0  0  1  0            999 V2000
    4.4691   54.5012   24.4621 C   0  0  0  0  0  0
    3.2256   54.2200   25.1737 N   0  0  0  0  0  0
    3.5102   53.8846   26.5708 C   0  0  0  0  0  0
    2.2941   53.3878   27.3336 C   0  0  0  0  0  0
    1.1885   52.8969   26.7285 C   0  0  0  0  0  0
    1.1240   52.8400   25.1911 C   0  0  1  0  0  0
    0.4515   53.6364   24.8715 H   0  0  0  0  0  0
    2.4985   53.1302   24.5219 C   0  0  0  0  0  0
    0.5038   51.4604   24.8250 C   0  0  1  0  0  0
    1.1045   50.7151   25.3513 H   0  0  0  0  0  0
   -0.9433   51.3206   25.4024 C   0  0  0  0  0  0
   -0.9602   51.7006   26.9028 C   0  0  0  0  0  0
    0.0351   52.4117   27.4904 C   0  0  0  0  0  0
   -0.0502   52.7229   28.8875 C   0  0  0  0  0  0
   -0.0949   53.0062   30.0085 N   0  0  0  0  0  0
   -2.0799   51.2965   27.5951 N   0  0  0  0  0  0
   -1.4004   49.9300   25.1951 C   0  0  0  0  0  0
   -1.7590   48.8429   25.0223 N   0  0  0  0  0  0
   -1.8829   52.2036   24.6842 C   0  0  0  0  0  0
   -2.6176   52.8967   24.1172 N   0  0  0  0  0  0
    0.6457   51.0645   23.3445 C   0  0  0  0  0  0
    1.1996   49.8245   23.0122 C   0  0  0  0  0  0
    1.3719   49.4633   21.6806 C   0  0  0  0  0  0
    0.9838   50.3318   20.6521 C   0  0  0  0  0  0
    0.4291   51.5750   20.9886 C   0  0  0  0  0  0
    0.2562   51.9344   22.3232 C   0  0  0  0  0  0
    1.1489   49.9335   19.2320 N   0  3  0  0  0  0
    0.8656   50.7502   18.3606 O   0  0  0  0  0  0
    1.5343   48.7934   18.9868 O   0  5  0  0  0  0
    5.0047   55.3273   24.9313 H   0  0  0  0  0  0
    4.2642   54.7896   23.4302 H   0  0  0  0  0  0
    5.1337   53.6354   24.4449 H   0  0  0  0  0  0
    4.2886   53.1258   26.6772 H   0  0  0  0  0  0
    3.8653   54.7812   27.0815 H   0  0  0  0  0  0
    2.3441   53.4088   28.4125 H   0  0  0  0  0  0
    2.3337   53.3905   23.4752 H   0  0  0  0  0  0
    3.1039   52.2335   24.5144 H   0  0  0  0  0  0
   -2.7125   50.6175   27.1943 H   0  0  0  0  0  0
   -2.1100   51.3775   28.6025 H   0  0  0  0  0  0
    1.5049   49.1338   23.7849 H   0  0  0  0  0  0
    1.8124   48.5029   21.4533 H   0  0  0  0  0  0
    0.1305   52.2704   20.2167 H   0  0  0  0  0  0
   -0.1692   52.8963   22.5623 H   0  0  0  0  0  0
  1  2  1  0  0  0
  1 30  1  0  0  0
  1 31  1  0  0  0
  1 32  1  0  0  0
  2  8  1  0  0  0
  2  3  1  0  0  0
  3  4  1  0  0  0
  3 33  1  0  0  0
  3 34  1  0  0  0
  4  5  2  0  0  0
  4 35  1  0  0  0
  5 13  1  0  0  0
  5  6  1  0  0  0
  6  7  1  0  0  0
  6  8  1  0  0  0
  6  9  1  0  0  0
  8 36  1  0  0  0
  8 37  1  0  0  0
  9 10  1  0  0  0
  9 11  1  0  0  0
  9 21  1  0  0  0
 11 12  1  0  0  0
 11 17  1  0  0  0
 11 19  1  0  0  0
 12 13  2  0  0  0
 12 16  1  0  0  0
 13 14  1  0  0  0
 14 15  3  0  0  0
 16 38  1  0  0  0
 16 39  1  0  0  0
 17 18  3  0  0  0
 19 20  3  0  0  0
 21 26  2  0  0  0
 21 22  1  0  0  0
 22 23  2  0  0  0
 22 40  1  0  0  0
 23 24  1  0  0  0
 23 41  1  0  0  0
 24 25  2  0  0  0
 24 27  1  0  0  0
 25 26  1  0  0  0
 25 42  1  0  0  0
 26 43  1  0  0  0
 27 28  2  0  0  0
 27 29  1  0  0  0
M  CHG  2  27   1  29  -1
M  END
> <i_i_glide_confnum>
2

> <i_i_glide_lignum>
1478

> <i_i_glide_posenum>
130

> <i_i_glide_rotatable_bonds>
5

> <i_m_Source_File_Index>
1237

> <b_m_subgroup_collapsed>
0

> <r_i_docking_score>
-4.23988

> <r_i_glide_ecoul>
-1.04145

> <r_i_glide_eff_state_penalty>
0

> <r_i_glide_einternal>
6.61518

> <r_i_glide_emodel>
-35.3421

> <r_i_glide_energy>
-30.1569

> <r_i_glide_erotb>
0.147677

> <r_i_glide_esite>
-0.234507

> <r_i_glide_evdw>
-29.1155

> <r_i_glide_gscore>
-4.23988

> <r_i_glide_hbond>
0

> <r_i_glide_ligand_efficiency>
-0.157033

> <r_i_glide_ligand_efficiency_ln>
-0.986974

> <r_i_glide_ligand_efficiency_sa>
-0.471098

> <r_i_glide_lipo>
-1.44522

> <r_i_glide_metal>
0

> <r_i_glide_rewards>
-1.09584

> <s_i_glide_gridfile>
wee1_glide-grid

> <s_m_Source_File>
wee1_decoys_glide_SP.sdf

> <s_m_Source_Path>
/Users/zhangxujun/Desktop

> <s_m_entry_id>
1512

> <s_m_entry_name>
wee1_decoys_glide_SP.1237

> <s_m_subgroup_title>
wee1_decoys_glide_SP

> <s_m_subgroupid>
wee1_decoys_glide_SP


$$$$
