ZINC29120016_3316
                    3D
 Schrodinger Suite 2024-2.
 46 49  0  0  1  0            999 V2000
    1.2553   46.1991   17.3828 C   0  0  0  0  0  0
    0.6932   47.8297   16.6408 S   0  0  0  0  0  0
   -0.7567   47.9654   16.8188 O   0  0  0  0  0  0
    1.2956   47.9536   15.3114 O   0  0  0  0  0  0
    1.5039   49.0184   17.6811 N   0  0  0  0  0  0
    1.2396   49.2219   19.0487 C   0  0  0  0  0  0
    2.1394   50.0024   19.7791 C   0  0  0  0  0  0
    1.9208   50.2565   21.1351 C   0  0  0  0  0  0
    0.8029   49.7200   21.7840 C   0  0  0  0  0  0
   -0.0930   48.9355   21.0492 C   0  0  0  0  0  0
    0.1207   48.6895   19.6964 C   0  0  0  0  0  0
    0.5346   49.9522   23.2436 C   0  0  0  0  0  0
   -0.1586   49.0635   24.0739 C   0  0  0  0  0  0
   -0.2657   49.6923   25.6840 S   0  0  0  0  0  0
    0.6043   51.0786   25.1362 C   0  0  0  0  0  0
    0.9503   51.0536   23.8637 N   0  0  0  0  0  0
    0.9120   52.0279   26.1031 N   0  0  0  0  0  0
    1.5054   53.2228   25.9097 C   0  0  0  0  0  0
    1.7579   53.6974   24.8034 O   0  0  0  0  0  0
    1.8338   54.0463   27.1720 C   0  0  0  0  0  0
    2.4863   53.2967   28.2563 N   0  0  0  0  0  0
    3.8437   53.1519   28.4859 C   0  0  0  0  0  0
    4.0470   52.4568   29.5801 N   0  0  0  0  0  0
    2.8101   52.1226   30.1072 N   0  0  0  0  0  0
    1.8966   52.6378   29.3262 C   0  0  0  0  0  0
    0.1754   52.4971   29.6705 S   0  5  0  0  0  0
    4.9546   53.7153   27.7101 C   0  0  0  0  0  0
    6.2149   53.9959   28.2204 C   0  0  0  0  0  0
    7.1044   54.4974   27.2816 C   0  0  0  0  0  0
    6.5566   54.6126   26.0168 C   0  0  0  0  0  0
    4.9059   54.0966   26.0047 S   0  0  0  0  0  0
    0.7744   45.3887   16.8379 H   0  0  0  0  0  0
    2.3364   46.1333   17.2784 H   0  0  0  0  0  0
    0.9738   46.1704   18.4334 H   0  0  0  0  0  0
    2.4263   49.2969   17.3485 H   0  0  0  0  0  0
    3.0130   50.4180   19.2940 H   0  0  0  0  0  0
    2.6291   50.8630   21.6786 H   0  0  0  0  0  0
   -0.9698   48.5171   21.5214 H   0  0  0  0  0  0
   -0.6041   48.0834   19.1782 H   0  0  0  0  0  0
   -0.5838   48.1000   23.8382 H   0  0  0  0  0  0
    0.6349   51.8014   27.0509 H   0  0  0  0  0  0
    0.9242   54.4857   27.5758 H   0  0  0  0  0  0
    2.4652   54.8953   26.9278 H   0  0  0  0  0  0
    6.4858   53.8541   29.2545 H   0  0  0  0  0  0
    8.1049   54.7684   27.5643 H   0  0  0  0  0  0
    7.0238   54.9629   25.1085 H   0  0  0  0  0  0
  1  2  1  0  0  0
  1 32  1  0  0  0
  1 33  1  0  0  0
  1 34  1  0  0  0
  2  3  2  0  0  0
  2  4  2  0  0  0
  2  5  1  0  0  0
  5  6  1  0  0  0
  5 35  1  0  0  0
  6 11  2  0  0  0
  6  7  1  0  0  0
  7  8  2  0  0  0
  7 36  1  0  0  0
  8  9  1  0  0  0
  8 37  1  0  0  0
  9 10  2  0  0  0
  9 12  1  0  0  0
 10 11  1  0  0  0
 10 38  1  0  0  0
 11 39  1  0  0  0
 12 16  1  0  0  0
 12 13  2  0  0  0
 13 14  1  0  0  0
 13 40  1  0  0  0
 14 15  1  0  0  0
 15 16  2  0  0  0
 15 17  1  0  0  0
 17 18  1  0  0  0
 17 41  1  0  0  0
 18 19  2  0  0  0
 18 20  1  0  0  0
 20 42  1  0  0  0
 20 43  1  0  0  0
 20 21  1  0  0  0
 21 25  1  0  0  0
 21 22  1  0  0  0
 22 27  1  0  0  0
 22 23  2  0  0  0
 23 24  1  0  0  0
 24 25  2  0  0  0
 25 26  1  0  0  0
 27 31  1  0  0  0
 27 28  2  0  0  0
 28 29  1  0  0  0
 28 44  1  0  0  0
 29 30  2  0  0  0
 29 45  1  0  0  0
 30 31  1  0  0  0
 30 46  1  0  0  0
M  CHG  1  26  -1
M  END
> <i_i_glide_confnum>
98

> <i_i_glide_lignum>
3317

> <i_i_glide_posenum>
384

> <i_i_glide_rotatable_bonds>
8

> <i_m_Source_File_Index>
2307

> <b_m_subgroup_collapsed>
0

> <r_i_docking_score>
-4.83932

> <r_i_glide_ecoul>
-2.52405

> <r_i_glide_eff_state_penalty>
0

> <r_i_glide_einternal>
10.2387

> <r_i_glide_emodel>
-56.8862

> <r_i_glide_energy>
-43.2326

> <r_i_glide_erotb>
0.589659

> <r_i_glide_esite>
-0.172799

> <r_i_glide_evdw>
-40.7085

> <r_i_glide_gscore>
-4.83932

> <r_i_glide_hbond>
-0.16

> <r_i_glide_ligand_efficiency>
-0.156107

> <r_i_glide_ligand_efficiency_ln>
-1.09141

> <r_i_glide_ligand_efficiency_sa>
-0.490392

> <r_i_glide_lipo>
-1.59303

> <r_i_glide_metal>
0

> <r_i_glide_rewards>
-1.08911

> <s_i_glide_gridfile>
wee1_glide-grid

> <s_m_Source_File>
wee1_decoys_glide_SP.sdf

> <s_m_Source_Path>
/Users/zhangxujun/Desktop

> <s_m_entry_id>
2582

> <s_m_entry_name>
wee1_decoys_glide_SP.2307

> <s_m_subgroup_title>
wee1_decoys_glide_SP

> <s_m_subgroupid>
wee1_decoys_glide_SP


$$$$
