@<TRIPOS>MOLECULE
ZINC40157373_89
62   65    1
SMALL
USER_CHARGES


@<TRIPOS>ATOM
      1 C1          5.0904   52.0772   20.8063 C.3       1 UNK         0.0000 
      2 C2          4.3961   53.4575   20.8017 C.3       1 UNK         0.0000 
      3 C3          3.8394   53.7678   19.3971 C.3       1 UNK         0.0000 
      4 C4          3.3487   53.6494   21.9601 C.3       1 UNK         0.0000 
      5 H5          2.7346   54.5027   21.6818 H         1 UNK         0.0000 
      6 C6          2.3621   52.4814   22.1413 C.ar      1 UNK         0.0000 
      7 N7          1.8157   51.7833   21.0857 N.pl3     1 UNK         0.0000 
      8 H8          2.0416   51.9710   20.1205 H         1 UNK         0.0000 
      9 C9          0.9962   50.8075   21.6010 C.ar      1 UNK         0.0000 
     10 C10         0.2123   49.8014   21.0300 C.ar      1 UNK         0.0000 
     11 C11        -0.4958   48.9844   21.9168 C.ar      1 UNK         0.0000 
     12 C12        -0.4230   49.1561   23.3002 C.ar      1 UNK         0.0000 
     13 C13         0.3620   50.1637   23.8655 C.ar      1 UNK         0.0000 
     14 C14         1.0802   51.0042   23.0017 C.ar      1 UNK         0.0000 
     15 N15         1.9044   52.0563   23.3005 N.2       1 UNK         0.0000 
     16 N16         3.8607   54.1001   23.2712 N.am      1 UNK         0.0000 
     17 C17         5.0977   54.0964   23.8067 C.2       1 UNK         0.0000 
     18 O18         6.1289   53.9164   23.1586 O.2       1 UNK         0.0000 
     19 C19         5.1732   54.2738   25.3089 C.ar      1 UNK         0.0000 
     20 C20         6.4271   54.4013   25.9237 C.ar      1 UNK         0.0000 
     21 C21         6.5375   54.4969   27.3075 C.ar      1 UNK         0.0000 
     22 C22         5.3958   54.4967   28.1025 C.ar      1 UNK         0.0000 
     23 C23         4.1353   54.3813   27.5136 C.ar      1 UNK         0.0000 
     24 C24         4.0259   54.2545   26.1262 C.ar      1 UNK         0.0000 
     25 S25         2.6713   54.3953   28.5433 S.o2      1 UNK         0.0000 
     26 O26         2.9687   55.2678   29.6815 O.2       1 UNK         0.0000 
     27 O27         1.5221   54.6765   27.6818 O.2       1 UNK         0.0000 
     28 N28         2.5014   52.7345   29.1414 N.pl3     1 UNK         0.0000 
     29 C29         1.3193   51.9549   28.7052 C.3       1 UNK         0.0000 
     30 C30        -0.0077   52.4300   29.3332 C.3       1 UNK         0.0000 
     31 C31        -0.1111   52.3803   30.8682 C.3       1 UNK         0.0000 
     32 C32         1.0300   53.0317   31.6670 C.3       1 UNK         0.0000 
     33 C33         2.3580   52.2458   31.6314 C.3       1 UNK         0.0000 
     34 C34         3.2392   52.3843   30.3724 C.3       1 UNK         0.0000 
     35 H35         4.4092   51.2736   20.5298 H         1 UNK         0.0000 
     36 H36         5.9036   52.0533   20.0812 H         1 UNK         0.0000 
     37 H37         5.5036   51.8286   21.7826 H         1 UNK         0.0000 
     38 H38         5.1694   54.2153   20.9287 H         1 UNK         0.0000 
     39 H39         3.0049   53.1272   19.1196 H         1 UNK         0.0000 
     40 H40         3.5051   54.8023   19.3245 H         1 UNK         0.0000 
     41 H41         4.6094   53.6359   18.6355 H         1 UNK         0.0000 
     42 H42         0.1561   49.6586   19.9608 H         1 UNK         0.0000 
     43 H43        -1.1139   48.1920   21.5207 H         1 UNK         0.0000 
     44 H44        -0.9835   48.4970   23.9473 H         1 UNK         0.0000 
     45 H45         0.4168   50.2857   24.9376 H         1 UNK         0.0000 
     46 H46         3.1299   54.4168   23.8879 H         1 UNK         0.0000 
     47 H47         7.3305   54.4061   25.3289 H         1 UNK         0.0000 
     48 H48         7.5072   54.5849   27.7718 H         1 UNK         0.0000 
     49 H49         5.4978   54.5943   29.1738 H         1 UNK         0.0000 
     50 H50         3.0394   54.1323   25.7016 H         1 UNK         0.0000 
     51 H51         1.2179   52.1145   27.6297 H         1 UNK         0.0000 
     52 H52         1.5145   50.8918   28.8098 H         1 UNK         0.0000 
     53 H53        -0.2232   53.4464   29.0031 H         1 UNK         0.0000 
     54 H54        -0.8177   51.8290   28.9163 H         1 UNK         0.0000 
     55 H55        -1.0174   52.8967   31.1555 H         1 UNK         0.0000 
     56 H56        -0.2887   51.3604   31.2016 H         1 UNK         0.0000 
     57 H57         0.7066   53.1091   32.7065 H         1 UNK         0.0000 
     58 H58         1.1593   54.0563   31.3167 H         1 UNK         0.0000 
     59 H59         2.1059   51.2142   31.8215 H         1 UNK         0.0000 
     60 H60         2.9846   52.4966   32.4816 H         1 UNK         0.0000 
     61 H61         3.7490   51.4379   30.1906 H         1 UNK         0.0000 
     62 H62         4.0556   53.0939   30.5112 H         1 UNK         0.0000 
@<TRIPOS>BOND
     1    1    2 1    
     2    1   35 1    
     3    1   36 1    
     4    1   37 1    
     5    2    3 1    
     6    2    4 1    
     7    2   38 1    
     8    3   39 1    
     9    3   40 1    
    10    3   41 1    
    11    4    5 1    
    12    4    6 1    
    13    4   16 1    
    14    6   15 ar   
    15    6    7 ar   
    16    7    8 1    
    17    7    9 ar   
    18    9   14 ar   
    19    9   10 ar   
    20   10   11 ar   
    21   10   42 1    
    22   11   12 ar   
    23   11   43 1    
    24   12   13 ar   
    25   12   44 1    
    26   13   14 ar   
    27   13   45 1    
    28   14   15 ar   
    29   16   17 am   BACKBONE|DICT|INTERRES
    30   16   46 1    
    31   17   18 2    
    32   17   19 1    
    33   19   24 ar   
    34   19   20 ar   
    35   20   21 ar   
    36   20   47 1    
    37   21   22 ar   
    38   21   48 1    
    39   22   23 ar   
    40   22   49 1    
    41   23   24 ar   
    42   23   25 1    
    43   24   50 1    
    44   25   26 2    
    45   25   27 2    
    46   25   28 1    
    47   28   34 1    
    48   28   29 1    
    49   29   30 1    
    50   29   51 1    
    51   29   52 1    
    52   30   31 1    
    53   30   53 1    
    54   30   54 1    
    55   31   32 1    
    56   31   55 1    
    57   31   56 1    
    58   32   33 1    
    59   32   57 1    
    60   32   58 1    
    61   33   34 1    
    62   33   59 1    
    63   33   60 1    
    64   34   61 1    
    65   34   62 1    
@<TRIPOS>SUBSTRUCTURE
     1 UNK         1 GROUP             0       ****    0 ROOT    
