@<TRIPOS>MOLECULE
ZINC13565754_5482
63   65    1
SMALL
USER_CHARGES


@<TRIPOS>ATOM
      1 C1          2.4599   51.5747   29.2806 C.3       1 UNK         0.0000 
      2 C2          2.0857   53.0220   29.5555 C.ar      1 UNK         0.0000 
      3 C3          1.0390   53.2740   30.4502 C.ar      1 UNK         0.0000 
      4 C4          0.6366   54.5798   30.7158 C.ar      1 UNK         0.0000 
      5 C5          1.2680   55.6462   30.0828 C.ar      1 UNK         0.0000 
      6 C6          2.3046   55.4034   29.1862 C.ar      1 UNK         0.0000 
      7 C7          2.7338   54.0979   28.9148 C.ar      1 UNK         0.0000 
      8 C8          3.9002   53.8868   27.9362 C.3       1 UNK         0.0000 
      9 C9          3.5996   54.2786   26.4555 C.3       1 UNK         0.0000 
     10 H10         3.3420   55.3335   26.4293 H         1 UNK         0.0000 
     11 C11         2.4267   53.5158   25.7862 C.2       1 UNK         0.0000 
     12 O12         1.6512   52.8328   26.4467 O.2       1 UNK         0.0000 
     13 N13         2.3741   53.5878   24.4451 N.am      1 UNK         0.0000 
     14 C14         1.6643   52.6719   23.5566 C.3       1 UNK         0.0000 
     15 C15         0.1200   52.6194   23.7052 C.3       1 UNK         0.0000 
     16 C16        -0.5437   51.7077   22.6453 C.3       1 UNK         0.0000 
     17 N17        -0.0951   52.0969   21.2858 N.pl3     1 UNK         0.0000 
     18 C18         1.3687   52.0014   21.0821 C.3       1 UNK         0.0000 
     19 C19         2.1071   52.8931   22.0932 C.3       1 UNK         0.0000 
     20 S20        -1.0840   51.5600   19.9176 S.o2      1 UNK         0.0000 
     21 O21        -2.4912   51.5948   20.3350 O.2       1 UNK         0.0000 
     22 O22        -0.6397   52.3016   18.7325 O.2       1 UNK         0.0000 
     23 C23        -0.6184   49.8475   19.6618 C.ar      1 UNK         0.0000 
     24 C24         0.4904   49.5448   18.8649 C.ar      1 UNK         0.0000 
     25 C25         0.8779   48.2192   18.6806 C.ar      1 UNK         0.0000 
     26 C26         0.1585   47.1900   19.2879 C.ar      1 UNK         0.0000 
     27 C27        -0.9524   47.4801   20.0934 C.ar      1 UNK         0.0000 
     28 C28        -1.3313   48.8165   20.2796 C.ar      1 UNK         0.0000 
     29 C29        -1.7547   46.3708   20.7708 C.3       1 UNK         0.0000 
     30 F30        -3.0262   46.4332   20.3765 F         1 UNK         0.0000 
     31 F31        -1.2924   45.1518   20.4816 F         1 UNK         0.0000 
     32 F32        -1.7086   46.5291   22.0934 F         1 UNK         0.0000 
     33 N33         4.7488   54.0965   25.5627 N.am      1 UNK         0.0000 
     34 C34         5.9846   54.6036   25.6244 C.2       1 UNK         0.0000 
     35 O35         6.4161   55.2953   26.5411 O.2       1 UNK         0.0000 
     36 C36         6.8758   54.2736   24.4367 C.3       1 UNK         0.0000 
     37 H37         3.3559   51.2979   29.8349 H         1 UNK         0.0000 
     38 H38         1.6360   50.9087   29.5328 H         1 UNK         0.0000 
     39 H39         2.6497   51.3971   28.2246 H         1 UNK         0.0000 
     40 H40         0.5303   52.4586   30.9460 H         1 UNK         0.0000 
     41 H41        -0.1633   54.7628   31.4169 H         1 UNK         0.0000 
     42 H42         0.9582   56.6605   30.2890 H         1 UNK         0.0000 
     43 H43         2.7729   56.2454   28.7067 H         1 UNK         0.0000 
     44 H44         4.7257   54.4905   28.3154 H         1 UNK         0.0000 
     45 H45         4.2900   52.8708   27.9815 H         1 UNK         0.0000 
     46 H46         2.9594   54.2693   23.9852 H         1 UNK         0.0000 
     47 H47         2.0180   51.6783   23.8480 H         1 UNK         0.0000 
     48 H48        -0.1503   52.2552   24.6974 H         1 UNK         0.0000 
     49 H49        -0.2910   53.6277   23.6512 H         1 UNK         0.0000 
     50 H50        -0.1932   50.6945   22.8501 H         1 UNK         0.0000 
     51 H51        -1.6297   51.7710   22.7187 H         1 UNK         0.0000 
     52 H52         1.6826   50.9778   21.2930 H         1 UNK         0.0000 
     53 H53         1.6274   52.2957   20.0640 H         1 UNK         0.0000 
     54 H54         1.9498   53.9379   21.8289 H         1 UNK         0.0000 
     55 H55         3.1809   52.7257   21.9973 H         1 UNK         0.0000 
     56 H56         1.0567   50.3324   18.3867 H         1 UNK         0.0000 
     57 H57         1.7374   47.9952   18.0632 H         1 UNK         0.0000 
     58 H58         0.4746   46.1696   19.1277 H         1 UNK         0.0000 
     59 H59        -2.1828   49.0511   20.9034 H         1 UNK         0.0000 
     60 H60         4.5452   53.4781   24.7910 H         1 UNK         0.0000 
     61 H61         6.2905   54.0314   23.5494 H         1 UNK         0.0000 
     62 H62         7.5044   55.1293   24.1958 H         1 UNK         0.0000 
     63 H63         7.5044   53.4175   24.6685 H         1 UNK         0.0000 
@<TRIPOS>BOND
     1    1    2 1    
     2    1   37 1    
     3    1   38 1    
     4    1   39 1    
     5    2    7 ar   
     6    2    3 ar   
     7    3    4 ar   
     8    3   40 1    
     9    4    5 ar   
    10    4   41 1    
    11    5    6 ar   
    12    5   42 1    
    13    6    7 ar   
    14    6   43 1    
    15    7    8 1    
    16    8    9 1    
    17    8   44 1    
    18    8   45 1    
    19    9   10 1    
    20    9   11 1    
    21    9   33 1    
    22   11   12 2    
    23   11   13 am   BACKBONE|DICT|INTERRES
    24   13   14 1    
    25   13   46 1    
    26   14   19 1    
    27   14   15 1    
    28   14   47 1    
    29   15   16 1    
    30   15   48 1    
    31   15   49 1    
    32   16   17 1    
    33   16   50 1    
    34   16   51 1    
    35   17   18 1    
    36   17   20 1    
    37   18   19 1    
    38   18   52 1    
    39   18   53 1    
    40   19   54 1    
    41   19   55 1    
    42   20   21 2    
    43   20   22 2    
    44   20   23 1    
    45   23   28 ar   
    46   23   24 ar   
    47   24   25 ar   
    48   24   56 1    
    49   25   26 ar   
    50   25   57 1    
    51   26   27 ar   
    52   26   58 1    
    53   27   28 ar   
    54   27   29 1    
    55   28   59 1    
    56   29   30 1    
    57   29   31 1    
    58   29   32 1    
    59   33   34 am   BACKBONE|DICT|INTERRES
    60   33   60 1    
    61   34   35 2    
    62   34   36 1    
    63   36   61 1    
    64   36   62 1    
    65   36   63 1    
@<TRIPOS>SUBSTRUCTURE
     1 UNK         1 GROUP             0       ****    0 ROOT    
