@<TRIPOS>MOLECULE
ZINC39974389_5413
71   74    1
SMALL
USER_CHARGES


@<TRIPOS>ATOM
      1 C1         10.8756   55.6219   17.1354 C.3       1 UNK         0.0000 
      2 C2         10.0453   56.8851   17.2654 C.ar      1 UNK         0.0000 
      3 C3         10.5605   58.1200   16.8634 C.ar      1 UNK         0.0000 
      4 C4          9.7853   59.2729   16.9834 C.ar      1 UNK         0.0000 
      5 C5          8.4975   59.1970   17.5137 C.ar      1 UNK         0.0000 
      6 C6          7.9724   57.9698   17.9321 C.ar      1 UNK         0.0000 
      7 C7          8.7559   56.8140   17.7970 C.ar      1 UNK         0.0000 
      8 C8          6.5547   57.9272   18.5095 C.3       1 UNK         0.0000 
      9 N9          6.2321   56.7394   19.3043 N.pl3     1 UNK         0.0000 
     10 C10         5.4402   55.6662   18.9680 C.ar      1 UNK         0.0000 
     11 C11         5.5578   54.7996   20.0494 C.ar      1 UNK         0.0000 
     12 C12         6.4870   55.4006   20.9234 C.ar      1 UNK         0.0000 
     13 N13         6.8491   56.5781   20.4807 N.2       1 UNK         0.0000 
     14 C14         7.1042   54.8964   22.2077 C.3       1 UNK         0.0000 
     15 N15         4.9388   53.5620   20.1444 N.pl3     1 UNK         0.0000 
     16 C16         3.9860   53.2117   21.0636 C.2       1 UNK         0.0000 
     17 S17         3.6281   54.0575   22.4814 S.2       1 UNK         0.0000 
     18 N18         3.3108   52.0947   20.6526 N.pl3     1 UNK         0.0000 
     19 C19         2.1640   51.4925   21.1922 C.ar      1 UNK         0.0000 
     20 C20         2.2093   50.1372   21.5139 C.ar      1 UNK         0.0000 
     21 C21         1.0989   49.5326   22.0917 C.ar      1 UNK         0.0000 
     22 C22        -0.0588   50.2741   22.3297 C.ar      1 UNK         0.0000 
     23 C23        -0.1219   51.6175   21.9624 C.ar      1 UNK         0.0000 
     24 C24         0.9860   52.2236   21.3833 C.ar      1 UNK         0.0000 
     25 S25        -1.4728   49.5410   23.1450 S.o2      1 UNK         0.0000 
     26 O26        -2.6534   50.0796   22.4584 O.2       1 UNK         0.0000 
     27 O27        -1.2595   48.0895   23.2023 O.2       1 UNK         0.0000 
     28 N28        -1.4266   50.2153   24.8024 N.pl3     1 UNK         0.0000 
     29 C29        -2.6085   50.9990   25.2671 C.3       1 UNK         0.0000 
     30 H30        -3.1089   51.4181   24.3933 H         1 UNK         0.0000 
     31 C31        -2.1464   52.1858   26.1393 C.3       1 UNK         0.0000 
     32 C32        -1.2676   51.7234   27.3197 C.3       1 UNK         0.0000 
     33 C33        -0.0709   50.8868   26.8191 C.3       1 UNK         0.0000 
     34 C34        -0.5109   49.7227   25.8957 C.3       1 UNK         0.0000 
     35 H35        -1.0881   49.0114   26.4815 H         1 UNK         0.0000 
     36 C36         0.7081   48.9412   25.3802 C.3       1 UNK         0.0000 
     37 C37        -3.6022   50.0431   25.9584 C.3       1 UNK         0.0000 
     38 C38         4.6533   55.5800   17.6770 C.3       1 UNK         0.0000 
     39 H39        10.4501   54.9631   16.3770 H         1 UNK         0.0000 
     40 H40        11.9138   55.8380   16.8794 H         1 UNK         0.0000 
     41 H41        10.8768   55.0745   18.0798 H         1 UNK         0.0000 
     42 H42        11.5578   58.1862   16.4538 H         1 UNK         0.0000 
     43 H43        10.1798   60.2238   16.6587 H         1 UNK         0.0000 
     44 H44         7.9044   60.0970   17.5961 H         1 UNK         0.0000 
     45 H45         8.3712   55.8518   18.1023 H         1 UNK         0.0000 
     46 H46         6.4022   58.7998   19.1487 H         1 UNK         0.0000 
     47 H47         5.8330   58.0228   17.6983 H         1 UNK         0.0000 
     48 H48         6.6785   53.9476   22.5358 H         1 UNK         0.0000 
     49 H49         8.1752   54.7300   22.0816 H         1 UNK         0.0000 
     50 H50         6.9773   55.6052   23.0289 H         1 UNK         0.0000 
     51 H51         4.9933   52.9877   19.3143 H         1 UNK         0.0000 
     52 H52         3.7216   51.5852   19.8820 H         1 UNK         0.0000 
     53 H53         3.1043   49.5576   21.3471 H         1 UNK         0.0000 
     54 H54         1.1543   48.4969   22.3822 H         1 UNK         0.0000 
     55 H55        -1.0182   52.1943   22.1417 H         1 UNK         0.0000 
     56 H56         0.9418   53.2689   21.1110 H         1 UNK         0.0000 
     57 H57        -1.5312   52.8469   25.5278 H         1 UNK         0.0000 
     58 H58        -2.9964   52.7744   26.4813 H         1 UNK         0.0000 
     59 H59        -0.8989   52.5863   27.8772 H         1 UNK         0.0000 
     60 H60        -1.8576   51.1341   28.0242 H         1 UNK         0.0000 
     61 H61         0.6007   51.5543   26.2790 H         1 UNK         0.0000 
     62 H62         0.4482   50.4977   27.6948 H         1 UNK         0.0000 
     63 H63         1.3379   48.6387   26.2174 H         1 UNK         0.0000 
     64 H64         0.4457   48.0125   24.8797 H         1 UNK         0.0000 
     65 H65         1.3308   49.5439   24.7230 H         1 UNK         0.0000 
     66 H66        -4.5083   50.5744   26.2447 H         1 UNK         0.0000 
     67 H67        -3.9037   49.2367   25.2892 H         1 UNK         0.0000 
     68 H68        -3.1976   49.5885   26.8636 H         1 UNK         0.0000 
     69 H69         4.1144   54.6366   17.5889 H         1 UNK         0.0000 
     70 H70         3.9124   56.3769   17.6049 H         1 UNK         0.0000 
     71 H71         5.3014   55.6594   16.8038 H         1 UNK         0.0000 
@<TRIPOS>BOND
     1    1    2 1    
     2    1   39 1    
     3    1   40 1    
     4    1   41 1    
     5    2    7 ar   
     6    2    3 ar   
     7    3    4 ar   
     8    3   42 1    
     9    4    5 ar   
    10    4   43 1    
    11    5    6 ar   
    12    5   44 1    
    13    6    7 ar   
    14    6    8 1    
    15    7   45 1    
    16    8    9 1    
    17    8   46 1    
    18    8   47 1    
    19    9   13 ar   
    20    9   10 ar   
    21   10   11 ar   
    22   10   38 1    
    23   11   12 ar   
    24   11   15 1    
    25   12   13 ar   
    26   12   14 1    
    27   14   48 1    
    28   14   49 1    
    29   14   50 1    
    30   15   16 1    
    31   15   51 1    
    32   16   17 2    
    33   16   18 1    
    34   18   19 1    
    35   18   52 1    
    36   19   24 ar   
    37   19   20 ar   
    38   20   21 ar   
    39   20   53 1    
    40   21   22 ar   
    41   21   54 1    
    42   22   23 ar   
    43   22   25 1    
    44   23   24 ar   
    45   23   55 1    
    46   24   56 1    
    47   25   26 2    
    48   25   27 2    
    49   25   28 1    
    50   28   34 1    
    51   28   29 1    
    52   29   30 1    
    53   29   31 1    
    54   29   37 1    
    55   31   32 1    
    56   31   57 1    
    57   31   58 1    
    58   32   33 1    
    59   32   59 1    
    60   32   60 1    
    61   33   34 1    
    62   33   61 1    
    63   33   62 1    
    64   34   35 1    
    65   34   36 1    
    66   36   63 1    
    67   36   64 1    
    68   36   65 1    
    69   37   66 1    
    70   37   67 1    
    71   37   68 1    
    72   38   69 1    
    73   38   70 1    
    74   38   71 1    
@<TRIPOS>SUBSTRUCTURE
     1 UNK         1 GROUP             0       ****    0 ROOT    
