ZINC05353953_3849
                    3D
 Schrodinger Suite 2024-2.
 45 48  0  0  1  0            999 V2000
    4.7949   53.5759   21.2855 C   0  0  0  0  0  0
    5.1426   54.0159   22.5749 C   0  0  0  0  0  0
    4.1764   53.9641   23.6215 C   0  0  0  0  0  0
    2.8946   53.4298   23.3564 C   0  0  0  0  0  0
    2.6163   52.9672   22.0793 C   0  0  0  0  0  0
    3.5333   53.0405   21.0799 C   0  0  0  0  0  0
    3.0185   52.4978   19.9478 O   0  0  0  0  0  0
    1.7103   52.0970   20.2604 C   0  0  0  0  0  0
    1.4789   52.3871   21.6159 O   0  0  0  0  0  0
    4.5835   54.4372   24.9529 C   0  0  0  0  0  0
    3.8179   54.1768   26.0845 C   0  0  0  0  0  0
    4.2253   53.8473   27.3426 C   0  0  0  0  0  0
    5.8023   53.6966   28.0819 S   0  5  0  0  0  0
    3.3451   53.5279   28.3535 N   0  0  0  0  0  0
    1.8845   53.4777   28.3134 C   0  0  0  0  0  0
    1.3717   52.3804   29.2788 C   0  0  0  0  0  0
    1.2626   52.8304   30.7483 C   0  0  0  0  0  0
    0.5372   54.1783   30.8873 C   0  0  0  0  0  0
    1.2383   55.2746   30.0728 C   0  0  0  0  0  0
    1.3304   54.8973   28.5801 C   0  0  0  0  0  0
    5.7026   55.1285   25.1175 N   0  3  0  0  0  0
    6.6688   55.4783   24.0452 C   0  0  0  0  0  0
    6.5773   54.4627   22.8809 C   0  0  0  0  0  0
    5.5052   53.6069   20.4736 H   0  0  0  0  0  0
    2.1365   53.3445   24.1183 H   0  0  0  0  0  0
    1.6157   51.0229   20.0889 H   0  0  0  0  0  0
    1.0154   52.6707   19.6455 H   0  0  0  0  0  0
    2.7578   54.2103   25.9092 H   0  0  0  0  0  0
    3.7299   53.4336   29.2804 H   0  0  0  0  0  0
    1.6474   53.1585   27.2987 H   0  0  0  0  0  0
    0.3476   52.1477   28.9859 H   0  0  0  0  0  0
    1.9423   51.4563   29.1844 H   0  0  0  0  0  0
    0.7344   52.0774   31.3341 H   0  0  0  0  0  0
    2.2612   52.8962   31.1794 H   0  0  0  0  0  0
   -0.4934   54.0707   30.5475 H   0  0  0  0  0  0
    0.4822   54.4683   31.9377 H   0  0  0  0  0  0
    0.7063   56.2201   30.1845 H   0  0  0  0  0  0
    2.2409   55.4476   30.4659 H   0  0  0  0  0  0
    1.8688   55.6640   28.0222 H   0  0  0  0  0  0
    0.3040   54.8988   28.2202 H   0  0  0  0  0  0
    5.8976   55.4527   26.0607 H   0  0  0  0  0  0
    6.4361   56.4964   23.7471 H   0  0  0  0  0  0
    7.6530   55.4631   24.5054 H   0  0  0  0  0  0
    7.1447   53.5743   23.1617 H   0  0  0  0  0  0
    7.0658   54.8693   21.9950 H   0  0  0  0  0  0
  1  6  2  0  0  0
  1  2  1  0  0  0
  1 24  1  0  0  0
  2 23  1  0  0  0
  2  3  2  0  0  0
  3  4  1  0  0  0
  3 10  1  0  0  0
  4  5  2  0  0  0
  4 25  1  0  0  0
  5  9  1  0  0  0
  5  6  1  0  0  0
  6  7  1  0  0  0
  7  8  1  0  0  0
  8  9  1  0  0  0
  8 26  1  0  0  0
  8 27  1  0  0  0
 10 11  1  0  0  0
 10 21  2  0  0  0
 11 12  2  0  0  0
 11 28  1  0  0  0
 12 13  1  0  0  0
 12 14  1  0  0  0
 14 15  1  0  0  0
 14 29  1  0  0  0
 15 20  1  0  0  0
 15 16  1  0  0  0
 15 30  1  0  0  0
 16 17  1  0  0  0
 16 31  1  0  0  0
 16 32  1  0  0  0
 17 18  1  0  0  0
 17 33  1  0  0  0
 17 34  1  0  0  0
 18 19  1  0  0  0
 18 35  1  0  0  0
 18 36  1  0  0  0
 19 20  1  0  0  0
 19 37  1  0  0  0
 19 38  1  0  0  0
 20 39  1  0  0  0
 20 40  1  0  0  0
 21 22  1  0  0  0
 21 41  1  0  0  0
 22 23  1  0  0  0
 22 42  1  0  0  0
 22 43  1  0  0  0
 23 44  1  0  0  0
 23 45  1  0  0  0
M  CHG  2  13  -1  21   1
M  END
> <i_i_glide_confnum>
5

> <i_i_glide_lignum>
3850

> <i_i_glide_posenum>
364

> <i_i_glide_rotatable_bonds>
3

> <i_m_Source_File_Index>
3117

> <b_m_subgroup_collapsed>
0

> <r_i_docking_score>
-6.06751

> <r_i_glide_ecoul>
0.954999

> <r_i_glide_eff_state_penalty>
0

> <r_i_glide_einternal>
2.12527

> <r_i_glide_emodel>
-50.5844

> <r_i_glide_energy>
-36.1041

> <r_i_glide_erotb>
0.172246

> <r_i_glide_esite>
-0.0210647

> <r_i_glide_evdw>
-37.0591

> <r_i_glide_gscore>
-6.06751

> <r_i_glide_hbond>
0

> <r_i_glide_ligand_efficiency>
-0.263805

> <r_i_glide_ligand_efficiency_ln>
-1.46718

> <r_i_glide_ligand_efficiency_sa>
-0.750226

> <r_i_glide_lipo>
-3.03485

> <r_i_glide_metal>
0

> <r_i_glide_rewards>
-1.47414

> <s_i_glide_gridfile>
wee1_glide-grid

> <s_m_Source_File>
wee1_decoys_glide_SP.sdf

> <s_m_Source_Path>
/Users/zhangxujun/Desktop

> <s_m_entry_id>
3392

> <s_m_entry_name>
wee1_decoys_glide_SP.3117

> <s_m_subgroup_title>
wee1_decoys_glide_SP

> <s_m_subgroupid>
wee1_decoys_glide_SP


$$$$
