ZINC20745141_1231
                    3D
 Schrodinger Suite 2024-2.
 52 54  0  0  1  0            999 V2000
    0.3598   51.2181   27.8164 C   0  0  0  0  0  0
    0.0839   50.6040   26.5668 O   0  0  0  0  0  0
   -1.0896   50.8424   25.9261 C   0  0  0  0  0  0
   -1.9766   51.5954   26.3363 O   0  0  0  0  0  0
   -1.2385   50.0496   24.6292 C   0  0  2  0  0  0
   -2.0776   50.4509   24.0551 H   0  0  0  0  0  0
   -1.5071   48.5457   24.8866 C   0  0  0  0  0  0
   -2.9598   48.2551   25.3012 C   0  0  0  0  0  0
   -3.3871   46.4968   25.3750 S   0  0  0  0  0  0
   -2.7796   46.0966   27.0328 C   0  0  0  0  0  0
   -0.0061   50.2078   23.8355 N   0  0  0  0  0  0
    0.2584   51.2299   22.9938 C   0  0  0  0  0  0
   -0.5851   52.0995   22.7572 O   0  0  0  0  0  0
    1.5280   51.2675   22.5019 N   0  0  0  0  0  0
    2.3075   50.0239   22.2359 C   0  0  0  0  0  0
    2.0656   49.5615   20.7665 C   0  0  0  0  0  0
    2.3045   50.7647   19.8711 C   0  0  0  0  0  0
    2.3160   52.0725   20.3432 C   0  0  0  0  0  0
    2.5937   52.8967   19.2689 N   0  3  0  0  0  0
    2.8446   52.1196   18.1606 C   0  0  0  0  0  0
    2.7023   50.8049   18.5441 N   0  0  0  0  0  0
    2.9567   50.0085   17.9611 H   0  0  0  0  0  0
    2.0167   52.4859   21.7875 C   0  0  2  0  0  0
    1.2061   53.2152   21.7406 H   0  0  0  0  0  0
    3.1265   53.2288   22.5488 C   0  0  0  0  0  0
    4.4510   53.2708   22.0834 C   0  0  0  0  0  0
    5.4473   53.8988   22.8346 C   0  0  0  0  0  0
    5.1337   54.4960   24.0545 C   0  0  0  0  0  0
    3.8178   54.4835   24.5132 C   0  0  0  0  0  0
    2.8197   53.8614   23.7637 C   0  0  0  0  0  0
    1.5524   53.8653   24.2349 F   0  0  0  0  0  0
    6.4978   55.3446   25.0790 Br  0  0  0  0  0  0
   -0.3812   50.9246   28.5619 H   0  0  0  0  0  0
    1.3422   50.9058   28.1742 H   0  0  0  0  0  0
    0.3556   52.3055   27.7296 H   0  0  0  0  0  0
   -1.2937   47.9711   23.9838 H   0  0  0  0  0  0
   -0.8292   48.1512   25.6476 H   0  0  0  0  0  0
   -3.1731   48.7095   26.2711 H   0  0  0  0  0  0
   -3.6424   48.7193   24.5895 H   0  0  0  0  0  0
   -1.7033   46.2522   27.1001 H   0  0  0  0  0  0
   -3.2651   46.7288   27.7786 H   0  0  0  0  0  0
   -2.9990   45.0590   27.2760 H   0  0  0  0  0  0
    0.6923   49.4949   23.9802 H   0  0  0  0  0  0
    3.3570   50.2834   22.3713 H   0  0  0  0  0  0
    2.1647   49.2522   22.9922 H   0  0  0  0  0  0
    2.7044   48.7193   20.5071 H   0  0  0  0  0  0
    1.0425   49.2010   20.6549 H   0  0  0  0  0  0
    3.1610   52.4637   17.1861 H   0  0  0  0  0  0
    4.7275   52.7942   21.1545 H   0  0  0  0  0  0
    6.4670   53.9170   22.4816 H   0  0  0  0  0  0
    3.5645   54.9501   25.4531 H   0  0  0  0  0  0
    2.5960   53.9117   19.3104 H   0  0  0  0  0  0
  1  2  1  0  0  0
  1 33  1  0  0  0
  1 34  1  0  0  0
  1 35  1  0  0  0
  2  3  1  0  0  0
  3  4  2  0  0  0
  3  5  1  0  0  0
  5  6  1  0  0  0
  5  7  1  0  0  0
  5 11  1  0  0  0
  7  8  1  0  0  0
  7 36  1  0  0  0
  7 37  1  0  0  0
  8  9  1  0  0  0
  8 38  1  0  0  0
  8 39  1  0  0  0
  9 10  1  0  0  0
 10 40  1  0  0  0
 10 41  1  0  0  0
 10 42  1  0  0  0
 11 12  1  0  0  0
 11 43  1  0  0  0
 12 13  2  0  0  0
 12 14  1  0  0  0
 14 23  1  0  0  0
 14 15  1  0  0  0
 15 16  1  0  0  0
 15 44  1  0  0  0
 15 45  1  0  0  0
 16 17  1  0  0  0
 16 46  1  0  0  0
 16 47  1  0  0  0
 17 21  1  0  0  0
 17 18  2  0  0  0
 18 19  1  0  0  0
 18 23  1  0  0  0
 19 20  2  0  0  0
 19 52  1  0  0  0
 20 21  1  0  0  0
 20 48  1  0  0  0
 21 22  1  0  0  0
 23 24  1  0  0  0
 23 25  1  0  0  0
 25 30  2  0  0  0
 25 26  1  0  0  0
 26 27  2  0  0  0
 26 49  1  0  0  0
 27 28  1  0  0  0
 27 50  1  0  0  0
 28 29  2  0  0  0
 28 32  1  0  0  0
 29 30  1  0  0  0
 29 51  1  0  0  0
 30 31  1  0  0  0
M  CHG  1  19   1
M  END
> <i_i_glide_confnum>
180

> <i_i_glide_lignum>
1232

> <i_i_glide_posenum>
151

> <i_i_glide_rotatable_bonds>
9

> <i_m_Source_File_Index>
5367

> <b_m_subgroup_collapsed>
0

> <r_i_docking_score>
-5.5216

> <r_i_glide_ecoul>
-9.65468

> <r_i_glide_eff_state_penalty>
0

> <r_i_glide_einternal>
6.3085

> <r_i_glide_emodel>
-59.9025

> <r_i_glide_energy>
-44.2451

> <r_i_glide_erotb>
0.601327

> <r_i_glide_esite>
-0.231582

> <r_i_glide_evdw>
-34.5905

> <r_i_glide_gscore>
-5.5216

> <r_i_glide_hbond>
-0.193617

> <r_i_glide_ligand_efficiency>
-0.1904

> <r_i_glide_ligand_efficiency_ln>
-1.26431

> <r_i_glide_ligand_efficiency_sa>
-0.58497

> <r_i_glide_lipo>
-1.81083

> <r_i_glide_metal>
0

> <r_i_glide_rewards>
-0.709177

> <s_i_glide_gridfile>
wee1_glide-grid

> <s_m_Source_File>
wee1_decoys_glide_SP.sdf

> <s_m_Source_Path>
/Users/zhangxujun/Desktop

> <s_m_entry_id>
5642

> <s_m_entry_name>
wee1_decoys_glide_SP.5367

> <s_m_subgroup_title>
wee1_decoys_glide_SP

> <s_m_subgroupid>
wee1_decoys_glide_SP


$$$$
