ZINC58714719_1910
                    3D
 Schrodinger Suite 2024-2.
 52 55  0  0  1  0            999 V2000
    5.5086   53.8130   22.4098 C   0  0  0  0  0  0
    4.7358   52.7749   21.5745 C   0  0  0  0  0  0
    3.2270   53.0768   21.5501 C   0  0  2  0  0  0
    2.6490   53.1681   22.9758 C   0  0  0  0  0  0
    3.4085   54.1772   23.8647 C   0  0  0  0  0  0
    4.9477   53.9741   23.8341 C   0  0  2  0  0  0
    5.7285   54.8970   24.6534 N   0  0  0  0  0  0
    5.9495   54.8759   25.9772 C   0  0  0  0  0  0
    6.7046   55.6955   26.4809 O   0  0  0  0  0  0
    5.2926   53.9467   26.6877 N   0  0  0  0  0  0
    5.0602   53.9655   28.1379 C   0  0  0  0  0  0
    3.5635   53.8018   28.5258 C   0  0  0  0  0  0
    3.4106   53.6244   30.0672 C   0  0  0  0  0  0
    1.9100   53.4492   30.4556 C   0  0  1  0  0  0
    1.1105   54.7037   30.0040 C   0  0  0  0  0  0
    1.2423   54.8694   28.4663 C   0  0  1  0  0  0
    2.7343   55.0493   28.1057 C   0  0  0  0  0  0
    0.6848   53.6076   27.7594 C   0  0  0  0  0  0
    1.4559   52.3585   28.2242 C   0  0  2  0  0  0
    1.3278   52.1964   29.7545 C   0  0  0  0  0  0
    2.9418   52.5469   27.8521 C   0  0  0  0  0  0
    2.5307   52.1181   20.7822 O   0  0  0  0  0  0
    6.5595   53.5325   22.4818 H   0  0  0  0  0  0
    5.4736   54.7762   21.8969 H   0  0  0  0  0  0
    5.1337   52.7329   20.5601 H   0  0  0  0  0  0
    4.9061   51.7887   22.0076 H   0  0  0  0  0  0
    3.1060   54.0594   21.0918 H   0  0  0  0  0  0
    1.5894   53.4229   22.9365 H   0  0  0  0  0  0
    2.7042   52.1890   23.4498 H   0  0  0  0  0  0
    3.1743   55.1828   23.5172 H   0  0  0  0  0  0
    3.0345   54.1097   24.8854 H   0  0  0  0  0  0
    5.1132   52.9922   24.2683 H   0  0  0  0  0  0
    6.1684   55.6520   24.1483 H   0  0  0  0  0  0
    4.9516   53.1334   26.1982 H   0  0  0  0  0  0
    5.6425   53.1446   28.5559 H   0  0  0  0  0  0
    5.4603   54.8738   28.5985 H   0  0  0  0  0  0
    3.9884   52.7632   30.4118 H   0  0  0  0  0  0
    3.8526   54.4962   30.5478 H   0  0  0  0  0  0
    1.8029   53.2966   31.5290 H   0  0  0  0  0  0
    0.0642   54.6017   30.2860 H   0  0  0  0  0  0
    1.4781   55.5939   30.5161 H   0  0  0  0  0  0
    0.7043   55.7510   28.1223 H   0  0  0  0  0  0
    3.1054   55.9416   28.6054 H   0  0  0  0  0  0
    2.8492   55.2281   27.0359 H   0  0  0  0  0  0
   -0.3814   53.4960   27.9596 H   0  0  0  0  0  0
    0.7973   53.6953   26.6799 H   0  0  0  0  0  0
    1.0560   51.4724   27.7293 H   0  0  0  0  0  0
    1.8508   51.2985   30.0787 H   0  0  0  0  0  0
    0.2815   52.0554   30.0339 H   0  0  0  0  0  0
    3.0450   52.5810   26.7676 H   0  0  0  0  0  0
    3.5044   51.6923   28.1961 H   0  0  0  0  0  0
    2.9469   52.0518   19.9177 H   0  0  0  0  0  0
  1  6  1  0  0  0
  1  2  1  0  0  0
  1 23  1  0  0  0
  1 24  1  0  0  0
  2  3  1  0  0  0
  2 25  1  0  0  0
  2 26  1  0  0  0
  3  4  1  0  0  0
  3 22  1  0  0  0
  3 27  1  0  0  0
  4  5  1  0  0  0
  4 28  1  0  0  0
  4 29  1  0  0  0
  5  6  1  0  0  0
  5 30  1  0  0  0
  5 31  1  0  0  0
  6  7  1  0  0  0
  6 32  1  0  0  0
  7  8  1  0  0  0
  7 33  1  0  0  0
  8  9  2  0  0  0
  8 10  1  0  0  0
 10 11  1  0  0  0
 10 34  1  0  0  0
 11 12  1  0  0  0
 11 35  1  0  0  0
 11 36  1  0  0  0
 12 17  1  0  0  0
 12 21  1  0  0  0
 12 13  1  0  0  0
 13 14  1  0  0  0
 13 37  1  0  0  0
 13 38  1  0  0  0
 14 20  1  0  0  0
 14 15  1  0  0  0
 14 39  1  0  0  0
 15 16  1  0  0  0
 15 40  1  0  0  0
 15 41  1  0  0  0
 16 17  1  0  0  0
 16 18  1  0  0  0
 16 42  1  0  0  0
 17 43  1  0  0  0
 17 44  1  0  0  0
 18 19  1  0  0  0
 18 45  1  0  0  0
 18 46  1  0  0  0
 19 20  1  0  0  0
 19 21  1  0  0  0
 19 47  1  0  0  0
 20 48  1  0  0  0
 20 49  1  0  0  0
 21 50  1  0  0  0
 21 51  1  0  0  0
 22 52  1  0  0  0
M  END
> <i_i_glide_confnum>
7

> <i_i_glide_lignum>
1911

> <i_i_glide_posenum>
110

> <i_i_glide_rotatable_bonds>
6

> <i_m_Source_File_Index>
4935

> <b_m_subgroup_collapsed>
0

> <r_i_docking_score>
-5.36522

> <r_i_glide_ecoul>
-3.35694

> <r_i_glide_eff_state_penalty>
0

> <r_i_glide_einternal>
4.88069

> <r_i_glide_emodel>
-36.7398

> <r_i_glide_energy>
-30.8719

> <r_i_glide_erotb>
0.786822

> <r_i_glide_esite>
0

> <r_i_glide_evdw>
-27.5149

> <r_i_glide_gscore>
-5.36522

> <r_i_glide_hbond>
-0.32

> <r_i_glide_ligand_efficiency>
-0.243873

> <r_i_glide_ligand_efficiency_ln>
-1.31145

> <r_i_glide_ligand_efficiency_sa>
-0.683343

> <r_i_glide_lipo>
-2.83738

> <r_i_glide_metal>
0

> <r_i_glide_rewards>
-1.11537

> <s_i_glide_gridfile>
wee1_glide-grid

> <s_m_Source_File>
wee1_decoys_glide_SP.sdf

> <s_m_Source_Path>
/Users/zhangxujun/Desktop

> <s_m_entry_id>
5210

> <s_m_entry_name>
wee1_decoys_glide_SP.4935

> <s_m_subgroup_title>
wee1_decoys_glide_SP

> <s_m_subgroupid>
wee1_decoys_glide_SP


$$$$
