@<TRIPOS>MOLECULE
ZINC36053125_4637
63   67    1
SMALL
USER_CHARGES


@<TRIPOS>ATOM
      1 C1          0.1184   48.9226   24.2600 C.3       1 UNK         0.0000 
      2 C2          0.3748   50.3954   24.5463 C.ar      1 UNK         0.0000 
      3 C3          0.6961   50.7627   25.8588 C.ar      1 UNK         0.0000 
      4 C4          0.9779   52.0887   26.1816 C.ar      1 UNK         0.0000 
      5 C5          0.9485   53.0541   25.1840 C.ar      1 UNK         0.0000 
      6 C6          0.6091   52.7122   23.8860 C.ar      1 UNK         0.0000 
      7 C7          0.2925   51.3930   23.5492 C.ar      1 UNK         0.0000 
      8 C8         -0.2955   51.1545   22.1444 C.3       1 UNK         0.0000 
      9 H9         -0.4362   52.1378   21.6917 H         1 UNK         0.0000 
     10 C10        -1.7130   50.4868   22.1238 C.2       1 UNK         0.0000 
     11 C11        -1.9115   49.3512   21.3805 C.2       1 UNK         0.0000 
     12 N12        -0.9230   48.7419   20.6613 N.2       1 UNK         0.0000 
     13 C13         0.2266   49.2915   20.5928 C.2       1 UNK         0.0000 
     14 N14         0.6400   50.4694   21.2101 N.pl3     1 UNK         0.0000 
     15 C15         1.8866   50.9391   20.8095 C.2       1 UNK         0.0000 
     16 C16         2.5175   50.0508   20.0177 C.2       1 UNK         0.0000 
     17 S17         1.5827   48.5966   19.6894 S.3       1 UNK         0.0000 
     18 C18         2.4723   52.2256   21.1817 C.2       1 UNK         0.0000 
     19 C19         3.7808   52.4917   21.3663 C.2       1 UNK         0.0000 
     20 O20         4.7921   51.7024   21.2855 O.co2     1 UNK         0.0000 
     21 N21         4.1915   53.7745   21.6788 N.pl3     1 UNK         0.0000 
     22 C22         5.3745   54.2390   22.4152 C.3       1 UNK         0.0000 
     23 C23         5.2070   54.2913   23.9349 C.ar      1 UNK         0.0000 
     24 C24         3.9392   54.4422   24.5350 C.ar      1 UNK         0.0000 
     25 C25         3.8044   54.5002   25.9291 C.ar      1 UNK         0.0000 
     26 C26         4.9471   54.3848   26.6946 C.ar      1 UNK         0.0000 
     27 C27         6.1813   54.2607   26.1291 C.ar      1 UNK         0.0000 
     28 C28         6.3554   54.2252   24.7474 C.ar      1 UNK         0.0000 
     29 O29         7.1050   54.2039   27.1231 O.3       1 UNK         0.0000 
     30 C30         6.3628   53.9736   28.2916 C.3       1 UNK         0.0000 
     31 O31         5.0555   54.3956   28.0463 O.3       1 UNK         0.0000 
     32 C32        -3.2185   48.5881   21.1647 C.3       1 UNK         0.0000 
     33 C33        -2.7602   51.0729   23.0091 C.2       1 UNK         0.0000 
     34 O34        -3.8090   50.4989   23.3088 O.2       1 UNK         0.0000 
     35 O35        -2.4128   52.2767   23.5369 O.3       1 UNK         0.0000 
     36 C36        -2.9958   52.7613   24.7444 C.3       1 UNK         0.0000 
     37 C37        -4.1155   53.7420   24.4822 C.2       1 UNK         0.0000 
     38 C38        -5.3612   53.6154   24.9653 C.2       1 UNK         0.0000 
     39 H39         0.5121   48.2841   25.0534 H         1 UNK         0.0000 
     40 H40        -0.9484   48.7234   24.1501 H         1 UNK         0.0000 
     41 H41         0.6268   48.6197   23.3461 H         1 UNK         0.0000 
     42 H42         0.7291   50.0137   26.6374 H         1 UNK         0.0000 
     43 H43         1.2213   52.3612   27.1979 H         1 UNK         0.0000 
     44 H44         1.1338   54.0918   25.4079 H         1 UNK         0.0000 
     45 H45         0.5417   53.5023   23.1552 H         1 UNK         0.0000 
     46 H46         3.4982   50.1739   19.5720 H         1 UNK         0.0000 
     47 H47         1.7840   53.0494   21.2911 H         1 UNK         0.0000 
     48 H48         3.4558   54.4622   21.6861 H         1 UNK         0.0000 
     49 H49         6.2019   53.5619   22.2099 H         1 UNK         0.0000 
     50 H50         5.6762   55.2150   22.0357 H         1 UNK         0.0000 
     51 H51         3.0557   54.5254   23.9204 H         1 UNK         0.0000 
     52 H52         2.8517   54.6290   26.4126 H         1 UNK         0.0000 
     53 H53         7.3389   54.1305   24.3094 H         1 UNK         0.0000 
     54 H54         6.7605   54.4890   29.1644 H         1 UNK         0.0000 
     55 H55         6.3620   52.9027   28.5012 H         1 UNK         0.0000 
     56 H56        -4.1037   49.2069   21.3019 H         1 UNK         0.0000 
     57 H57        -3.2908   48.2000   20.1469 H         1 UNK         0.0000 
     58 H58        -3.2742   47.7416   21.8492 H         1 UNK         0.0000 
     59 H59        -2.2173   53.2751   25.3078 H         1 UNK         0.0000 
     60 H60        -3.3402   51.9448   25.3835 H         1 UNK         0.0000 
     61 H61        -3.8723   54.5866   23.8535 H         1 UNK         0.0000 
     62 H62        -5.6379   52.7790   25.5931 H         1 UNK         0.0000 
     63 H63        -6.1264   54.3419   24.7334 H         1 UNK         0.0000 
@<TRIPOS>BOND
     1    1    2 1    
     2    1   39 1    
     3    1   40 1    
     4    1   41 1    
     5    2    7 ar   
     6    2    3 ar   
     7    3    4 ar   
     8    3   42 1    
     9    4    5 ar   
    10    4   43 1    
    11    5    6 ar   
    12    5   44 1    
    13    6    7 ar   
    14    6   45 1    
    15    7    8 1    
    16    8    9 1    
    17    8   14 1    
    18    8   10 1    
    19   10   11 2    
    20   10   33 1    
    21   11   12 1    
    22   11   32 1    
    23   12   13 2    
    24   13   17 1    
    25   13   14 1    
    26   14   15 1    
    27   15   16 2    
    28   15   18 1    
    29   16   17 1    
    30   16   46 1    
    31   18   19 2    
    32   18   47 1    
    33   19   20 1    
    34   19   21 1    
    35   21   22 1    
    36   21   48 1    
    37   22   23 1    
    38   22   49 1    
    39   22   50 1    
    40   23   28 ar   
    41   23   24 ar   
    42   24   25 ar   
    43   24   51 1    
    44   25   26 ar   
    45   25   52 1    
    46   26   31 1    
    47   26   27 ar   
    48   27   28 ar   
    49   27   29 1    
    50   28   53 1    
    51   29   30 1    
    52   30   31 1    
    53   30   54 1    
    54   30   55 1    
    55   32   56 1    
    56   32   57 1    
    57   32   58 1    
    58   33   34 2    
    59   33   35 1    
    60   35   36 1    
    61   36   37 1    
    62   36   59 1    
    63   36   60 1    
    64   37   38 2    
    65   37   61 1    
    66   38   62 1    
    67   38   63 1    
@<TRIPOS>SUBSTRUCTURE
     1 UNK         1 GROUP             0       ****    0 ROOT    
