@<TRIPOS>MOLECULE
ZINC20464134_5433
52   55    1
SMALL
USER_CHARGES


@<TRIPOS>ATOM
      1 C1          7.0707   53.0235   17.6228 C.3       1 UNK         0.0000 
      2 N2          5.6506   53.3318   18.1429 N.4       1 UNK         0.0000 
      3 C3          4.5449   53.1403   17.0786 C.3       1 UNK         0.0000 
      4 C4          3.4629   54.1778   17.4104 C.3       1 UNK         0.0000 
      5 H5          3.2884   54.8160   16.5449 H         1 UNK         0.0000 
      6 C6          3.9796   55.0242   18.5682 C.3       1 UNK         0.0000 
      7 C7          5.4851   54.7641   18.6956 C.3       1 UNK         0.0000 
      8 H8          6.0509   55.4174   18.0256 H         1 UNK         0.0000 
      9 C9          6.0054   54.8966   20.1196 C.2       1 UNK         0.0000 
     10 N10         5.4160   54.4979   21.2139 N.2       1 UNK         0.0000 
     11 C11         6.2446   54.8965   22.1601 C.2       1 UNK         0.0000 
     12 N12         7.3484   55.4767   21.7241 N.2       1 UNK         0.0000 
     13 O13         7.2050   55.4827   20.3355 O.3       1 UNK         0.0000 
     14 C14         5.8943   54.7518   23.6239 C.ar      1 UNK         0.0000 
     15 C15         4.6943   54.1357   24.0122 C.ar      1 UNK         0.0000 
     16 C16         4.3174   54.0868   25.3538 C.ar      1 UNK         0.0000 
     17 C17         5.1602   54.6002   26.3456 C.ar      1 UNK         0.0000 
     18 C18         6.3525   55.2043   25.9660 C.ar      1 UNK         0.0000 
     19 C19         6.7063   55.2972   24.6223 C.ar      1 UNK         0.0000 
     20 O20         4.9058   54.5657   27.7034 O.3       1 UNK         0.0000 
     21 C21         3.6329   54.1573   28.1946 C.3       1 UNK         0.0000 
     22 F22         2.6477   54.8974   27.6858 F         1 UNK         0.0000 
     23 F23         3.6389   54.3449   29.5143 F         1 UNK         0.0000 
     24 F24         3.4101   52.8647   27.9692 F         1 UNK         0.0000 
     25 N25         2.1335   53.5940   17.6820 N.pl3     1 UNK         0.0000 
     26 S26         0.8940   53.5818   16.4382 S.o2      1 UNK         0.0000 
     27 O27         1.5448   53.2727   15.1595 O.2       1 UNK         0.0000 
     28 O28        -0.2170   52.7675   16.9437 O.2       1 UNK         0.0000 
     29 C29         0.3031   55.2716   16.3563 C.ar      1 UNK         0.0000 
     30 C30        -0.7645   55.6642   17.1660 C.ar      1 UNK         0.0000 
     31 C31        -1.2526   56.9647   17.0832 C.ar      1 UNK         0.0000 
     32 C32        -0.6725   57.8640   16.1919 C.ar      1 UNK         0.0000 
     33 C33         0.4058   57.4810   15.3961 C.ar      1 UNK         0.0000 
     34 C34         0.8962   56.1801   15.4766 C.ar      1 UNK         0.0000 
     35 Cl35       -1.2932   59.4669   16.0808 Cl        1 UNK         0.0000 
     36 H36         7.2459   53.6201   16.7273 H         1 UNK         0.0000 
     37 H37         7.7733   53.2970   18.4078 H         1 UNK         0.0000 
     38 H38         7.1108   51.9543   17.4029 H         1 UNK         0.0000 
     39 H39         4.9798   53.3406   16.0987 H         1 UNK         0.0000 
     40 H40         4.2241   52.0992   17.1368 H         1 UNK         0.0000 
     41 H41         3.5044   54.6729   19.4824 H         1 UNK         0.0000 
     42 H42         3.7451   56.0853   18.4820 H         1 UNK         0.0000 
     43 H43         4.0256   53.7176   23.2751 H         1 UNK         0.0000 
     44 H44         3.3815   53.6120   25.6057 H         1 UNK         0.0000 
     45 H45         6.9896   55.6216   26.7322 H         1 UNK         0.0000 
     46 H46         7.6152   55.8160   24.3613 H         1 UNK         0.0000 
     47 H47         1.7803   53.7683   18.6293 H         1 UNK         0.0000 
     48 H48        -1.2177   54.9660   17.8542 H         1 UNK         0.0000 
     49 H49        -2.0804   57.2766   17.7004 H         1 UNK         0.0000 
     50 H50         0.8530   58.1895   14.7143 H         1 UNK         0.0000 
     51 H51         1.7252   55.8800   14.8489 H         1 UNK         0.0000 
     52 H52         5.4206   52.6789   18.8845 H         1 UNK         0.0000 
@<TRIPOS>BOND
     1    1    2 1    
     2    1   36 1    
     3    1   37 1    
     4    1   38 1    
     5    2    7 1    
     6    2    3 1    
     7    2   52 1    
     8    3    4 1    
     9    3   39 1    
    10    3   40 1    
    11    4    5 1    
    12    4    6 1    
    13    4   25 1    
    14    6    7 1    
    15    6   41 1    
    16    6   42 1    
    17    7    8 1    
    18    7    9 1    
    19    9   13 1    
    20    9   10 2    
    21   10   11 1    
    22   11   12 2    
    23   11   14 1    
    24   12   13 1    
    25   14   19 ar   
    26   14   15 ar   
    27   15   16 ar   
    28   15   43 1    
    29   16   17 ar   
    30   16   44 1    
    31   17   18 ar   
    32   17   20 1    
    33   18   19 ar   
    34   18   45 1    
    35   19   46 1    
    36   20   21 1    
    37   21   22 1    
    38   21   23 1    
    39   21   24 1    
    40   25   26 1    
    41   25   47 1    
    42   26   27 2    
    43   26   28 2    
    44   26   29 1    
    45   29   34 ar   
    46   29   30 ar   
    47   30   31 ar   
    48   30   48 1    
    49   31   32 ar   
    50   31   49 1    
    51   32   33 ar   
    52   32   35 1    
    53   33   34 ar   
    54   33   50 1    
    55   34   51 1    
@<TRIPOS>SUBSTRUCTURE
     1 UNK         1 GROUP             0       ****    0 ROOT    
