@<TRIPOS>MOLECULE
ZINC02332062_4520
47   50    1
SMALL
USER_CHARGES


@<TRIPOS>ATOM
      1 C1          4.5831   53.9679   19.3548 C.ar      1 UNK         0.0000 
      2 C2          5.4871   54.9729   19.6881 C.ar      1 UNK         0.0000 
      3 C3          5.9354   55.0856   21.0007 C.ar      1 UNK         0.0000 
      4 C4          5.5054   54.1916   21.9770 C.ar      1 UNK         0.0000 
      5 C5          4.6119   53.1797   21.6396 C.ar      1 UNK         0.0000 
      6 C6          4.1322   53.0706   20.3273 C.ar      1 UNK         0.0000 
      7 C7          3.1084   52.0094   19.9025 C.3       1 UNK         0.0000 
      8 O8          2.8583   50.9919   20.8790 O.3       1 UNK         0.0000 
      9 C9          2.0541   51.2395   21.9753 C.ar      1 UNK         0.0000 
     10 C10         1.4525   52.4720   22.2640 C.ar      1 UNK         0.0000 
     11 C11         0.8017   52.6681   23.4799 C.ar      1 UNK         0.0000 
     12 C12         0.7450   51.6495   24.4360 C.ar      1 UNK         0.0000 
     13 C13         1.2203   50.3736   24.0802 C.ar      1 UNK         0.0000 
     14 C14         1.8872   50.1879   22.8723 C.ar      1 UNK         0.0000 
     15 O15         1.1034   49.2973   24.9213 O.3       1 UNK         0.0000 
     16 C16         0.2266   51.9339   25.8028 C.ar      1 UNK         0.0000 
     17 C17         0.9490   52.6125   26.8237 C.ar      1 UNK         0.0000 
     18 C18         0.3100   52.6598   28.0730 C.ar      1 UNK         0.0000 
     19 N19        -0.8950   52.0947   28.3243 N.ar      1 UNK         0.0000 
     20 C20        -1.4999   51.4926   27.2786 C.ar      1 UNK         0.0000 
     21 N21        -1.0059   51.3982   26.0238 N.ar      1 UNK         0.0000 
     22 N22        -2.7283   50.8977   27.5212 N.pl3     1 UNK         0.0000 
     23 C23         2.3235   53.2025   26.7015 C.ar      1 UNK         0.0000 
     24 C24         2.6957   54.0740   25.6671 C.ar      1 UNK         0.0000 
     25 C25         3.9925   54.5684   25.5798 C.ar      1 UNK         0.0000 
     26 C26         4.9285   54.2310   26.5513 C.ar      1 UNK         0.0000 
     27 C27         4.5731   53.4084   27.6148 C.ar      1 UNK         0.0000 
     28 C28         3.2778   52.8996   27.6839 C.ar      1 UNK         0.0000 
     29 Br29        6.7040   54.8944   26.4172 Br        1 UNK         0.0000 
     30 F30         6.7994   56.0724   21.3276 F         1 UNK         0.0000 
     31 H31         4.2247   53.8914   18.3365 H         1 UNK         0.0000 
     32 H32         5.8281   55.6717   18.9382 H         1 UNK         0.0000 
     33 H33         5.8690   54.2829   22.9901 H         1 UNK         0.0000 
     34 H34         4.2940   52.4973   22.4118 H         1 UNK         0.0000 
     35 H35         2.1810   52.4841   19.5784 H         1 UNK         0.0000 
     36 H36         3.5000   51.4991   19.0206 H         1 UNK         0.0000 
     37 H37         1.5294   53.3019   21.5806 H         1 UNK         0.0000 
     38 H38         0.3769   53.6367   23.6964 H         1 UNK         0.0000 
     39 H39         2.3219   49.2271   22.6387 H         1 UNK         0.0000 
     40 H40         1.6928   48.5695   24.6839 H         1 UNK         0.0000 
     41 H41         0.7764   53.1432   28.9208 H         1 UNK         0.0000 
     42 H42        -2.8542   50.6443   28.4911 H         1 UNK         0.0000 
     43 H43        -2.9764   50.2106   26.8270 H         1 UNK         0.0000 
     44 H44         1.9846   54.3895   24.9237 H         1 UNK         0.0000 
     45 H45         4.2660   55.2198   24.7644 H         1 UNK         0.0000 
     46 H46         5.3038   53.1481   28.3665 H         1 UNK         0.0000 
     47 H47         3.0249   52.2346   28.4957 H         1 UNK         0.0000 
@<TRIPOS>BOND
     1    1    6 ar   
     2    1    2 ar   
     3    1   31 1    
     4    2    3 ar   
     5    2   32 1    
     6    3    4 ar   
     7    3   30 1    
     8    4    5 ar   
     9    4   33 1    
    10    5    6 ar   
    11    5   34 1    
    12    6    7 1    
    13    7    8 1    
    14    7   35 1    
    15    7   36 1    
    16    8    9 1    
    17    9   14 ar   
    18    9   10 ar   
    19   10   11 ar   
    20   10   37 1    
    21   11   12 ar   
    22   11   38 1    
    23   12   13 ar   
    24   12   16 1    
    25   13   14 ar   
    26   13   15 1    
    27   14   39 1    
    28   15   40 1    
    29   16   21 ar   
    30   16   17 ar   
    31   17   18 ar   
    32   17   23 1    
    33   18   19 ar   
    34   18   41 1    
    35   19   20 ar   
    36   20   21 ar   
    37   20   22 1    
    38   22   42 1    
    39   22   43 1    
    40   23   28 ar   
    41   23   24 ar   
    42   24   25 ar   
    43   24   44 1    
    44   25   26 ar   
    45   25   45 1    
    46   26   27 ar   
    47   26   29 1    
    48   27   28 ar   
    49   27   46 1    
    50   28   47 1    
@<TRIPOS>SUBSTRUCTURE
     1 UNK         1 GROUP             0       ****    0 ROOT    
