@<TRIPOS>MOLECULE
ZINC28286083_3977
67   71    1
SMALL
USER_CHARGES


@<TRIPOS>ATOM
      1 C1          0.2120   48.5045   24.1447 C.3       1 UNK         0.0000 
      2 C2         -1.0149   48.1975   23.2736 C.3       1 UNK         0.0000 
      3 C3         -2.3366   48.9274   23.6378 C.3       1 UNK         0.0000 
      4 H4         -3.1089   48.3221   23.1618 H         1 UNK         0.0000 
      5 C5         -2.4964   50.3145   22.9541 C.3       1 UNK         0.0000 
      6 N6         -1.6832   51.3676   23.5414 N.pl3     1 UNK         0.0000 
      7 C7         -0.4475   51.7732   23.0156 C.ar      1 UNK         0.0000 
      8 C8          0.4856   52.3196   23.8969 C.ar      1 UNK         0.0000 
      9 C9          1.7260   52.7939   23.3932 C.ar      1 UNK         0.0000 
     10 C10         2.5718   53.3590   24.3837 C.ar      1 UNK         0.0000 
     11 C11         3.8597   53.9691   24.2972 C.ar      1 UNK         0.0000 
     12 C12         4.4338   54.4316   25.5076 C.ar      1 UNK         0.0000 
     13 C13         3.7253   54.2464   26.7119 C.ar      1 UNK         0.0000 
     14 N14         2.5075   53.6661   26.7831 N.ar      1 UNK         0.0000 
     15 C15         1.9714   53.2574   25.6581 C.ar      1 UNK         0.0000 
     16 S16         0.4198   52.4713   25.6295 S.3       1 UNK         0.0000 
     17 N17         4.2764   54.5460   27.9521 N.pl3     1 UNK         0.0000 
     18 C18         5.1423   53.5579   28.6129 C.3       1 UNK         0.0000 
     19 C19         4.3252   52.5301   29.4412 C.3       1 UNK         0.0000 
     20 O20         3.5044   53.1918   30.4064 O.3       1 UNK         0.0000 
     21 C21         2.6281   54.1544   29.8251 C.3       1 UNK         0.0000 
     22 C22         3.4561   55.1739   29.0051 C.3       1 UNK         0.0000 
     23 C23         5.7783   55.1684   25.4876 C.3       1 UNK         0.0000 
     24 O24         6.2118   55.5442   24.1794 O.3       1 UNK         0.0000 
     25 C25         6.1035   54.5786   23.1326 C.3       1 UNK         0.0000 
     26 C26         4.6117   54.1539   22.9796 C.3       1 UNK         0.0000 
     27 C27         7.0126   53.3774   23.4480 C.3       1 UNK         0.0000 
     28 C28         6.5470   55.3132   21.8551 C.3       1 UNK         0.0000 
     29 N29         2.0344   52.6888   22.0923 N.ar      1 UNK         0.0000 
     30 C30         1.0874   52.0924   21.3073 C.ar      1 UNK         0.0000 
     31 N31        -0.1361   51.6467   21.6990 N.ar      1 UNK         0.0000 
     32 S32         1.4781   51.8180   19.6045 S.3       1 UNK         0.0000 
     33 C33         3.2028   52.3184   19.3387 C.3       1 UNK         0.0000 
     34 C34        -2.7108   48.8803   25.1514 C.3       1 UNK         0.0000 
     35 O35        -1.8975   49.6842   25.9939 O.3       1 UNK         0.0000 
     36 H36         1.1030   48.0971   23.6816 H         1 UNK         0.0000 
     37 H37         0.1248   48.0653   25.1379 H         1 UNK         0.0000 
     38 H38         0.3807   49.5689   24.2741 H         1 UNK         0.0000 
     39 H39        -0.7645   48.4157   22.2331 H         1 UNK         0.0000 
     40 H40        -1.1826   47.1205   23.3058 H         1 UNK         0.0000 
     41 H41        -2.3204   50.2404   21.8793 H         1 UNK         0.0000 
     42 H42        -3.5352   50.6321   23.0430 H         1 UNK         0.0000 
     43 H43        -1.7354   51.3923   24.5532 H         1 UNK         0.0000 
     44 H44         5.7588   53.0444   27.8721 H         1 UNK         0.0000 
     45 H45         5.8407   54.0862   29.2640 H         1 UNK         0.0000 
     46 H46         4.9895   51.8359   29.9543 H         1 UNK         0.0000 
     47 H47         3.6979   51.9348   28.7739 H         1 UNK         0.0000 
     48 H48         2.0553   54.6731   30.5897 H         1 UNK         0.0000 
     49 H49         1.8881   53.6470   29.2075 H         1 UNK         0.0000 
     50 H50         4.1344   55.6966   29.6738 H         1 UNK         0.0000 
     51 H51         2.8032   55.9335   28.5737 H         1 UNK         0.0000 
     52 H52         5.7131   56.0911   26.0612 H         1 UNK         0.0000 
     53 H53         6.5435   54.5673   25.9771 H         1 UNK         0.0000 
     54 H54         4.5610   53.2390   22.3907 H         1 UNK         0.0000 
     55 H55         4.0529   54.8967   22.4122 H         1 UNK         0.0000 
     56 H56         6.7105   52.4979   22.8816 H         1 UNK         0.0000 
     57 H57         8.0493   53.5902   23.1991 H         1 UNK         0.0000 
     58 H58         7.0047   53.1225   24.5022 H         1 UNK         0.0000 
     59 H59         6.5106   54.6588   20.9823 H         1 UNK         0.0000 
     60 H60         5.9141   56.1745   21.6441 H         1 UNK         0.0000 
     61 H61         7.5688   55.6827   21.9509 H         1 UNK         0.0000 
     62 H62         3.4968   52.1150   18.3089 H         1 UNK         0.0000 
     63 H63         3.3252   53.3843   19.5306 H         1 UNK         0.0000 
     64 H64         3.8724   51.7588   19.9925 H         1 UNK         0.0000 
     65 H65        -3.7431   49.2010   25.2994 H         1 UNK         0.0000 
     66 H66        -2.6278   47.8560   25.5204 H         1 UNK         0.0000 
     67 H67        -1.7310   49.1990   26.8216 H         1 UNK         0.0000 
@<TRIPOS>BOND
     1    1    2 1    
     2    1   36 1    
     3    1   37 1    
     4    1   38 1    
     5    2    3 1    
     6    2   39 1    
     7    2   40 1    
     8    3    4 1    
     9    3    5 1    
    10    3   34 1    
    11    5    6 1    
    12    5   41 1    
    13    5   42 1    
    14    6    7 1    
    15    6   43 1    
    16    7   31 ar   
    17    7    8 ar   
    18    8   16 1    
    19    8    9 ar   
    20    9   10 1    
    21    9   29 ar   
    22   10   15 ar   
    23   10   11 ar   
    24   11   26 1    
    25   11   12 ar   
    26   12   13 ar   
    27   12   23 1    
    28   13   14 ar   
    29   13   17 1    
    30   14   15 ar   
    31   15   16 1    
    32   17   22 1    
    33   17   18 1    
    34   18   19 1    
    35   18   44 1    
    36   18   45 1    
    37   19   20 1    
    38   19   46 1    
    39   19   47 1    
    40   20   21 1    
    41   21   22 1    
    42   21   48 1    
    43   21   49 1    
    44   22   50 1    
    45   22   51 1    
    46   23   24 1    
    47   23   52 1    
    48   23   53 1    
    49   24   25 1    
    50   25   26 1    
    51   25   27 1    
    52   25   28 1    
    53   26   54 1    
    54   26   55 1    
    55   27   56 1    
    56   27   57 1    
    57   27   58 1    
    58   28   59 1    
    59   28   60 1    
    60   28   61 1    
    61   29   30 ar   
    62   30   31 ar   
    63   30   32 1    
    64   32   33 1    
    65   33   62 1    
    66   33   63 1    
    67   33   64 1    
    68   34   35 1    
    69   34   65 1    
    70   34   66 1    
    71   35   67 1    
@<TRIPOS>SUBSTRUCTURE
     1 UNK         1 GROUP             0       ****    0 ROOT    
