@<TRIPOS>MOLECULE
ZINC00705515_2640
52   56    1
SMALL
USER_CHARGES


@<TRIPOS>ATOM
      1 C1         -0.6393   49.4236   23.2345 C.3       1 UNK         0.0000 
      2 O2          0.3986   49.1152   22.3093 O.3       1 UNK         0.0000 
      3 C3          1.1780   50.1354   21.8044 C.ar      1 UNK         0.0000 
      4 C4          2.2439   49.7559   20.9891 C.ar      1 UNK         0.0000 
      5 C5          3.0920   50.7151   20.4421 C.ar      1 UNK         0.0000 
      6 C6          2.8837   52.0676   20.7110 C.ar      1 UNK         0.0000 
      7 C7          1.7957   52.4580   21.4970 C.ar      1 UNK         0.0000 
      8 C8          0.9531   51.4991   22.0507 C.ar      1 UNK         0.0000 
      9 N9          3.7656   53.0399   20.1755 N.pl3     1 UNK         0.0000 
     10 C10         4.7660   53.5891   21.0034 C.2       1 UNK         0.0000 
     11 C11         5.5530   54.6185   20.5590 C.2       1 UNK         0.0000 
     12 C12         5.4928   55.1254   19.0921 C.3       1 UNK         0.0000 
     13 H13         5.3202   56.2033   19.1091 H         1 UNK         0.0000 
     14 C14         4.3276   54.4872   18.3367 C.2       1 UNK         0.0000 
     15 C15         3.5726   53.4972   18.8636 C.2       1 UNK         0.0000 
     16 N16         2.5792   52.8831   18.1278 N.pl3     1 UNK         0.0000 
     17 C17         4.0907   54.9386   16.9997 C.1       1 UNK         0.0000 
     18 N18         3.8721   55.2895   15.9193 N.1       1 UNK         0.0000 
     19 C19         6.8356   54.9648   18.3554 C.ar      1 UNK         0.0000 
     20 C20         7.2291   53.6906   17.8921 C.ar      1 UNK         0.0000 
     21 C21         8.4694   53.4946   17.2701 C.ar      1 UNK         0.0000 
     22 C22         9.3009   54.5982   17.1355 C.ar      1 UNK         0.0000 
     23 C23         8.9266   55.8383   17.5656 C.ar      1 UNK         0.0000 
     24 C24         7.6935   56.0664   18.1654 C.ar      1 UNK         0.0000 
     25 O25         9.9161   56.7283   17.2875 O.3       1 UNK         0.0000 
     26 C26        11.0094   55.9541   16.8718 C.3       1 UNK         0.0000 
     27 O27        10.5341   54.6697   16.5717 O.3       1 UNK         0.0000 
     28 C28         6.5093   55.3192   21.4561 C.2       1 UNK         0.0000 
     29 O29         7.0807   56.3597   21.1281 O.2       1 UNK         0.0000 
     30 C30         6.7157   54.7599   22.8681 C.3       1 UNK         0.0000 
     31 C31         5.4317   54.1303   23.4139 C.3       1 UNK         0.0000 
     32 C32         4.8947   53.0633   22.4510 C.3       1 UNK         0.0000 
     33 H33        -1.1297   48.5001   23.5450 H         1 UNK         0.0000 
     34 H34        -0.2441   49.9047   24.1304 H         1 UNK         0.0000 
     35 H35        -1.3998   50.0655   22.7866 H         1 UNK         0.0000 
     36 H36         2.4178   48.7107   20.7795 H         1 UNK         0.0000 
     37 H37         3.9044   50.4141   19.7985 H         1 UNK         0.0000 
     38 H38         1.6218   53.5070   21.6889 H         1 UNK         0.0000 
     39 H39         0.1322   51.8291   22.6671 H         1 UNK         0.0000 
     40 H40         2.3990   53.1697   17.1777 H         1 UNK         0.0000 
     41 H41         2.2395   51.9711   18.4050 H         1 UNK         0.0000 
     42 H42         6.5744   52.8397   18.0307 H         1 UNK         0.0000 
     43 H43         8.7631   52.5160   16.9237 H         1 UNK         0.0000 
     44 H44         7.4149   57.0537   18.5031 H         1 UNK         0.0000 
     45 H45        11.4863   56.4006   15.9977 H         1 UNK         0.0000 
     46 H46        11.7368   55.8853   17.6844 H         1 UNK         0.0000 
     47 H47         7.1029   55.5473   23.5136 H         1 UNK         0.0000 
     48 H48         7.4911   53.9978   22.8005 H         1 UNK         0.0000 
     49 H49         4.6740   54.8968   23.5734 H         1 UNK         0.0000 
     50 H50         5.6193   53.6852   24.3925 H         1 UNK         0.0000 
     51 H51         3.9157   52.8689   22.8825 H         1 UNK         0.0000 
     52 H52         5.4493   52.1234   22.4809 H         1 UNK         0.0000 
@<TRIPOS>BOND
     1    1    2 1    
     2    1   33 1    
     3    1   34 1    
     4    1   35 1    
     5    2    3 1    
     6    3    8 ar   
     7    3    4 ar   
     8    4    5 ar   
     9    4   36 1    
    10    5    6 ar   
    11    5   37 1    
    12    6    7 ar   
    13    6    9 1    
    14    7    8 ar   
    15    7   38 1    
    16    8   39 1    
    17    9   15 1    
    18    9   10 1    
    19   10   32 1    
    20   10   11 2    
    21   11   12 1    
    22   11   28 1    
    23   12   13 1    
    24   12   14 1    
    25   12   19 1    
    26   14   15 2    
    27   14   17 1    
    28   15   16 1    
    29   16   40 1    
    30   16   41 1    
    31   17   18 3    
    32   19   24 ar   
    33   19   20 ar   
    34   20   21 ar   
    35   20   42 1    
    36   21   22 ar   
    37   21   43 1    
    38   22   27 1    
    39   22   23 ar   
    40   23   24 ar   
    41   23   25 1    
    42   24   44 1    
    43   25   26 1    
    44   26   27 1    
    45   26   45 1    
    46   26   46 1    
    47   28   29 2    
    48   28   30 1    
    49   30   31 1    
    50   30   47 1    
    51   30   48 1    
    52   31   32 1    
    53   31   49 1    
    54   31   50 1    
    55   32   51 1    
    56   32   52 1    
@<TRIPOS>SUBSTRUCTURE
     1 UNK         1 GROUP             0       ****    0 ROOT    
