@<TRIPOS>MOLECULE
ZINC30979475_1184
62   65    1
SMALL
USER_CHARGES


@<TRIPOS>ATOM
      1 C1         -6.1200   52.3510   26.7187 C.3       1 UNK         0.0000 
      2 C2         -4.7388   52.3979   26.0949 C.ar      1 UNK         0.0000 
      3 C3         -4.5178   53.1255   24.9258 C.ar      1 UNK         0.0000 
      4 C4         -3.2460   53.1707   24.3658 C.ar      1 UNK         0.0000 
      5 C5         -2.1726   52.4967   24.9621 C.ar      1 UNK         0.0000 
      6 C6         -2.3863   51.7536   26.1471 C.ar      1 UNK         0.0000 
      7 C7         -3.6780   51.7201   26.6935 C.ar      1 UNK         0.0000 
      8 C8         -1.2970   50.9297   26.8609 C.3       1 UNK         0.0000 
      9 H9         -1.7610   50.4966   27.7486 H         1 UNK         0.0000 
     10 C10        -0.8232   49.7260   26.0231 C.3       1 UNK         0.0000 
     11 N11        -0.1496   51.6989   27.3370 N.am      1 UNK         0.0000 
     12 C12        -0.0217   52.2725   28.5484 C.2       1 UNK         0.0000 
     13 O13        -0.8937   52.2219   29.4128 O.2       1 UNK         0.0000 
     14 C14         1.3159   52.9845   28.8472 C.3       1 UNK         0.0000 
     15 C15         1.6415   54.0381   27.7552 C.3       1 UNK         0.0000 
     16 C16         3.0374   54.6449   27.9773 C.3       1 UNK         0.0000 
     17 N17         4.0586   53.4813   28.0217 N.4       1 UNK         0.0000 
     18 C18         3.8060   52.5719   29.2426 C.3       1 UNK         0.0000 
     19 C19         2.4251   51.9148   29.0350 C.3       1 UNK         0.0000 
     20 C20         5.5131   54.0215   27.9776 C.3       1 UNK         0.0000 
     21 C21         5.8708   54.3561   26.5371 C.2       1 UNK         0.0000 
     22 N22         5.1965   54.0975   25.4466 N.2       1 UNK         0.0000 
     23 C23         5.9834   54.5658   24.5016 C.2       1 UNK         0.0000 
     24 N24         7.0990   55.1275   24.9214 N.2       1 UNK         0.0000 
     25 O25         7.0492   54.9781   26.3040 O.3       1 UNK         0.0000 
     26 C26         5.6348   54.4679   23.0411 C.ar      1 UNK         0.0000 
     27 C27         4.4149   53.9041   22.6365 C.ar      1 UNK         0.0000 
     28 C28         4.0805   53.8361   21.2861 C.ar      1 UNK         0.0000 
     29 C29         4.9638   54.3346   20.3325 C.ar      1 UNK         0.0000 
     30 C30         6.1759   54.8972   20.7173 C.ar      1 UNK         0.0000 
     31 C31         6.5134   54.9559   22.0672 C.ar      1 UNK         0.0000 
     32 Br32        4.4999   54.2576   18.4878 Br        1 UNK         0.0000 
     33 C33        -0.8090   52.6245   24.2902 C.3       1 UNK         0.0000 
     34 H34        -6.6794   53.2634   26.5125 H         1 UNK         0.0000 
     35 H35        -6.0563   52.2604   27.8049 H         1 UNK         0.0000 
     36 H36        -6.6826   51.5006   26.3324 H         1 UNK         0.0000 
     37 H37        -5.3332   53.6483   24.4499 H         1 UNK         0.0000 
     38 H38        -3.0952   53.7390   23.4605 H         1 UNK         0.0000 
     39 H39        -3.8667   51.1543   27.5965 H         1 UNK         0.0000 
     40 H40        -1.6575   49.0663   25.7808 H         1 UNK         0.0000 
     41 H41        -0.3468   50.0198   25.0877 H         1 UNK         0.0000 
     42 H42        -0.0952   49.1256   26.5716 H         1 UNK         0.0000 
     43 H43         0.6079   51.7962   26.6818 H         1 UNK         0.0000 
     44 H44         1.1582   53.5001   29.7962 H         1 UNK         0.0000 
     45 H45         1.6893   53.5931   26.7575 H         1 UNK         0.0000 
     46 H46         0.9270   54.8622   27.7825 H         1 UNK         0.0000 
     47 H47         3.1165   55.2100   28.9091 H         1 UNK         0.0000 
     48 H48         3.2935   55.2894   27.1325 H         1 UNK         0.0000 
     49 H49         3.8775   53.1848   30.1441 H         1 UNK         0.0000 
     50 H50         4.5846   51.8074   29.2501 H         1 UNK         0.0000 
     51 H51         2.2220   51.2972   29.9087 H         1 UNK         0.0000 
     52 H52         2.5280   51.2968   28.1395 H         1 UNK         0.0000 
     53 H53         5.5703   54.8711   28.6650 H         1 UNK         0.0000 
     54 H54         6.1565   53.2223   28.3531 H         1 UNK         0.0000 
     55 H55         3.7133   53.5216   23.3624 H         1 UNK         0.0000 
     56 H56         3.1363   53.4108   20.9762 H         1 UNK         0.0000 
     57 H57         6.8569   55.2769   19.9702 H         1 UNK         0.0000 
     58 H58         7.4647   55.3907   22.3462 H         1 UNK         0.0000 
     59 H59         0.0018   52.7156   25.0085 H         1 UNK         0.0000 
     60 H60        -0.6124   51.7720   23.6444 H         1 UNK         0.0000 
     61 H61        -0.7568   53.5276   23.6842 H         1 UNK         0.0000 
     62 H62         3.9621   52.9209   27.1827 H         1 UNK         0.0000 
@<TRIPOS>BOND
     1    1    2 1    
     2    1   34 1    
     3    1   35 1    
     4    1   36 1    
     5    2    7 ar   
     6    2    3 ar   
     7    3    4 ar   
     8    3   37 1    
     9    4    5 ar   
    10    4   38 1    
    11    5    6 ar   
    12    5   33 1    
    13    6    7 ar   
    14    6    8 1    
    15    7   39 1    
    16    8    9 1    
    17    8   10 1    
    18    8   11 1    
    19   10   40 1    
    20   10   41 1    
    21   10   42 1    
    22   11   12 am   BACKBONE|DICT|INTERRES
    23   11   43 1    
    24   12   13 2    
    25   12   14 1    
    26   14   19 1    
    27   14   15 1    
    28   14   44 1    
    29   15   16 1    
    30   15   45 1    
    31   15   46 1    
    32   16   17 1    
    33   16   47 1    
    34   16   48 1    
    35   17   18 1    
    36   17   20 1    
    37   17   62 1    
    38   18   19 1    
    39   18   49 1    
    40   18   50 1    
    41   19   51 1    
    42   19   52 1    
    43   20   21 1    
    44   20   53 1    
    45   20   54 1    
    46   21   25 1    
    47   21   22 2    
    48   22   23 1    
    49   23   24 2    
    50   23   26 1    
    51   24   25 1    
    52   26   31 ar   
    53   26   27 ar   
    54   27   28 ar   
    55   27   55 1    
    56   28   29 ar   
    57   28   56 1    
    58   29   30 ar   
    59   29   32 1    
    60   30   31 ar   
    61   30   57 1    
    62   31   58 1    
    63   33   59 1    
    64   33   60 1    
    65   33   61 1    
@<TRIPOS>SUBSTRUCTURE
     1 UNK         1 GROUP             0       ****    0 ROOT    
