@<TRIPOS>MOLECULE
ZINC16608666_5391
63   66    1
SMALL
USER_CHARGES


@<TRIPOS>ATOM
      1 C1          0.3548   52.5628   17.6587 C.3       1 UNK         0.0000 
      2 C2          1.2772   51.4082   18.0860 C.3       1 UNK         0.0000 
      3 C3          2.2790   51.7542   19.2161 C.3       1 UNK         0.0000 
      4 H4          2.8858   50.8544   19.3520 H         1 UNK         0.0000 
      5 C5          1.5228   51.9550   20.5526 C.3       1 UNK         0.0000 
      6 C6          3.2570   52.9125   18.8159 C.3       1 UNK         0.0000 
      7 H7          2.6954   53.8244   18.6189 H         1 UNK         0.0000 
      8 C8          4.2763   53.1625   19.9688 C.2       1 UNK         0.0000 
      9 O9          5.3079   52.4955   20.0618 O.2       1 UNK         0.0000 
     10 N10         3.9011   54.0879   20.8674 N.am      1 UNK         0.0000 
     11 C11         4.3852   54.1238   22.1573 C.2       1 UNK         0.0000 
     12 N12         5.6383   54.1129   22.5520 N.2       1 UNK         0.0000 
     13 N13         5.7431   54.1236   23.9397 N.2       1 UNK         0.0000 
     14 C14         4.5759   54.1154   24.5498 C.2       1 UNK         0.0000 
     15 S15         3.2261   54.0962   23.4418 S.3       1 UNK         0.0000 
     16 C16         4.3753   54.1188   26.0393 C.ar      1 UNK         0.0000 
     17 C17         5.4802   54.1439   26.9185 C.ar      1 UNK         0.0000 
     18 C18         5.3064   54.1443   28.3106 C.ar      1 UNK         0.0000 
     19 C19         4.0021   54.1288   28.7962 C.ar      1 UNK         0.0000 
     20 C20         2.9282   54.1054   27.9578 C.ar      1 UNK         0.0000 
     21 C21         3.0764   54.0933   26.5799 C.ar      1 UNK         0.0000 
     22 O22         1.7793   54.0604   28.6819 O.3       1 UNK         0.0000 
     23 C23         2.1614   54.2434   30.0151 C.3       1 UNK         0.0000 
     24 O24         3.5617   54.0967   30.0816 O.3       1 UNK         0.0000 
     25 N25         3.9931   52.5444   17.5780 N.pl3     1 UNK         0.0000 
     26 S26         4.5762   53.7625   16.4580 S.o2      1 UNK         0.0000 
     27 O27         3.5032   54.7461   16.2775 O.2       1 UNK         0.0000 
     28 O28         5.0878   53.0553   15.2787 O.2       1 UNK         0.0000 
     29 C29         5.9987   54.5456   17.2982 C.ar      1 UNK         0.0000 
     30 C30         7.2780   53.9346   17.2572 C.ar      1 UNK         0.0000 
     31 C31         8.3863   54.5916   17.7975 C.ar      1 UNK         0.0000 
     32 C32         8.2642   55.8520   18.3715 C.ar      1 UNK         0.0000 
     33 C33         7.0145   56.4503   18.4313 C.ar      1 UNK         0.0000 
     34 C34         5.8850   55.8157   17.9120 C.ar      1 UNK         0.0000 
     35 C35         4.5655   56.5502   18.0983 C.3       1 UNK         0.0000 
     36 C36         9.4786   56.5795   18.9101 C.3       1 UNK         0.0000 
     37 C37         7.5282   52.5448   16.6859 C.3       1 UNK         0.0000 
     38 H38        -0.3761   52.2187   16.9243 H         1 UNK         0.0000 
     39 H39        -0.1993   52.9749   18.5035 H         1 UNK         0.0000 
     40 H40         0.9180   53.3761   17.1939 H         1 UNK         0.0000 
     41 H41         1.8272   51.0645   17.2076 H         1 UNK         0.0000 
     42 H42         0.6692   50.5536   18.3856 H         1 UNK         0.0000 
     43 H43         0.9752   52.8956   20.5680 H         1 UNK         0.0000 
     44 H44         0.8076   51.1501   20.7234 H         1 UNK         0.0000 
     45 H45         2.2000   51.9469   21.4058 H         1 UNK         0.0000 
     46 H46         2.9986   54.5262   20.7124 H         1 UNK         0.0000 
     47 H47         6.4862   54.1586   26.5241 H         1 UNK         0.0000 
     48 H48         6.1646   54.1634   28.9676 H         1 UNK         0.0000 
     49 H49         2.1987   54.0620   25.9522 H         1 UNK         0.0000 
     50 H50         1.6601   53.5018   30.6407 H         1 UNK         0.0000 
     51 H51         1.8815   55.2545   30.3259 H         1 UNK         0.0000 
     52 H52         4.6004   51.7143   17.6829 H         1 UNK         0.0000 
     53 H53         9.3587   54.1227   17.7625 H         1 UNK         0.0000 
     54 H54         6.9244   57.4284   18.8831 H         1 UNK         0.0000 
     55 H55         4.2493   57.0390   17.1775 H         1 UNK         0.0000 
     56 H56         3.7773   55.8801   18.4386 H         1 UNK         0.0000 
     57 H57         4.6560   57.2967   18.8812 H         1 UNK         0.0000 
     58 H58        10.3984   56.1897   18.4811 H         1 UNK         0.0000 
     59 H59         9.5070   56.4949   19.9963 H         1 UNK         0.0000 
     60 H60         9.4380   57.6391   18.6547 H         1 UNK         0.0000 
     61 H61         7.6753   52.5908   15.6060 H         1 UNK         0.0000 
     62 H62         8.4033   52.0775   17.1364 H         1 UNK         0.0000 
     63 H63         6.7037   51.8681   16.8955 H         1 UNK         0.0000 
@<TRIPOS>BOND
     1    1    2 1    
     2    1   38 1    
     3    1   39 1    
     4    1   40 1    
     5    2    3 1    
     6    2   41 1    
     7    2   42 1    
     8    3    4 1    
     9    3    5 1    
    10    3    6 1    
    11    5   43 1    
    12    5   44 1    
    13    5   45 1    
    14    6    7 1    
    15    6    8 1    
    16    6   25 1    
    17    8    9 2    
    18    8   10 am   BACKBONE|DICT|INTERRES
    19   10   11 am   BACKBONE|DICT|INTERRES
    20   10   46 1    
    21   11   15 1    
    22   11   12 2    
    23   12   13 1    
    24   13   14 2    
    25   14   15 1    
    26   14   16 1    
    27   16   21 ar   
    28   16   17 ar   
    29   17   18 ar   
    30   17   47 1    
    31   18   19 ar   
    32   18   48 1    
    33   19   24 1    
    34   19   20 ar   
    35   20   21 ar   
    36   20   22 1    
    37   21   49 1    
    38   22   23 1    
    39   23   24 1    
    40   23   50 1    
    41   23   51 1    
    42   25   26 1    
    43   25   52 1    
    44   26   27 2    
    45   26   28 2    
    46   26   29 1    
    47   29   34 ar   
    48   29   30 ar   
    49   30   31 ar   
    50   30   37 1    
    51   31   32 ar   
    52   31   53 1    
    53   32   33 ar   
    54   32   36 1    
    55   33   34 ar   
    56   33   54 1    
    57   34   35 1    
    58   35   55 1    
    59   35   56 1    
    60   35   57 1    
    61   36   58 1    
    62   36   59 1    
    63   36   60 1    
    64   37   61 1    
    65   37   62 1    
    66   37   63 1    
@<TRIPOS>SUBSTRUCTURE
     1 UNK         1 GROUP             0       ****    0 ROOT    
