@<TRIPOS>MOLECULE
ZINC39665391_5544
70   74    1
SMALL
USER_CHARGES


@<TRIPOS>ATOM
      1 C1          3.7985   51.3035   20.2069 C.3       1 UNK         0.0000 
      2 C2          2.4120   50.8415   19.7403 C.3       1 UNK         0.0000 
      3 H3          2.5057   50.5456   18.6921 H         1 UNK         0.0000 
      4 C4          1.3312   51.9441   19.8412 C.3       1 UNK         0.0000 
      5 N5          1.2239   52.4964   21.1921 N.am      1 UNK         0.0000 
      6 C6          0.2949   52.1907   22.1132 C.2       1 UNK         0.0000 
      7 O7         -0.7029   51.5256   21.8391 O.2       1 UNK         0.0000 
      8 C8          0.4495   52.7754   23.5474 C.3       1 UNK         0.0000 
      9 H9         -0.1961   53.6518   23.6106 H         1 UNK         0.0000 
     10 C10         1.8996   53.2515   23.7785 C.3       1 UNK         0.0000 
     11 N11         2.0712   53.2033   25.2286 N.am      1 UNK         0.0000 
     12 C12         0.9454   52.5147   25.8705 C.3       1 UNK         0.0000 
     13 C13         0.1731   51.8016   24.7253 C.3       1 UNK         0.0000 
     14 C14        -1.3392   51.6205   25.0074 C.3       1 UNK         0.0000 
     15 C15        -1.5819   50.7863   26.2789 C.3       1 UNK         0.0000 
     16 N16        -0.9389   49.3957   26.0817 N.4       1 UNK         0.0000 
     17 C17         0.5566   49.4303   25.6938 C.3       1 UNK         0.0000 
     18 C18         0.7145   50.3536   24.4655 C.3       1 UNK         0.0000 
     19 C19         3.1167   53.6939   25.9540 C.2       1 UNK         0.0000 
     20 O20         3.0872   53.7303   27.1863 O.2       1 UNK         0.0000 
     21 C21         4.3403   54.0986   25.2760 C.2       1 UNK         0.0000 
     22 C22         5.5650   54.4929   25.8071 C.2       1 UNK         0.0000 
     23 C23         6.4191   54.7424   24.7307 C.2       1 UNK         0.0000 
     24 C24         5.6857   54.5319   23.5714 C.2       1 UNK         0.0000 
     25 O25         4.4373   54.1190   23.9171 O.3       1 UNK         0.0000 
     26 C26         5.9657   54.7578   22.1202 C.ar      1 UNK         0.0000 
     27 C27         5.0192   54.4423   21.1401 C.ar      1 UNK         0.0000 
     28 C28         5.2826   54.7103   19.7982 C.ar      1 UNK         0.0000 
     29 C29         6.4916   55.2960   19.4337 C.ar      1 UNK         0.0000 
     30 C30         7.4373   55.6239   20.4005 C.ar      1 UNK         0.0000 
     31 C31         7.1714   55.3544   21.7402 C.ar      1 UNK         0.0000 
     32 F32         6.7468   55.5561   18.1325 F         1 UNK         0.0000 
     33 O33         2.0536   49.7453   20.5824 O.3       1 UNK         0.0000 
     34 C34         1.3262   48.7444   19.9895 C.ar      1 UNK         0.0000 
     35 C35         0.0471   48.4747   20.4737 C.ar      1 UNK         0.0000 
     36 C36        -0.7096   47.4541   19.9036 C.ar      1 UNK         0.0000 
     37 C37        -0.1776   46.7043   18.8552 C.ar      1 UNK         0.0000 
     38 C38         1.1036   46.9656   18.3719 C.ar      1 UNK         0.0000 
     39 C39         1.8588   47.9865   18.9423 C.ar      1 UNK         0.0000 
     40 H40         4.1606   52.1269   19.5944 H         1 UNK         0.0000 
     41 H41         3.8047   51.6086   21.2525 H         1 UNK         0.0000 
     42 H42         4.5157   50.4967   20.1007 H         1 UNK         0.0000 
     43 H43         1.5787   52.7633   19.1641 H         1 UNK         0.0000 
     44 H44         0.3725   51.5479   19.4998 H         1 UNK         0.0000 
     45 H45         1.9034   53.2053   21.4205 H         1 UNK         0.0000 
     46 H46         2.6088   52.5238   23.3771 H         1 UNK         0.0000 
     47 H47         2.0586   54.2475   23.3601 H         1 UNK         0.0000 
     48 H48         0.3031   53.2940   26.2802 H         1 UNK         0.0000 
     49 H49         1.2059   51.8601   26.7007 H         1 UNK         0.0000 
     50 H50        -1.7967   52.5990   25.1630 H         1 UNK         0.0000 
     51 H51        -1.8608   51.1943   24.1486 H         1 UNK         0.0000 
     52 H52        -1.1315   51.2102   27.1782 H         1 UNK         0.0000 
     53 H53        -2.6406   50.6034   26.4707 H         1 UNK         0.0000 
     54 H54        -1.0606   48.8880   26.9733 H         1 UNK         0.0000 
     55 H55         1.1015   49.7561   26.5795 H         1 UNK         0.0000 
     56 H56         0.8421   48.3986   25.4800 H         1 UNK         0.0000 
     57 H57         0.2365   49.8877   23.6033 H         1 UNK         0.0000 
     58 H58         1.7720   50.3914   24.1993 H         1 UNK         0.0000 
     59 H59         5.8079   54.5740   26.8574 H         1 UNK         0.0000 
     60 H60         7.4452   55.0739   24.7809 H         1 UNK         0.0000 
     61 H61         4.0711   54.0039   21.4125 H         1 UNK         0.0000 
     62 H62         4.5515   54.4727   19.0393 H         1 UNK         0.0000 
     63 H63         8.3738   56.0774   20.1087 H         1 UNK         0.0000 
     64 H64         7.9043   55.6280   22.4823 H         1 UNK         0.0000 
     65 H65        -0.3555   49.0565   21.2880 H         1 UNK         0.0000 
     66 H66        -1.7033   47.2466   20.2722 H         1 UNK         0.0000 
     67 H67        -0.7645   45.9144   18.4099 H         1 UNK         0.0000 
     68 H68         1.5120   46.3837   17.5583 H         1 UNK         0.0000 
     69 H69         2.8549   48.1916   18.5728 H         1 UNK         0.0000 
     70 H70        -1.4592   48.8772   25.3895 H         1 UNK         0.0000 
@<TRIPOS>BOND
     1    1    2 1    
     2    1   40 1    
     3    1   41 1    
     4    1   42 1    
     5    2    3 1    
     6    2    4 1    
     7    2   33 1    
     8    4    5 1    
     9    4   43 1    
    10    4   44 1    
    11    5    6 am   BACKBONE|DICT|INTERRES
    12    5   45 1    
    13    6    7 2    
    14    6    8 1    
    15    8    9 1    
    16    8   13 1    
    17    8   10 1    
    18   10   11 1    
    19   10   46 1    
    20   10   47 1    
    21   11   12 1    
    22   11   19 am   BACKBONE|DICT|INTERRES
    23   12   13 1    
    24   12   48 1    
    25   12   49 1    
    26   13   18 1    
    27   13   14 1    
    28   14   15 1    
    29   14   50 1    
    30   14   51 1    
    31   15   16 1    
    32   15   52 1    
    33   15   53 1    
    34   16   17 1    
    35   16   54 1    
    36   16   70 1    
    37   17   18 1    
    38   17   55 1    
    39   17   56 1    
    40   18   57 1    
    41   18   58 1    
    42   19   20 2    
    43   19   21 1    
    44   21   25 1    
    45   21   22 2    
    46   22   23 1    
    47   22   59 1    
    48   23   24 2    
    49   23   60 1    
    50   24   25 1    
    51   24   26 1    
    52   26   31 ar   
    53   26   27 ar   
    54   27   28 ar   
    55   27   61 1    
    56   28   29 ar   
    57   28   62 1    
    58   29   30 ar   
    59   29   32 1    
    60   30   31 ar   
    61   30   63 1    
    62   31   64 1    
    63   33   34 1    
    64   34   39 ar   
    65   34   35 ar   
    66   35   36 ar   
    67   35   65 1    
    68   36   37 ar   
    69   36   66 1    
    70   37   38 ar   
    71   37   67 1    
    72   38   39 ar   
    73   38   68 1    
    74   39   69 1    
@<TRIPOS>SUBSTRUCTURE
     1 UNK         1 GROUP             0       ****    0 ROOT    
