@<TRIPOS>MOLECULE
ZINC39662568_1281
64   68    1
SMALL
USER_CHARGES


@<TRIPOS>ATOM
      1 C1          5.9157   54.5734   25.9648 C.ar      1 UNK         0.0000 
      2 C2          6.7039   54.4931   24.8196 C.ar      1 UNK         0.0000 
      3 C3          6.1083   54.4084   23.5665 C.ar      1 UNK         0.0000 
      4 C4          4.7120   54.4129   23.4521 C.ar      1 UNK         0.0000 
      5 C5          3.9263   54.4927   24.6090 C.ar      1 UNK         0.0000 
      6 C6          4.5270   54.5734   25.8635 C.ar      1 UNK         0.0000 
      7 C7          4.0208   54.4015   22.0803 C.3       1 UNK         0.0000 
      8 H8          3.3945   55.2957   22.0655 H         1 UNK         0.0000 
      9 C9          4.9397   54.5954   20.9344 C.1       1 UNK         0.0000 
     10 N10         5.6567   54.7516   20.0385 N.1       1 UNK         0.0000 
     11 N11         3.1206   53.2641   21.8814 N.am      1 UNK         0.0000 
     12 C12         3.5159   51.9937   21.6780 C.2       1 UNK         0.0000 
     13 O13         4.7005   51.6969   21.5338 O.2       1 UNK         0.0000 
     14 C14         2.4502   50.8675   21.6348 C.3       1 UNK         0.0000 
     15 H15         2.9664   49.9686   21.9785 H         1 UNK         0.0000 
     16 C16         1.3444   51.1307   22.6846 C.3       1 UNK         0.0000 
     17 N17         0.1009   51.2209   21.9251 N.am      1 UNK         0.0000 
     18 C18         0.2580   50.5418   20.6378 C.3       1 UNK         0.0000 
     19 C19         1.7551   50.6285   20.2474 C.3       1 UNK         0.0000 
     20 C20         1.9718   51.7547   19.1814 C.3       1 UNK         0.0000 
     21 C21         1.1747   51.5159   17.8738 C.3       1 UNK         0.0000 
     22 N22         1.5116   50.1145   17.3058 N.4       1 UNK         0.0000 
     23 C23         1.4501   48.9590   18.3284 C.3       1 UNK         0.0000 
     24 C24         2.3016   49.3553   19.5514 C.3       1 UNK         0.0000 
     25 C25        -1.1280   51.6121   22.3622 C.2       1 UNK         0.0000 
     26 O26        -2.0854   51.7007   21.5902 O.2       1 UNK         0.0000 
     27 C27        -1.3564   51.8974   23.7710 C.2       1 UNK         0.0000 
     28 C28        -2.5463   52.2214   24.4138 C.2       1 UNK         0.0000 
     29 C29        -2.2635   52.3303   25.7746 C.2       1 UNK         0.0000 
     30 C30        -0.9026   52.1110   25.9292 C.2       1 UNK         0.0000 
     31 O31        -0.3638   51.8456   24.7048 O.3       1 UNK         0.0000 
     32 C32         0.0071   52.1660   27.1124 C.ar      1 UNK         0.0000 
     33 C33         1.3752   52.4199   26.9609 C.ar      1 UNK         0.0000 
     34 C34         2.1993   52.4962   28.0820 C.ar      1 UNK         0.0000 
     35 C35         1.6559   52.3365   29.3547 C.ar      1 UNK         0.0000 
     36 C36         0.2946   52.0963   29.5175 C.ar      1 UNK         0.0000 
     37 C37        -0.5242   51.9966   28.3948 C.ar      1 UNK         0.0000 
     38 F38         2.4598   52.4059   30.4404 F         1 UNK         0.0000 
     39 H39         6.3801   54.6394   26.9377 H         1 UNK         0.0000 
     40 H40         7.7811   54.4960   24.8860 H         1 UNK         0.0000 
     41 H41         6.7453   54.3501   22.6960 H         1 UNK         0.0000 
     42 H42         2.8486   54.5139   24.5318 H         1 UNK         0.0000 
     43 H43         3.9215   54.6554   26.7528 H         1 UNK         0.0000 
     44 H44         2.1386   53.4803   21.7916 H         1 UNK         0.0000 
     45 H45         1.2718   50.2735   23.3582 H         1 UNK         0.0000 
     46 H46         1.5368   51.9828   23.3378 H         1 UNK         0.0000 
     47 H47        -0.4492   50.8162   19.8587 H         1 UNK         0.0000 
     48 H48         0.0085   49.5036   20.8597 H         1 UNK         0.0000 
     49 H49         1.6429   52.7142   19.5861 H         1 UNK         0.0000 
     50 H50         3.0335   51.8808   18.9481 H         1 UNK         0.0000 
     51 H51         0.0930   51.5495   17.9968 H         1 UNK         0.0000 
     52 H52         1.4501   52.2301   17.0962 H         1 UNK         0.0000 
     53 H53         0.9341   49.9079   16.5007 H         1 UNK         0.0000 
     54 H54         0.3977   48.7820   18.5547 H         1 UNK         0.0000 
     55 H55         1.8603   48.0881   17.8139 H         1 UNK         0.0000 
     56 H56         3.3581   49.4594   19.2923 H         1 UNK         0.0000 
     57 H57         2.2528   48.5155   20.2462 H         1 UNK         0.0000 
     58 H58        -3.5146   52.3405   23.9492 H         1 UNK         0.0000 
     59 H59        -2.9689   52.5655   26.5566 H         1 UNK         0.0000 
     60 H60         1.8020   52.5497   25.9776 H         1 UNK         0.0000 
     61 H61         3.2588   52.6703   27.9674 H         1 UNK         0.0000 
     62 H62        -0.1213   51.9660   30.5067 H         1 UNK         0.0000 
     63 H63        -1.5751   51.7844   28.5314 H         1 UNK         0.0000 
     64 H64         2.4743   50.1247   16.9603 H         1 UNK         0.0000 
@<TRIPOS>BOND
     1    1    6 ar   
     2    1    2 ar   
     3    1   39 1    
     4    2    3 ar   
     5    2   40 1    
     6    3    4 ar   
     7    3   41 1    
     8    4    5 ar   
     9    4    7 1    
    10    5    6 ar   
    11    5   42 1    
    12    6   43 1    
    13    7    8 1    
    14    7    9 1    
    15    7   11 1    
    16    9   10 3    
    17   11   12 am   BACKBONE|DICT|INTERRES
    18   11   44 1    
    19   12   13 2    
    20   12   14 1    
    21   14   15 1    
    22   14   19 1    
    23   14   16 1    
    24   16   17 1    
    25   16   45 1    
    26   16   46 1    
    27   17   18 1    
    28   17   25 am   BACKBONE|DICT|INTERRES
    29   18   19 1    
    30   18   47 1    
    31   18   48 1    
    32   19   24 1    
    33   19   20 1    
    34   20   21 1    
    35   20   49 1    
    36   20   50 1    
    37   21   22 1    
    38   21   51 1    
    39   21   52 1    
    40   22   23 1    
    41   22   53 1    
    42   22   64 1    
    43   23   24 1    
    44   23   54 1    
    45   23   55 1    
    46   24   56 1    
    47   24   57 1    
    48   25   26 2    
    49   25   27 1    
    50   27   31 1    
    51   27   28 2    
    52   28   29 1    
    53   28   58 1    
    54   29   30 2    
    55   29   59 1    
    56   30   31 1    
    57   30   32 1    
    58   32   37 ar   
    59   32   33 ar   
    60   33   34 ar   
    61   33   60 1    
    62   34   35 ar   
    63   34   61 1    
    64   35   36 ar   
    65   35   38 1    
    66   36   37 ar   
    67   36   62 1    
    68   37   63 1    
@<TRIPOS>SUBSTRUCTURE
     1 UNK         1 GROUP             0       ****    0 ROOT    
