ZINC06787368_1316
                    3D
 Schrodinger Suite 2024-2.
 50 51  0  0  1  0            999 V2000
    6.8650   54.3495   27.2660 C   0  0  0  0  0  0
    6.0344   54.3231   26.0063 C   0  0  0  0  0  0
    6.3667   54.1126   24.6787 C   0  0  0  0  0  0
    5.1850   54.2253   23.9360 C   0  0  0  0  0  0
    4.1742   54.4967   24.7319 N   0  0  0  0  0  0
    4.6762   54.5491   25.9778 N   0  0  0  0  0  0
    3.7700   54.8043   27.1117 C   0  0  0  0  0  0
    2.7468   53.7002   27.4199 C   0  0  0  0  0  0
    2.5382   53.3750   28.5903 O   0  0  0  0  0  0
    2.0933   53.1965   26.3581 N   0  0  0  0  0  0
    1.0999   52.2965   26.4340 N   0  0  0  0  0  0
    0.6653   51.8785   25.3062 C   0  0  0  0  0  0
   -0.5838   51.0050   25.2448 C   0  0  0  0  0  0
   -0.3072   49.6092   24.6046 C   0  0  0  0  0  0
    0.9529   51.0929   22.7903 C   0  0  0  0  0  0
    1.2669   52.1604   23.8983 C   0  0  0  0  0  0
   -0.2924   51.4500   21.9468 C   0  0  0  0  0  0
    2.1993   50.8518   21.9104 C   0  0  0  0  0  0
    0.3856   48.6708   25.6078 C   0  0  0  0  0  0
   -1.5954   49.0215   23.9944 C   0  0  0  0  0  0
    4.9803   54.0637   22.4387 C   0  0  0  0  0  0
    5.1066   52.7867   22.0811 F   0  0  0  0  0  0
    3.7712   54.4706   22.0477 F   0  0  0  0  0  0
    5.8833   54.7678   21.7562 F   0  0  0  0  0  0
    7.9017   54.0680   27.0901 H   0  0  0  0  0  0
    6.8786   55.3543   27.6817 H   0  0  0  0  0  0
    6.4770   53.6767   28.0316 H   0  0  0  0  0  0
    7.3498   53.9013   24.2838 H   0  0  0  0  0  0
    3.1862   55.6961   26.8823 H   0  0  0  0  0  0
    4.3579   55.0298   28.0021 H   0  0  0  0  0  0
    2.3330   53.4930   25.4240 H   0  0  0  0  0  0
   -1.3519   51.5501   24.6990 H   0  0  0  0  0  0
   -1.0032   50.8701   26.2451 H   0  0  0  0  0  0
    0.9278   53.1417   23.5632 H   0  0  0  0  0  0
    2.3484   52.2518   24.0007 H   0  0  0  0  0  0
   -0.0975   52.3379   21.3436 H   0  0  0  0  0  0
   -0.5549   50.6511   21.2515 H   0  0  0  0  0  0
   -1.1735   51.6730   22.5426 H   0  0  0  0  0  0
    2.5011   51.7709   21.4049 H   0  0  0  0  0  0
    3.0617   50.5052   22.4809 H   0  0  0  0  0  0
    2.0129   50.1134   21.1285 H   0  0  0  0  0  0
   -0.2437   48.4969   26.4814 H   0  0  0  0  0  0
    1.3316   49.0625   25.9790 H   0  0  0  0  0  0
    0.5914   47.6966   25.1669 H   0  0  0  0  0  0
   -2.3472   48.8698   24.7708 H   0  0  0  0  0  0
   -2.0443   49.6668   23.2406 H   0  0  0  0  0  0
   -1.4187   48.0490   23.5331 H   0  0  0  0  0  0
    0.7035   49.7082   23.4353 N   0  3  0  0  0  0
    1.5964   49.4027   23.7987 H   0  0  0  0  0  0
    0.4667   49.0319   22.7255 H   0  0  0  0  0  0
  1  2  1  0  0  0
  1 25  1  0  0  0
  1 26  1  0  0  0
  1 27  1  0  0  0
  2  6  1  0  0  0
  2  3  2  0  0  0
  3  4  1  0  0  0
  3 28  1  0  0  0
  4  5  2  0  0  0
  4 21  1  0  0  0
  5  6  1  0  0  0
  6  7  1  0  0  0
  7  8  1  0  0  0
  7 29  1  0  0  0
  7 30  1  0  0  0
  8  9  2  0  0  0
  8 10  1  0  0  0
 10 11  1  0  0  0
 10 31  1  0  0  0
 11 12  2  0  0  0
 12 16  1  0  0  0
 12 13  1  0  0  0
 13 14  1  0  0  0
 13 32  1  0  0  0
 13 33  1  0  0  0
 14 19  1  0  0  0
 14 20  1  0  0  0
 14 48  1  0  0  0
 15 16  1  0  0  0
 15 17  1  0  0  0
 15 18  1  0  0  0
 15 48  1  0  0  0
 16 34  1  0  0  0
 16 35  1  0  0  0
 17 36  1  0  0  0
 17 37  1  0  0  0
 17 38  1  0  0  0
 18 39  1  0  0  0
 18 40  1  0  0  0
 18 41  1  0  0  0
 19 42  1  0  0  0
 19 43  1  0  0  0
 19 44  1  0  0  0
 20 45  1  0  0  0
 20 46  1  0  0  0
 20 47  1  0  0  0
 21 22  1  0  0  0
 21 23  1  0  0  0
 21 24  1  0  0  0
 48 49  1  0  0  0
 48 50  1  0  0  0
M  CHG  1  48   1
M  END
> <i_i_glide_confnum>
67

> <i_i_glide_lignum>
1317

> <i_i_glide_posenum>
195

> <i_i_glide_rotatable_bonds>
5

> <i_m_Source_File_Index>
4791

> <b_m_subgroup_collapsed>
0

> <r_i_docking_score>
-5.42115

> <r_i_glide_ecoul>
-2.10068

> <r_i_glide_eff_state_penalty>
0

> <r_i_glide_einternal>
9.80603

> <r_i_glide_emodel>
-42.2121

> <r_i_glide_energy>
-33.3208

> <r_i_glide_erotb>
0.590623

> <r_i_glide_esite>
0

> <r_i_glide_evdw>
-31.2201

> <r_i_glide_gscore>
-5.42115

> <r_i_glide_hbond>
0

> <r_i_glide_ligand_efficiency>
-0.216846

> <r_i_glide_ligand_efficiency_ln>
-1.28497

> <r_i_glide_ligand_efficiency_sa>
-0.634061

> <r_i_glide_lipo>
-1.89243

> <r_i_glide_metal>
0

> <r_i_glide_rewards>
-2.24323

> <s_i_glide_gridfile>
wee1_glide-grid

> <s_m_Source_File>
wee1_decoys_glide_SP.sdf

> <s_m_Source_Path>
/Users/zhangxujun/Desktop

> <s_m_entry_id>
5066

> <s_m_entry_name>
wee1_decoys_glide_SP.4791

> <s_m_subgroup_title>
wee1_decoys_glide_SP

> <s_m_subgroupid>
wee1_decoys_glide_SP


$$$$
