@<TRIPOS>MOLECULE
ZINC67330344_1617
44   45    1
SMALL
USER_CHARGES


@<TRIPOS>ATOM
      1 C1         -0.3160   52.0946   30.0541 C.3       1 UNK         0.0000 
      2 C2          0.7720   53.0500   29.6324 C.2       1 UNK         0.0000 
      3 C3          1.9453   52.9248   28.9099 C.2       1 UNK         0.0000 
      4 C4          2.5467   54.1898   28.8199 C.2       1 UNK         0.0000 
      5 C5          1.6827   55.0349   29.5158 C.2       1 UNK         0.0000 
      6 O6          0.6272   54.3407   30.0135 O.3       1 UNK         0.0000 
      7 C7          1.6992   56.5132   29.8191 C.3       1 UNK         0.0000 
      8 C8          3.8440   54.5707   28.1281 C.3       1 UNK         0.0000 
      9 H9          3.8981   55.6565   28.1391 H         1 UNK         0.0000 
     10 C10         5.0650   54.0412   28.9019 C.3       1 UNK         0.0000 
     11 N11         3.8037   54.1643   26.7216 N.am      1 UNK         0.0000 
     12 C12         4.6992   54.5030   25.7729 C.2       1 UNK         0.0000 
     13 O13         5.7397   55.1171   26.0218 O.2       1 UNK         0.0000 
     14 C14         4.3653   54.1051   24.3523 C.ar      1 UNK         0.0000 
     15 C15         3.0536   53.7923   23.9590 C.ar      1 UNK         0.0000 
     16 C16         2.7773   53.4464   22.6387 C.ar      1 UNK         0.0000 
     17 C17         3.7979   53.4069   21.6873 C.ar      1 UNK         0.0000 
     18 C18         5.1011   53.7307   22.0741 C.ar      1 UNK         0.0000 
     19 C19         5.3821   54.0857   23.3890 C.ar      1 UNK         0.0000 
     20 C20         3.4374   52.9917   20.2557 C.3       1 UNK         0.0000 
     21 N21         4.5197   52.8256   19.2826 N.am      1 UNK         0.0000 
     22 C22         5.2519   53.7945   18.7238 C.2       1 UNK         0.0000 
     23 O23         5.1547   54.9937   18.9636 O.2       1 UNK         0.0000 
     24 N24         6.1357   53.2968   17.8703 N.am      1 UNK         0.0000 
     25 H25        -0.1433   51.0881   29.6741 H         1 UNK         0.0000 
     26 H26        -1.2917   52.4036   29.6810 H         1 UNK         0.0000 
     27 H27        -0.3936   52.0232   31.1391 H         1 UNK         0.0000 
     28 H28         2.3284   52.0104   28.4799 H         1 UNK         0.0000 
     29 H29         2.0964   57.0935   28.9870 H         1 UNK         0.0000 
     30 H30         0.7033   56.8962   30.0238 H         1 UNK         0.0000 
     31 H31         2.3036   56.7450   30.6936 H         1 UNK         0.0000 
     32 H32         5.0980   54.4960   29.8918 H         1 UNK         0.0000 
     33 H33         5.0339   52.9571   29.0174 H         1 UNK         0.0000 
     34 H34         6.0073   54.2948   28.4171 H         1 UNK         0.0000 
     35 H35         2.9450   53.7336   26.4180 H         1 UNK         0.0000 
     36 H36         2.2321   53.8190   24.6593 H         1 UNK         0.0000 
     37 H37         1.7626   53.2104   22.3519 H         1 UNK         0.0000 
     38 H38         5.9045   53.7214   21.3591 H         1 UNK         0.0000 
     39 H39         6.4009   54.3357   23.6533 H         1 UNK         0.0000 
     40 H40         2.9204   52.0328   20.3117 H         1 UNK         0.0000 
     41 H41         2.7144   53.6963   19.8471 H         1 UNK         0.0000 
     42 H42         4.7052   51.8771   18.9693 H         1 UNK         0.0000 
     43 H43         6.1375   52.3005   17.6818 H         1 UNK         0.0000 
     44 H44         6.7530   53.9175   17.3733 H         1 UNK         0.0000 
@<TRIPOS>BOND
     1    1    2 1    
     2    1   25 1    
     3    1   26 1    
     4    1   27 1    
     5    2    6 1    
     6    2    3 2    
     7    3    4 1    
     8    3   28 1    
     9    4    5 2    
    10    4    8 1    
    11    5    6 1    
    12    5    7 1    
    13    7   29 1    
    14    7   30 1    
    15    7   31 1    
    16    8    9 1    
    17    8   10 1    
    18    8   11 1    
    19   10   32 1    
    20   10   33 1    
    21   10   34 1    
    22   11   12 am   BACKBONE|DICT|INTERRES
    23   11   35 1    
    24   12   13 2    
    25   12   14 1    
    26   14   19 ar   
    27   14   15 ar   
    28   15   16 ar   
    29   15   36 1    
    30   16   17 ar   
    31   16   37 1    
    32   17   18 ar   
    33   17   20 1    
    34   18   19 ar   
    35   18   38 1    
    36   19   39 1    
    37   20   21 1    
    38   20   40 1    
    39   20   41 1    
    40   21   22 am   BACKBONE|DICT|INTERRES
    41   21   42 1    
    42   22   23 2    
    43   22   24 am   BACKBONE|DICT|INTERRES
    44   24   43 1    
    45   24   44 1    
@<TRIPOS>SUBSTRUCTURE
     1 UNK         1 GROUP             0       ****    0 ROOT    
