ZINC29373749_1226
                    3D
 Schrodinger Suite 2024-2.
 74 77  0  0  1  0            999 V2000
    4.3929   53.9096   19.0591 C   0  0  0  0  0  0
    3.6927   52.5428   18.9627 C   0  0  0  0  0  0
    2.4301   52.4966   19.8516 N   0  3  0  0  0  0
    1.6104   51.2406   19.4797 C   0  0  0  0  0  0
    0.3828   51.1124   20.3993 C   0  0  0  0  0  0
    0.7242   51.1242   21.8307 N   0  0  0  0  0  0
    1.5404   52.2902   22.2084 C   0  0  0  0  0  0
    2.8060   52.4573   21.3483 C   0  0  0  0  0  0
    0.0451   50.3692   22.7791 C   0  0  0  0  0  0
    0.7161   49.9289   23.9251 C   0  0  0  0  0  0
    0.0702   49.1445   24.8753 C   0  0  0  0  0  0
   -1.2589   48.7690   24.6877 C   0  0  0  0  0  0
   -1.9614   49.2116   23.5489 C   0  0  0  0  0  0
   -1.2986   50.0086   22.6089 C   0  0  0  0  0  0
   -3.4333   48.8858   23.3269 C   0  0  0  0  0  0
   -1.8318   47.9742   25.6819 N   0  0  0  0  0  0
   -2.2450   46.7068   25.5219 C   0  0  0  0  0  0
   -2.1542   46.0980   24.4569 O   0  0  0  0  0  0
   -2.7977   45.9938   26.7756 C   0  0  0  0  0  0
   -4.2823   45.9671   26.8304 N   0  0  0  0  0  0
   -4.9494   46.2407   27.9740 C   0  0  0  0  0  0
   -4.4957   46.5104   29.0879 O   0  0  0  0  0  0
   -6.4303   46.2065   27.6092 C   0  0  2  0  0  0
   -7.0186   47.6379   27.7906 C   0  0  0  0  0  0
   -8.5385   47.6707   27.5032 C   0  0  1  0  0  0
   -8.7239   47.3004   26.4966 H   0  0  0  0  0  0
   -9.2200   46.7330   28.5366 C   0  0  0  0  0  0
   -8.7498   45.2510   28.4082 C   0  0  0  0  0  0
   -7.1985   45.2668   28.5980 C   0  0  0  0  0  0
   -9.3450   44.4680   29.6010 C   0  0  0  0  0  0
   -9.1894   44.6171   27.0630 C   0  0  0  0  0  0
   -9.0860   49.1054   27.5854 C   0  0  0  0  0  0
   -6.3460   45.7602   26.2518 N   0  0  0  0  0  0
   -5.1016   45.5451   25.8262 C   0  0  0  0  0  0
   -4.8027   44.8963   24.8287 O   0  0  0  0  0  0
    5.2339   53.9476   18.3661 H   0  0  0  0  0  0
    3.7173   54.7256   18.7983 H   0  0  0  0  0  0
    4.7935   54.1069   20.0546 H   0  0  0  0  0  0
    4.3048   51.7085   19.3061 H   0  0  0  0  0  0
    3.3672   52.3474   17.9371 H   0  0  0  0  0  0
    1.2954   51.3792   18.4436 H   0  0  0  0  0  0
    2.2715   50.3712   19.5541 H   0  0  0  0  0  0
   -0.1875   50.2204   20.1361 H   0  0  0  0  0  0
   -0.2767   51.9703   20.2472 H   0  0  0  0  0  0
    0.8937   53.1580   22.0533 H   0  0  0  0  0  0
    1.7904   52.2924   23.2695 H   0  0  0  0  0  0
    3.2762   53.4156   21.5710 H   0  0  0  0  0  0
    3.5167   51.6395   21.5054 H   0  0  0  0  0  0
    1.7564   50.1710   24.0779 H   0  0  0  0  0  0
    0.6147   48.8025   25.7455 H   0  0  0  0  0  0
   -1.8399   50.3504   21.7385 H   0  0  0  0  0  0
   -3.9017   49.5660   22.6136 H   0  0  0  0  0  0
   -3.5520   47.8612   22.9679 H   0  0  0  0  0  0
   -3.9900   48.9806   24.2585 H   0  0  0  0  0  0
   -1.6968   48.2722   26.6515 H   0  0  0  0  0  0
   -2.3935   46.4900   27.6605 H   0  0  0  0  0  0
   -2.4059   44.9800   26.8160 H   0  0  0  0  0  0
   -6.5383   48.3242   27.0919 H   0  0  0  0  0  0
   -6.7699   48.0634   28.7655 H   0  0  0  0  0  0
   -9.0371   47.1197   29.5423 H   0  0  0  0  0  0
  -10.3045   46.7913   28.4270 H   0  0  0  0  0  0
   -6.9334   45.5264   29.6259 H   0  0  0  0  0  0
   -6.8415   44.2412   28.4812 H   0  0  0  0  0  0
   -9.0196   43.4266   29.5973 H   0  0  0  0  0  0
   -9.0571   44.8912   30.5640 H   0  0  0  0  0  0
  -10.4357   44.4599   29.5678 H   0  0  0  0  0  0
   -8.8102   43.5990   26.9695 H   0  0  0  0  0  0
  -10.2766   44.5586   27.0044 H   0  0  0  0  0  0
   -8.8621   45.1615   26.1797 H   0  0  0  0  0  0
   -8.9257   49.5374   28.5729 H   0  0  0  0  0  0
  -10.1561   49.1325   27.3822 H   0  0  0  0  0  0
   -8.6004   49.7551   26.8573 H   0  0  0  0  0  0
   -7.1335   45.8478   25.6266 H   0  0  0  0  0  0
    1.8620   53.3246   19.6929 H   0  0  0  0  0  0
  1  2  1  0  0  0
  1 36  1  0  0  0
  1 37  1  0  0  0
  1 38  1  0  0  0
  2  3  1  0  0  0
  2 39  1  0  0  0
  2 40  1  0  0  0
  3  8  1  0  0  0
  3  4  1  0  0  0
  3 74  1  0  0  0
  4  5  1  0  0  0
  4 41  1  0  0  0
  4 42  1  0  0  0
  5  6  1  0  0  0
  5 43  1  0  0  0
  5 44  1  0  0  0
  6  7  1  0  0  0
  6  9  1  0  0  0
  7  8  1  0  0  0
  7 45  1  0  0  0
  7 46  1  0  0  0
  8 47  1  0  0  0
  8 48  1  0  0  0
  9 14  2  0  0  0
  9 10  1  0  0  0
 10 11  2  0  0  0
 10 49  1  0  0  0
 11 12  1  0  0  0
 11 50  1  0  0  0
 12 13  2  0  0  0
 12 16  1  0  0  0
 13 14  1  0  0  0
 13 15  1  0  0  0
 14 51  1  0  0  0
 15 52  1  0  0  0
 15 53  1  0  0  0
 15 54  1  0  0  0
 16 17  1  0  0  0
 16 55  1  0  0  0
 17 18  2  0  0  0
 17 19  1  0  0  0
 19 20  1  0  0  0
 19 56  1  0  0  0
 19 57  1  0  0  0
 20 34  1  0  0  0
 20 21  1  0  0  0
 21 22  2  0  0  0
 21 23  1  0  0  0
 23 29  1  0  0  0
 23 24  1  0  0  0
 23 33  1  0  0  0
 24 25  1  0  0  0
 24 58  1  0  0  0
 24 59  1  0  0  0
 25 26  1  0  0  0
 25 27  1  0  0  0
 25 32  1  0  0  0
 27 28  1  0  0  0
 27 60  1  0  0  0
 27 61  1  0  0  0
 28 29  1  0  0  0
 28 30  1  0  0  0
 28 31  1  0  0  0
 29 62  1  0  0  0
 29 63  1  0  0  0
 30 64  1  0  0  0
 30 65  1  0  0  0
 30 66  1  0  0  0
 31 67  1  0  0  0
 31 68  1  0  0  0
 31 69  1  0  0  0
 32 70  1  0  0  0
 32 71  1  0  0  0
 32 72  1  0  0  0
 33 34  1  0  0  0
 33 73  1  0  0  0
 34 35  2  0  0  0
M  CHG  1   3   1
M  END
> <i_i_glide_confnum>
127

> <i_i_glide_lignum>
1227

> <i_i_glide_posenum>
14

> <i_i_glide_rotatable_bonds>
6

> <i_m_Source_File_Index>
180

> <b_m_subgroup_collapsed>
0

> <r_i_docking_score>
-3.66383

> <r_i_glide_ecoul>
-12.0927

> <r_i_glide_eff_state_penalty>
0

> <r_i_glide_einternal>
8.68157

> <r_i_glide_emodel>
-42.7739

> <r_i_glide_energy>
-36.4743

> <r_i_glide_erotb>
0.456148

> <r_i_glide_esite>
-0.355161

> <r_i_glide_evdw>
-24.3816

> <r_i_glide_gscore>
-3.66383

> <r_i_glide_hbond>
-0.371529

> <r_i_glide_ligand_efficiency>
-0.10776

> <r_i_glide_ligand_efficiency_ln>
-0.809443

> <r_i_glide_ligand_efficiency_sa>
-0.3491

> <r_i_glide_lipo>
-0.124316

> <r_i_glide_metal>
0

> <r_i_glide_rewards>
-0.235997

> <s_i_glide_gridfile>
wee1_glide-grid

> <s_m_Source_File>
wee1_decoys_glide_SP.sdf

> <s_m_Source_Path>
/Users/zhangxujun/Desktop

> <s_m_entry_id>
455

> <s_m_entry_name>
wee1_decoys_glide_SP.180

> <s_m_subgroup_title>
wee1_decoys_glide_SP

> <s_m_subgroupid>
wee1_decoys_glide_SP


$$$$
