@<TRIPOS>MOLECULE
ZINC61857302_3848
32   34    1
SMALL
USER_CHARGES


@<TRIPOS>ATOM
      1 C1         -0.5504   52.0149   27.1873 C.3       1 UNK         0.0000 
      2 C2          0.5287   52.4073   28.2022 C.ar      1 UNK         0.0000 
      3 C3          1.7649   52.9536   27.7713 C.ar      1 UNK         0.0000 
      4 C4          2.7559   53.2127   28.7319 C.ar      1 UNK         0.0000 
      5 C5          2.5373   52.9725   30.0819 C.ar      1 UNK         0.0000 
      6 C6          1.3052   52.4959   30.5084 C.ar      1 UNK         0.0000 
      7 C7          0.3061   52.2040   29.5819 C.ar      1 UNK         0.0000 
      8 N8         -0.8955   51.6968   30.0815 N.pl3     1 UNK         0.0000 
      9 C9          2.1395   53.2776   26.3427 C.2       1 UNK         0.0000 
     10 N10         3.2992   53.6967   25.9042 N.2       1 UNK         0.0000 
     11 C11         3.1359   53.7316   24.5944 C.2       1 UNK         0.0000 
     12 N12         1.9273   53.4269   24.1675 N.2       1 UNK         0.0000 
     13 O13         1.2426   53.1109   25.3384 O.3       1 UNK         0.0000 
     14 C14         4.2607   54.0971   23.6621 C.ar      1 UNK         0.0000 
     15 C15         5.5102   54.4781   24.1758 C.ar      1 UNK         0.0000 
     16 C16         6.5285   54.8962   23.3244 C.ar      1 UNK         0.0000 
     17 C17         6.3043   54.9411   21.9521 C.ar      1 UNK         0.0000 
     18 C18         5.0967   54.4973   21.4188 C.ar      1 UNK         0.0000 
     19 C19         4.0756   54.0861   22.2720 C.ar      1 UNK         0.0000 
     20 Br20        7.6275   55.6967   20.8110 Br        1 UNK         0.0000 
     21 H21        -0.1261   51.3500   26.4344 H         1 UNK         0.0000 
     22 H22        -1.3961   51.4770   27.6170 H         1 UNK         0.0000 
     23 H23        -0.9369   52.8965   26.6765 H         1 UNK         0.0000 
     24 H24         3.7214   53.6011   28.4403 H         1 UNK         0.0000 
     25 H25         3.3266   53.1581   30.7945 H         1 UNK         0.0000 
     26 H26         1.1364   52.3274   31.5634 H         1 UNK         0.0000 
     27 H27        -1.3729   51.0157   29.5048 H         1 UNK         0.0000 
     28 H28        -0.9909   51.5963   31.0892 H         1 UNK         0.0000 
     29 H29         5.6896   54.4810   25.2407 H         1 UNK         0.0000 
     30 H30         7.4739   55.2288   23.7260 H         1 UNK         0.0000 
     31 H31         4.9303   54.5227   20.3516 H         1 UNK         0.0000 
     32 H32         3.1284   53.7893   21.8420 H         1 UNK         0.0000 
@<TRIPOS>BOND
     1    1    2 1    
     2    1   21 1    
     3    1   22 1    
     4    1   23 1    
     5    2    7 ar   
     6    2    3 ar   
     7    3    4 ar   
     8    3    9 1    
     9    4    5 ar   
    10    4   24 1    
    11    5    6 ar   
    12    5   25 1    
    13    6    7 ar   
    14    6   26 1    
    15    7    8 1    
    16    8   27 1    
    17    8   28 1    
    18    9   13 1    
    19    9   10 2    
    20   10   11 1    
    21   11   12 2    
    22   11   14 1    
    23   12   13 1    
    24   14   19 ar   
    25   14   15 ar   
    26   15   16 ar   
    27   15   29 1    
    28   16   17 ar   
    29   16   30 1    
    30   17   18 ar   
    31   17   20 1    
    32   18   19 ar   
    33   18   31 1    
    34   19   32 1    
@<TRIPOS>SUBSTRUCTURE
     1 UNK         1 GROUP             0       ****    0 ROOT    
