ZINC08977311_2441
                    3D
 Schrodinger Suite 2024-2.
 55 58  0  0  1  0            999 V2000
    3.3626   53.0997   18.4398 C   0  0  0  0  0  0
    4.3064   54.1714   18.9645 C   0  0  0  0  0  0
    4.6855   55.1891   18.0826 C   0  0  0  0  0  0
    5.5830   56.1941   18.4739 C   0  0  0  0  0  0
    6.1541   56.1258   19.7445 C   0  0  0  0  0  0
    5.7759   55.1252   20.6362 C   0  0  0  0  0  0
    4.8232   54.1660   20.2762 C   0  0  0  0  0  0
    4.2968   53.0330   21.5772 S   0  0  0  0  0  0
    3.1449   52.2454   21.1320 O   0  0  0  0  0  0
    5.5042   52.3758   22.0819 O   0  0  0  0  0  0
    3.6602   54.0965   22.8509 N   0  0  0  0  0  0
    4.1629   54.1441   24.1597 C   0  0  0  0  0  0
    5.5264   54.1190   24.4596 C   0  0  0  0  0  0
    5.9504   54.1373   25.7868 C   0  0  0  0  0  0
    5.0326   54.2157   26.8389 C   0  0  0  0  0  0
    3.6581   54.3329   26.5405 C   0  0  0  0  0  0
    3.2474   54.2680   25.2045 C   0  0  0  0  0  0
    2.6398   54.5695   27.6606 C   0  0  0  0  0  0
    3.1486   54.0202   28.9275 N   0  0  0  0  0  0
    4.4371   54.6105   29.3140 C   0  0  0  0  0  0
    5.5038   54.1488   28.2941 C   0  0  0  0  0  0
    2.5930   53.0142   29.6607 C   0  0  0  0  0  0
    3.1046   52.5775   30.6944 O   0  0  0  0  0  0
    1.3294   52.4653   29.2408 C   0  0  0  0  0  0
    0.1739   52.3521   30.0125 C   0  0  0  0  0  0
   -0.8619   51.6967   29.3398 C   0  0  0  0  0  0
   -0.5073   51.2970   28.0610 C   0  0  0  0  0  0
    1.1324   51.6969   27.6870 S   0  0  0  0  0  0
    5.9640   57.2876   17.6717 N   0  0  0  0  0  0
    5.4370   57.7173   16.5059 C   0  0  0  0  0  0
    4.4846   57.2063   15.9203 O   0  0  0  0  0  0
    6.0919   58.9507   15.8971 C   0  0  0  0  0  0
    3.7455   52.1068   18.6799 H   0  0  0  0  0  0
    2.3720   53.2073   18.8806 H   0  0  0  0  0  0
    3.2641   53.1294   17.3541 H   0  0  0  0  0  0
    4.2670   55.1786   17.0893 H   0  0  0  0  0  0
    6.8673   56.8697   20.0634 H   0  0  0  0  0  0
    6.1991   55.1220   21.6293 H   0  0  0  0  0  0
    2.6645   54.2319   22.7661 H   0  0  0  0  0  0
    6.2683   54.0558   23.6794 H   0  0  0  0  0  0
    7.0063   54.0617   26.0009 H   0  0  0  0  0  0
    2.1926   54.3342   24.9781 H   0  0  0  0  0  0
    2.5293   55.6472   27.7877 H   0  0  0  0  0  0
    1.6497   54.2131   27.3866 H   0  0  0  0  0  0
    4.3423   55.6956   29.2817 H   0  0  0  0  0  0
    4.7042   54.4516   30.3590 H   0  0  0  0  0  0
    5.7890   53.1217   28.5269 H   0  0  0  0  0  0
    6.4105   54.7374   28.4261 H   0  0  0  0  0  0
    0.0861   52.7037   31.0319 H   0  0  0  0  0  0
   -1.8207   51.4726   29.7817 H   0  0  0  0  0  0
   -1.1062   50.7288   27.3624 H   0  0  0  0  0  0
    6.6979   57.8627   18.0528 H   0  0  0  0  0  0
    6.8162   59.4084   16.5702 H   0  0  0  0  0  0
    5.3293   59.6965   15.6749 H   0  0  0  0  0  0
    6.5965   58.6900   14.9674 H   0  0  0  0  0  0
  1  2  1  0  0  0
  1 33  1  0  0  0
  1 34  1  0  0  0
  1 35  1  0  0  0
  2  7  2  0  0  0
  2  3  1  0  0  0
  3  4  2  0  0  0
  3 36  1  0  0  0
  4  5  1  0  0  0
  4 29  1  0  0  0
  5  6  2  0  0  0
  5 37  1  0  0  0
  6  7  1  0  0  0
  6 38  1  0  0  0
  7  8  1  0  0  0
  8  9  2  0  0  0
  8 10  2  0  0  0
  8 11  1  0  0  0
 11 12  1  0  0  0
 11 39  1  0  0  0
 12 17  2  0  0  0
 12 13  1  0  0  0
 13 14  2  0  0  0
 13 40  1  0  0  0
 14 15  1  0  0  0
 14 41  1  0  0  0
 15 21  1  0  0  0
 15 16  2  0  0  0
 16 17  1  0  0  0
 16 18  1  0  0  0
 17 42  1  0  0  0
 18 19  1  0  0  0
 18 43  1  0  0  0
 18 44  1  0  0  0
 19 20  1  0  0  0
 19 22  1  0  0  0
 20 21  1  0  0  0
 20 45  1  0  0  0
 20 46  1  0  0  0
 21 47  1  0  0  0
 21 48  1  0  0  0
 22 23  2  0  0  0
 22 24  1  0  0  0
 24 28  1  0  0  0
 24 25  2  0  0  0
 25 26  1  0  0  0
 25 49  1  0  0  0
 26 27  2  0  0  0
 26 50  1  0  0  0
 27 28  1  0  0  0
 27 51  1  0  0  0
 29 30  1  0  0  0
 29 52  1  0  0  0
 30 31  2  0  0  0
 30 32  1  0  0  0
 32 53  1  0  0  0
 32 54  1  0  0  0
 32 55  1  0  0  0
M  END
> <i_i_glide_confnum>
224

> <i_i_glide_lignum>
2442

> <i_i_glide_posenum>
282

> <i_i_glide_rotatable_bonds>
7

> <i_m_Source_File_Index>
3920

> <b_m_subgroup_collapsed>
0

> <r_i_docking_score>
-5.48715

> <r_i_glide_ecoul>
-4.39742

> <r_i_glide_eff_state_penalty>
0

> <r_i_glide_einternal>
12.6612

> <r_i_glide_emodel>
-59.5652

> <r_i_glide_energy>
-52.5281

> <r_i_glide_erotb>
0.549611

> <r_i_glide_esite>
-0.0330107

> <r_i_glide_evdw>
-48.1307

> <r_i_glide_gscore>
-5.48715

> <r_i_glide_hbond>
-0.153724

> <r_i_glide_ligand_efficiency>
-0.171473

> <r_i_glide_ligand_efficiency_ln>
-1.22872

> <r_i_glide_ligand_efficiency_sa>
-0.544394

> <r_i_glide_lipo>
-2.82315

> <r_i_glide_metal>
0

> <r_i_glide_rewards>
0.0392701

> <s_i_glide_gridfile>
wee1_glide-grid

> <s_m_Source_File>
wee1_decoys_glide_SP.sdf

> <s_m_Source_Path>
/Users/zhangxujun/Desktop

> <s_m_entry_id>
4195

> <s_m_entry_name>
wee1_decoys_glide_SP.3920

> <s_m_subgroup_title>
wee1_decoys_glide_SP

> <s_m_subgroupid>
wee1_decoys_glide_SP


$$$$
