ZINC10353145_5026
                    3D
 Schrodinger Suite 2024-2.
 53 56  0  0  1  0            999 V2000
    6.1859   55.7370   17.5071 C   0  0  0  0  0  0
    5.5307   54.7427   18.4290 C   0  0  0  0  0  0
    4.2840   54.6285   18.9968 C   0  0  0  0  0  0
    4.3211   53.4722   19.7708 C   0  0  0  0  0  0
    5.5041   52.8981   19.6815 N   0  0  0  0  0  0
    6.2829   53.6961   18.8421 O   0  0  0  0  0  0
    3.2527   53.0215   20.5345 N   0  0  0  0  0  0
    3.2650   52.0070   21.4269 C   0  0  0  0  0  0
    4.2425   51.2968   21.6533 O   0  0  0  0  0  0
    2.0098   51.8416   22.1443 C   0  0  0  0  0  0
    1.3455   50.6490   22.2657 C   0  0  0  0  0  0
    0.1041   50.5873   22.9190 N   0  0  0  0  0  0
   -0.5985   51.7327   23.2759 C   0  0  0  0  0  0
   -2.1639   51.8789   23.8535 S   0  0  0  0  0  0
    0.0939   52.8967   23.1982 N   0  0  0  0  0  0
    1.5315   53.0771   22.9468 C   0  0  1  0  0  0
    1.6266   53.9747   22.3326 H   0  0  0  0  0  0
    2.3561   53.3807   24.2038 C   0  0  0  0  0  0
    3.5209   54.1410   24.0807 C   0  0  0  0  0  0
    4.2550   54.4909   25.2094 C   0  0  0  0  0  0
    3.8347   54.0974   26.4782 C   0  0  0  0  0  0
    2.6621   53.3381   26.6068 C   0  0  0  0  0  0
    1.9284   52.9849   25.4776 C   0  0  0  0  0  0
    4.6323   54.4969   27.5318 O   0  0  0  0  0  0
    4.2040   54.3057   28.8773 C   0  0  0  0  0  0
    5.1040   54.8967   29.6566 F   0  0  0  0  0  0
    4.1621   53.0128   29.2049 F   0  0  0  0  0  0
    3.0293   54.8922   29.1165 F   0  0  0  0  0  0
   -0.4572   49.3227   23.2259 C   0  0  0  0  0  0
   -0.2929   48.8068   24.5154 C   0  0  0  0  0  0
   -0.9728   47.6528   24.8818 C   0  0  0  0  0  0
   -1.7697   46.9896   23.9519 C   0  0  0  0  0  0
   -1.9037   47.4769   22.6530 C   0  0  0  0  0  0
   -1.2550   48.6535   22.2887 C   0  0  0  0  0  0
    1.8343   49.3414   21.6059 C   0  0  0  0  0  0
    5.5099   56.5495   17.2426 H   0  0  0  0  0  0
    7.0680   56.1839   17.9637 H   0  0  0  0  0  0
    6.5056   55.2655   16.5787 H   0  0  0  0  0  0
    3.4524   55.3035   18.8730 H   0  0  0  0  0  0
    2.3984   53.5522   20.4362 H   0  0  0  0  0  0
   -0.4263   53.6862   23.5513 H   0  0  0  0  0  0
    3.8602   54.4690   23.1082 H   0  0  0  0  0  0
    5.1567   55.0754   25.1000 H   0  0  0  0  0  0
    2.3062   53.0084   27.5705 H   0  0  0  0  0  0
    1.0299   52.3997   25.6058 H   0  0  0  0  0  0
    0.3050   49.3268   25.2508 H   0  0  0  0  0  0
   -0.8960   47.2963   25.8992 H   0  0  0  0  0  0
   -2.2996   46.0981   24.2480 H   0  0  0  0  0  0
   -2.5321   46.9631   21.9408 H   0  0  0  0  0  0
   -1.3961   49.0607   21.2975 H   0  0  0  0  0  0
    2.7030   49.4583   20.9613 H   0  0  0  0  0  0
    2.1072   48.6151   22.3719 H   0  0  0  0  0  0
    1.0654   48.9061   20.9695 H   0  0  0  0  0  0
  1  2  1  0  0  0
  1 36  1  0  0  0
  1 37  1  0  0  0
  1 38  1  0  0  0
  2  6  1  0  0  0
  2  3  2  0  0  0
  3  4  1  0  0  0
  3 39  1  0  0  0
  4  5  2  0  0  0
  4  7  1  0  0  0
  5  6  1  0  0  0
  7  8  1  0  0  0
  7 40  1  0  0  0
  8  9  2  0  0  0
  8 10  1  0  0  0
 10 16  1  0  0  0
 10 11  2  0  0  0
 11 12  1  0  0  0
 11 35  1  0  0  0
 12 13  1  0  0  0
 12 29  1  0  0  0
 13 14  2  0  0  0
 13 15  1  0  0  0
 15 16  1  0  0  0
 15 41  1  0  0  0
 16 17  1  0  0  0
 16 18  1  0  0  0
 18 23  2  0  0  0
 18 19  1  0  0  0
 19 20  2  0  0  0
 19 42  1  0  0  0
 20 21  1  0  0  0
 20 43  1  0  0  0
 21 22  2  0  0  0
 21 24  1  0  0  0
 22 23  1  0  0  0
 22 44  1  0  0  0
 23 45  1  0  0  0
 24 25  1  0  0  0
 25 26  1  0  0  0
 25 27  1  0  0  0
 25 28  1  0  0  0
 29 34  2  0  0  0
 29 30  1  0  0  0
 30 31  2  0  0  0
 30 46  1  0  0  0
 31 32  1  0  0  0
 31 47  1  0  0  0
 32 33  2  0  0  0
 32 48  1  0  0  0
 33 34  1  0  0  0
 33 49  1  0  0  0
 34 50  1  0  0  0
 35 51  1  0  0  0
 35 52  1  0  0  0
 35 53  1  0  0  0
M  END
> <i_i_glide_confnum>
40

> <i_i_glide_lignum>
5027

> <i_i_glide_posenum>
28

> <i_i_glide_rotatable_bonds>
7

> <i_m_Source_File_Index>
4798

> <b_m_subgroup_collapsed>
0

> <r_i_docking_score>
-5.68081

> <r_i_glide_ecoul>
-5.57969

> <r_i_glide_eff_state_penalty>
0

> <r_i_glide_einternal>
11.5838

> <r_i_glide_emodel>
-57.6164

> <r_i_glide_energy>
-45.8979

> <r_i_glide_erotb>
0.511368

> <r_i_glide_esite>
-0.118342

> <r_i_glide_evdw>
-40.3182

> <r_i_glide_gscore>
-5.68081

> <r_i_glide_hbond>
-0.32

> <r_i_glide_ligand_efficiency>
-0.167083

> <r_i_glide_ligand_efficiency_ln>
-1.25505

> <r_i_glide_ligand_efficiency_sa>
-0.541283

> <r_i_glide_lipo>
-2.01653

> <r_i_glide_metal>
0

> <r_i_glide_rewards>
-0.884451

> <s_i_glide_gridfile>
wee1_glide-grid

> <s_m_Source_File>
wee1_decoys_glide_SP.sdf

> <s_m_Source_Path>
/Users/zhangxujun/Desktop

> <s_m_entry_id>
5073

> <s_m_entry_name>
wee1_decoys_glide_SP.4798

> <s_m_subgroup_title>
wee1_decoys_glide_SP

> <s_m_subgroupid>
wee1_decoys_glide_SP


$$$$
