@<TRIPOS>MOLECULE
ZINC33761422_2974
54   57    1
SMALL
USER_CHARGES


@<TRIPOS>ATOM
      1 C1          1.4044   50.3947   21.9843 C.3       1 UNK         0.0000 
      2 C2          2.4407   51.4815   21.7579 C.ar      1 UNK         0.0000 
      3 C3          2.3410   52.6914   22.4492 C.ar      1 UNK         0.0000 
      4 C4          3.3050   53.6799   22.2638 C.ar      1 UNK         0.0000 
      5 C5          4.3765   53.4437   21.3998 C.ar      1 UNK         0.0000 
      6 C6          4.4750   52.2395   20.7005 C.ar      1 UNK         0.0000 
      7 C7          3.5010   51.2608   20.8771 C.ar      1 UNK         0.0000 
      8 N8          5.3663   54.4275   21.2205 N.pl3     1 UNK         0.0000 
      9 C9          5.5293   55.2751   20.1420 C.ar      1 UNK         0.0000 
     10 N10         6.5195   56.1083   20.3501 N.2       1 UNK         0.0000 
     11 N11         7.0452   55.8164   21.6026 N.2       1 UNK         0.0000 
     12 C12         6.3385   54.8403   22.1127 C.ar      1 UNK         0.0000 
     13 S13         6.7042   54.0968   23.6710 S.3       1 UNK         0.0000 
     14 C14         5.6410   55.1333   24.7113 C.3       1 UNK         0.0000 
     15 C15         5.3736   54.4898   26.0601 C.ar      1 UNK         0.0000 
     16 C16         6.4241   54.2914   26.9576 C.ar      1 UNK         0.0000 
     17 C17         6.1814   53.6977   28.1899 C.ar      1 UNK         0.0000 
     18 C18         4.8856   53.3140   28.5277 C.ar      1 UNK         0.0000 
     19 C19         3.8290   53.5185   27.6439 C.ar      1 UNK         0.0000 
     20 C20         4.0741   54.1038   26.4055 C.ar      1 UNK         0.0000 
     21 C21         4.6831   55.2612   18.8800 C.3       1 UNK         0.0000 
     22 N22         4.9473   54.0759   18.0613 N.am      1 UNK         0.0000 
     23 C23         5.7464   54.0375   16.9839 C.2       1 UNK         0.0000 
     24 O24         6.5074   54.9507   16.6663 O.2       1 UNK         0.0000 
     25 N25         5.5634   52.8964   16.2963 N.am      1 UNK         0.0000 
     26 C26         6.2028   52.4532   15.1251 C.ar      1 UNK         0.0000 
     27 C27         7.4501   52.9192   14.6809 C.ar      1 UNK         0.0000 
     28 C28         8.0356   52.3624   13.5452 C.ar      1 UNK         0.0000 
     29 C29         7.3819   51.3424   12.8547 C.ar      1 UNK         0.0000 
     30 C30         6.1378   50.8857   13.2836 C.ar      1 UNK         0.0000 
     31 C31         5.5507   51.4388   14.4182 C.ar      1 UNK         0.0000 
     32 Br32        8.1957   50.5492   11.3259 Br        1 UNK         0.0000 
     33 H33         1.1327   50.3414   23.0394 H         1 UNK         0.0000 
     34 H34         0.4998   50.5965   21.4081 H         1 UNK         0.0000 
     35 H35         1.7885   49.4098   21.7117 H         1 UNK         0.0000 
     36 H36         1.5150   52.8683   23.1228 H         1 UNK         0.0000 
     37 H37         3.1991   54.6244   22.7741 H         1 UNK         0.0000 
     38 H38         5.2977   52.0550   20.0243 H         1 UNK         0.0000 
     39 H39         3.5766   50.3335   20.3287 H         1 UNK         0.0000 
     40 H40         6.1213   56.1009   24.8557 H         1 UNK         0.0000 
     41 H41         4.6957   55.2967   24.2016 H         1 UNK         0.0000 
     42 H42         7.4299   54.5822   26.6984 H         1 UNK         0.0000 
     43 H43         6.9968   53.5400   28.8812 H         1 UNK         0.0000 
     44 H44         4.6980   52.8509   29.4846 H         1 UNK         0.0000 
     45 H45         2.8291   53.2145   27.9140 H         1 UNK         0.0000 
     46 H46         3.2534   54.2507   25.7177 H         1 UNK         0.0000 
     47 H47         4.8199   56.1752   18.2968 H         1 UNK         0.0000 
     48 H48         3.6250   55.2583   19.1425 H         1 UNK         0.0000 
     49 H49         4.4697   53.2271   18.3295 H         1 UNK         0.0000 
     50 H50         4.8783   52.2516   16.6625 H         1 UNK         0.0000 
     51 H51         7.9884   53.6858   15.2180 H         1 UNK         0.0000 
     52 H52         9.0017   52.7098   13.2101 H         1 UNK         0.0000 
     53 H53         5.6373   50.0914   12.7508 H         1 UNK         0.0000 
     54 H54         4.6003   51.0518   14.7619 H         1 UNK         0.0000 
@<TRIPOS>BOND
     1    1    2 1    
     2    1   33 1    
     3    1   34 1    
     4    1   35 1    
     5    2    7 ar   
     6    2    3 ar   
     7    3    4 ar   
     8    3   36 1    
     9    4    5 ar   
    10    4   37 1    
    11    5    6 ar   
    12    5    8 1    
    13    6    7 ar   
    14    6   38 1    
    15    7   39 1    
    16    8   12 ar   
    17    8    9 ar   
    18    9   10 ar   
    19    9   21 1    
    20   10   11 ar   
    21   11   12 ar   
    22   12   13 1    
    23   13   14 1    
    24   14   15 1    
    25   14   40 1    
    26   14   41 1    
    27   15   20 ar   
    28   15   16 ar   
    29   16   17 ar   
    30   16   42 1    
    31   17   18 ar   
    32   17   43 1    
    33   18   19 ar   
    34   18   44 1    
    35   19   20 ar   
    36   19   45 1    
    37   20   46 1    
    38   21   22 1    
    39   21   47 1    
    40   21   48 1    
    41   22   23 am   BACKBONE|DICT|INTERRES
    42   22   49 1    
    43   23   24 2    
    44   23   25 am   BACKBONE|DICT|INTERRES
    45   25   26 1    
    46   25   50 1    
    47   26   31 ar   
    48   26   27 ar   
    49   27   28 ar   
    50   27   51 1    
    51   28   29 ar   
    52   28   52 1    
    53   29   30 ar   
    54   29   32 1    
    55   30   31 ar   
    56   30   53 1    
    57   31   54 1    
@<TRIPOS>SUBSTRUCTURE
     1 UNK         1 GROUP             0       ****    0 ROOT    
