@<TRIPOS>MOLECULE
ZINC39548332_2322
57   61    1
SMALL
USER_CHARGES


@<TRIPOS>ATOM
      1 C1          6.1075   58.5137   17.1306 C.3       1 UNK         0.0000 
      2 C2          7.3815   57.7352   17.5569 C.3       1 UNK         0.0000 
      3 C3          7.0679   57.0463   18.8799 C.2       1 UNK         0.0000 
      4 O4          6.7044   57.5974   19.9234 O.2       1 UNK         0.0000 
      5 N5          7.2322   55.7242   18.6523 N.am      1 UNK         0.0000 
      6 C6          7.5627   55.4168   17.3745 C.2       1 UNK         0.0000 
      7 O7          7.9792   54.3472   16.9365 O.2       1 UNK         0.0000 
      8 N8          7.5348   56.5784   16.7155 N.am      1 UNK         0.0000 
      9 C9          7.0185   54.6870   19.6779 C.3       1 UNK         0.0000 
     10 C10         5.5665   54.6140   20.1738 C.2       1 UNK         0.0000 
     11 O11         4.6150   54.8968   19.4499 O.2       1 UNK         0.0000 
     12 N12         5.4495   54.2058   21.4439 N.am      1 UNK         0.0000 
     13 C13         4.2166   54.0098   22.2122 C.3       1 UNK         0.0000 
     14 H14         3.5460   54.8412   21.9758 H         1 UNK         0.0000 
     15 C15         3.4062   52.7483   21.8376 C.ar      1 UNK         0.0000 
     16 C16         3.8739   51.8151   20.8960 C.ar      1 UNK         0.0000 
     17 C17         3.1039   50.7107   20.5488 C.ar      1 UNK         0.0000 
     18 C18         1.8637   50.5149   21.1517 C.ar      1 UNK         0.0000 
     19 C19         1.3789   51.4306   22.0823 C.ar      1 UNK         0.0000 
     20 C20         2.1423   52.5473   22.4134 C.ar      1 UNK         0.0000 
     21 C21         4.5731   54.0971   23.7016 C.2       1 UNK         0.0000 
     22 C22         5.7826   54.2616   24.3861 C.2       1 UNK         0.0000 
     23 C23         5.4765   54.2822   25.7787 C.ar      1 UNK         0.0000 
     24 C24         6.2011   54.3982   26.9758 C.ar      1 UNK         0.0000 
     25 C25         5.4997   54.3796   28.1856 C.ar      1 UNK         0.0000 
     26 C26         4.1100   54.2409   28.2209 C.ar      1 UNK         0.0000 
     27 C27         3.3622   54.1182   27.0475 C.ar      1 UNK         0.0000 
     28 C28         4.0717   54.1491   25.8402 C.ar      1 UNK         0.0000 
     29 O29         3.5323   54.0610   24.5886 O.3       1 UNK         0.0000 
     30 C30         8.6990   58.5563   17.6226 C.ar      1 UNK         0.0000 
     31 C31         8.7464   59.8993   17.2151 C.ar      1 UNK         0.0000 
     32 C32         9.9349   60.6217   17.2799 C.ar      1 UNK         0.0000 
     33 C33        11.0890   60.0142   17.7631 C.ar      1 UNK         0.0000 
     34 C34        11.0705   58.6828   18.1627 C.ar      1 UNK         0.0000 
     35 C35         9.8859   57.9573   18.0831 C.ar      1 UNK         0.0000 
     36 F36        12.2357   60.7264   17.8473 F         1 UNK         0.0000 
     37 H37         5.8587   59.2966   17.8470 H         1 UNK         0.0000 
     38 H38         6.2277   58.9929   16.1588 H         1 UNK         0.0000 
     39 H39         5.2269   57.8712   17.0517 H         1 UNK         0.0000 
     40 H40         7.3697   56.6344   15.7219 H         1 UNK         0.0000 
     41 H41         7.6866   54.8971   20.5148 H         1 UNK         0.0000 
     42 H42         7.2820   53.7036   19.2816 H         1 UNK         0.0000 
     43 H43         6.2746   53.8321   21.8809 H         1 UNK         0.0000 
     44 H44         4.8266   51.9349   20.4002 H         1 UNK         0.0000 
     45 H45         3.4679   50.0141   19.8055 H         1 UNK         0.0000 
     46 H46         1.2706   49.6525   20.8869 H         1 UNK         0.0000 
     47 H47         0.4109   51.2798   22.5389 H         1 UNK         0.0000 
     48 H48         1.7426   53.2610   23.1188 H         1 UNK         0.0000 
     49 H49         6.7594   54.3487   23.9337 H         1 UNK         0.0000 
     50 H50         7.2763   54.4912   26.9722 H         1 UNK         0.0000 
     51 H51         6.0480   54.4803   29.1136 H         1 UNK         0.0000 
     52 H52         3.6046   54.2321   29.1757 H         1 UNK         0.0000 
     53 H53         2.2876   54.0112   27.0652 H         1 UNK         0.0000 
     54 H54         7.8731   60.4094   16.8405 H         1 UNK         0.0000 
     55 H55         9.9605   61.6503   16.9532 H         1 UNK         0.0000 
     56 H56        11.9696   58.2121   18.5318 H         1 UNK         0.0000 
     57 H57         9.9007   56.9234   18.3967 H         1 UNK         0.0000 
@<TRIPOS>BOND
     1    1    2 1    
     2    1   37 1    
     3    1   38 1    
     4    1   39 1    
     5    2    8 1    
     6    2    3 1    
     7    2   30 1    
     8    3    4 2    
     9    3    5 am   BACKBONE|DICT|INTERRES
    10    5    6 am   BACKBONE|DICT|INTERRES
    11    5    9 1    
    12    6    7 2    
    13    6    8 am   BACKBONE|DICT|INTERRES
    14    8   40 1    
    15    9   10 1    
    16    9   41 1    
    17    9   42 1    
    18   10   11 2    
    19   10   12 am   BACKBONE|DICT|INTERRES
    20   12   13 1    
    21   12   43 1    
    22   13   14 1    
    23   13   15 1    
    24   13   21 1    
    25   15   20 ar   
    26   15   16 ar   
    27   16   17 ar   
    28   16   44 1    
    29   17   18 ar   
    30   17   45 1    
    31   18   19 ar   
    32   18   46 1    
    33   19   20 ar   
    34   19   47 1    
    35   20   48 1    
    36   21   29 1    
    37   21   22 2    
    38   22   23 1    
    39   22   49 1    
    40   23   28 ar   
    41   23   24 ar   
    42   24   25 ar   
    43   24   50 1    
    44   25   26 ar   
    45   25   51 1    
    46   26   27 ar   
    47   26   52 1    
    48   27   28 ar   
    49   27   53 1    
    50   28   29 1    
    51   30   35 ar   
    52   30   31 ar   
    53   31   32 ar   
    54   31   54 1    
    55   32   33 ar   
    56   32   55 1    
    57   33   34 ar   
    58   33   36 1    
    59   34   35 ar   
    60   34   56 1    
    61   35   57 1    
@<TRIPOS>SUBSTRUCTURE
     1 UNK         1 GROUP             0       ****    0 ROOT    
