@<TRIPOS>MOLECULE
ZINC14653746_2958
53   55    1
SMALL
USER_CHARGES


@<TRIPOS>ATOM
      1 C1          1.6133   56.3065   30.2071 C.3       1 UNK         0.0000 
      2 C2          1.7685   54.8586   29.7082 C.3       1 UNK         0.0000 
      3 C3          0.7239   53.9209   30.3492 C.3       1 UNK         0.0000 
      4 C4          1.7214   54.8131   28.1696 C.3       1 UNK         0.0000 
      5 O5          2.1517   53.5358   27.7043 O.3       1 UNK         0.0000 
      6 C6          1.7926   53.2638   26.4098 C.ar      1 UNK         0.0000 
      7 C7          0.6916   52.4390   26.1752 C.ar      1 UNK         0.0000 
      8 C8          0.2702   52.1733   24.8723 C.ar      1 UNK         0.0000 
      9 C9          0.9543   52.7119   23.7730 C.ar      1 UNK         0.0000 
     10 C10         2.0732   53.5314   24.0185 C.ar      1 UNK         0.0000 
     11 C11         2.4992   53.7900   25.3203 C.ar      1 UNK         0.0000 
     12 Br12        4.0299   54.8956   25.5908 Br        1 UNK         0.0000 
     13 C13         0.4845   52.4033   22.3634 C.2       1 UNK         0.0000 
     14 O14        -0.6899   52.0929   22.1514 O.2       1 UNK         0.0000 
     15 N15         1.4513   52.4965   21.4222 N.am      1 UNK         0.0000 
     16 C16         1.5622   52.0917   20.1131 C.2       1 UNK         0.0000 
     17 S17         0.4077   51.3069   19.1984 S.2       1 UNK         0.0000 
     18 N18         2.7448   52.3816   19.4845 N.pl3     1 UNK         0.0000 
     19 C19         3.8185   53.0458   20.0822 C.2       1 UNK         0.0000 
     20 C20         4.4269   54.2577   19.6742 C.2       1 UNK         0.0000 
     21 C21         5.3808   54.6275   20.6524 C.2       1 UNK         0.0000 
     22 C22         5.5041   53.7482   21.7015 C.2       1 UNK         0.0000 
     23 S23         4.5423   52.3446   21.5091 S.3       1 UNK         0.0000 
     24 C24         6.5148   54.1733   22.7286 C.3       1 UNK         0.0000 
     25 C25         7.2439   55.2985   21.9787 C.3       1 UNK         0.0000 
     26 C26         6.3060   55.8031   20.8692 C.3       1 UNK         0.0000 
     27 C27         4.1284   55.0746   18.4851 C.2       1 UNK         0.0000 
     28 O28         4.6736   56.1586   18.2561 O.2       1 UNK         0.0000 
     29 O29         3.2046   54.5034   17.6827 O.3       1 UNK         0.0000 
     30 C30         2.7813   55.1489   16.4911 C.3       1 UNK         0.0000 
     31 H31         0.7063   56.7726   29.8290 H         1 UNK         0.0000 
     32 H32         2.4544   56.9077   29.8618 H         1 UNK         0.0000 
     33 H33         1.5874   56.3698   31.2957 H         1 UNK         0.0000 
     34 H34         2.7587   54.5182   30.0160 H         1 UNK         0.0000 
     35 H35        -0.2926   54.2081   30.0767 H         1 UNK         0.0000 
     36 H36         0.8696   52.8887   30.0240 H         1 UNK         0.0000 
     37 H37         0.7881   53.9313   31.4370 H         1 UNK         0.0000 
     38 H38         0.7052   55.0406   27.8365 H         1 UNK         0.0000 
     39 H39         2.3714   55.5829   27.7542 H         1 UNK         0.0000 
     40 H40         0.1538   52.0178   27.0116 H         1 UNK         0.0000 
     41 H41        -0.5941   51.5408   24.7276 H         1 UNK         0.0000 
     42 H42         2.6257   53.9900   23.2072 H         1 UNK         0.0000 
     43 H43         2.3175   52.8454   21.7960 H         1 UNK         0.0000 
     44 H44         2.7306   52.3847   18.4738 H         1 UNK         0.0000 
     45 H45         6.0517   54.5371   23.6423 H         1 UNK         0.0000 
     46 H46         7.2108   53.3835   23.0096 H         1 UNK         0.0000 
     47 H47         7.5604   56.0961   22.6501 H         1 UNK         0.0000 
     48 H48         8.1529   54.8975   21.5256 H         1 UNK         0.0000 
     49 H49         6.8611   56.0814   19.9718 H         1 UNK         0.0000 
     50 H50         5.7614   56.6852   21.2025 H         1 UNK         0.0000 
     51 H51         2.0533   54.5232   15.9709 H         1 UNK         0.0000 
     52 H52         2.3072   56.1065   16.7109 H         1 UNK         0.0000 
     53 H53         3.6228   55.3207   15.8182 H         1 UNK         0.0000 
@<TRIPOS>BOND
     1    1    2 1    
     2    1   31 1    
     3    1   32 1    
     4    1   33 1    
     5    2    3 1    
     6    2    4 1    
     7    2   34 1    
     8    3   35 1    
     9    3   36 1    
    10    3   37 1    
    11    4    5 1    
    12    4   38 1    
    13    4   39 1    
    14    5    6 1    
    15    6   11 ar   
    16    6    7 ar   
    17    7    8 ar   
    18    7   40 1    
    19    8    9 ar   
    20    8   41 1    
    21    9   10 ar   
    22    9   13 1    
    23   10   11 ar   
    24   10   42 1    
    25   11   12 1    
    26   13   14 2    
    27   13   15 am   BACKBONE|DICT|INTERRES
    28   15   16 am   BACKBONE|DICT|INTERRES
    29   15   43 1    
    30   16   17 2    
    31   16   18 1    
    32   18   19 1    
    33   18   44 1    
    34   19   23 1    
    35   19   20 2    
    36   20   21 1    
    37   20   27 1    
    38   21   26 1    
    39   21   22 2    
    40   22   23 1    
    41   22   24 1    
    42   24   25 1    
    43   24   45 1    
    44   24   46 1    
    45   25   26 1    
    46   25   47 1    
    47   25   48 1    
    48   26   49 1    
    49   26   50 1    
    50   27   28 2    
    51   27   29 1    
    52   29   30 1    
    53   30   51 1    
    54   30   52 1    
    55   30   53 1    
@<TRIPOS>SUBSTRUCTURE
     1 UNK         1 GROUP             0       ****    0 ROOT    
