@<TRIPOS>MOLECULE
ZINC09926763_62
65   68    1
SMALL
USER_CHARGES


@<TRIPOS>ATOM
      1 C1          3.8197   54.0882   24.5367 C.3       1 UNK         0.0000 
      2 C2          3.1731   54.3809   23.1743 C.3       1 UNK         0.0000 
      3 O3          2.3687   53.3051   22.6892 O.3       1 UNK         0.0000 
      4 C4          1.1059   53.0826   23.1557 C.2       1 UNK         0.0000 
      5 O5          0.6258   53.7264   24.0847 O.2       1 UNK         0.0000 
      6 C6          0.3548   51.9624   22.5061 C.2       1 UNK         0.0000 
      7 C7          0.6884   51.5641   21.2445 C.2       1 UNK         0.0000 
      8 O8          0.1111   50.5335   20.5925 O.3       1 UNK         0.0000 
      9 C9         -0.9040   49.8325   21.1381 C.2       1 UNK         0.0000 
     10 C10        -1.4050   50.0784   22.3762 C.2       1 UNK         0.0000 
     11 C11        -0.7390   51.1575   23.3022 C.3       1 UNK         0.0000 
     12 C12        -1.7711   51.9967   24.0230 C.ar      1 UNK         0.0000 
     13 C13        -2.7747   52.8348   23.5386 C.ar      1 UNK         0.0000 
     14 C14        -3.6970   53.4007   24.4218 C.ar      1 UNK         0.0000 
     15 C15        -3.6114   53.1335   25.7896 C.ar      1 UNK         0.0000 
     16 C16        -2.5911   52.3141   26.2761 C.ar      1 UNK         0.0000 
     17 C17        -1.6680   51.7650   25.3837 C.ar      1 UNK         0.0000 
     18 N18        -0.6143   50.8899   25.6314 N.am      1 UNK         0.0000 
     19 C19        -0.0241   50.4553   24.4892 C.2       1 UNK         0.0000 
     20 O20         0.9152   49.6645   24.3799 O.2       1 UNK         0.0000 
     21 C21        -0.1005   50.4895   26.9446 C.3       1 UNK         0.0000 
     22 C22         0.9578   51.4552   27.5317 C.3       1 UNK         0.0000 
     23 C23         0.4057   52.7606   28.1553 C.3       1 UNK         0.0000 
     24 C24        -0.3817   52.4998   29.4566 C.3       1 UNK         0.0000 
     25 C25         1.5318   53.7811   28.4008 C.3       1 UNK         0.0000 
     26 C26        -2.5650   49.2730   22.8507 C.2       1 UNK         0.0000 
     27 O27        -2.9130   49.2126   24.0272 O.2       1 UNK         0.0000 
     28 C28        -3.2814   48.4066   21.7999 C.3       1 UNK         0.0000 
     29 C29        -2.3197   47.7211   20.7961 C.3       1 UNK         0.0000 
     30 C30        -1.4307   48.8104   20.1307 C.3       1 UNK         0.0000 
     31 C31        -3.1799   47.0669   19.6962 C.3       1 UNK         0.0000 
     32 C32        -1.4381   46.6915   21.5471 C.3       1 UNK         0.0000 
     33 N33         1.5922   52.0964   20.3598 N.pl3     1 UNK         0.0000 
     34 H34         4.3325   54.9709   24.9173 H         1 UNK         0.0000 
     35 H35         3.0804   53.7937   25.2804 H         1 UNK         0.0000 
     36 H36         4.5607   53.2960   24.4553 H         1 UNK         0.0000 
     37 H37         3.9588   54.5698   22.4396 H         1 UNK         0.0000 
     38 H38         2.5844   55.2957   23.2329 H         1 UNK         0.0000 
     39 H39        -2.8692   53.0165   22.4817 H         1 UNK         0.0000 
     40 H40        -4.4857   54.0346   24.0442 H         1 UNK         0.0000 
     41 H41        -4.3324   53.5615   26.4702 H         1 UNK         0.0000 
     42 H42        -2.5396   52.0966   27.3319 H         1 UNK         0.0000 
     43 H43         0.3125   49.4797   26.8797 H         1 UNK         0.0000 
     44 H44        -0.9420   50.4074   27.6320 H         1 UNK         0.0000 
     45 H45         1.6863   51.6976   26.7569 H         1 UNK         0.0000 
     46 H46         1.5136   50.9222   28.3041 H         1 UNK         0.0000 
     47 H47        -0.2711   53.2210   27.4371 H         1 UNK         0.0000 
     48 H48         0.2507   52.0477   30.2215 H         1 UNK         0.0000 
     49 H49        -1.2274   51.8310   29.2992 H         1 UNK         0.0000 
     50 H50        -0.7791   53.4269   29.8697 H         1 UNK         0.0000 
     51 H51         2.2785   53.3955   29.0959 H         1 UNK         0.0000 
     52 H52         2.0403   54.0361   27.4716 H         1 UNK         0.0000 
     53 H53         1.1417   54.7107   28.8149 H         1 UNK         0.0000 
     54 H54        -3.9458   49.0849   21.2625 H         1 UNK         0.0000 
     55 H55        -3.9235   47.6877   22.3109 H         1 UNK         0.0000 
     56 H56        -1.9818   49.3999   19.3961 H         1 UNK         0.0000 
     57 H57        -0.6095   48.3382   19.5894 H         1 UNK         0.0000 
     58 H58        -3.8452   46.3098   20.1139 H         1 UNK         0.0000 
     59 H59        -3.8038   47.7945   19.1762 H         1 UNK         0.0000 
     60 H60        -2.5569   46.5787   18.9460 H         1 UNK         0.0000 
     61 H61        -2.0402   45.8828   21.9583 H         1 UNK         0.0000 
     62 H62        -0.7046   46.2372   20.8811 H         1 UNK         0.0000 
     63 H63        -0.8955   47.1327   22.3795 H         1 UNK         0.0000 
     64 H64         2.1219   52.9242   20.5995 H         1 UNK         0.0000 
     65 H65         1.7578   51.6678   19.4612 H         1 UNK         0.0000 
@<TRIPOS>BOND
     1    1    2 1    
     2    1   34 1    
     3    1   35 1    
     4    1   36 1    
     5    2    3 1    
     6    2   37 1    
     7    2   38 1    
     8    3    4 1    
     9    4    5 2    
    10    4    6 1    
    11    6   11 1    
    12    6    7 2    
    13    7    8 1    
    14    7   33 1    
    15    8    9 1    
    16    9   30 1    
    17    9   10 2    
    18   10   11 1    
    19   10   26 1    
    20   11   19 1    
    21   11   12 1    
    22   12   17 ar   
    23   12   13 ar   
    24   13   14 ar   
    25   13   39 1    
    26   14   15 ar   
    27   14   40 1    
    28   15   16 ar   
    29   15   41 1    
    30   16   17 ar   
    31   16   42 1    
    32   17   18 1    
    33   18   19 am   BACKBONE|DICT|INTERRES
    34   18   21 1    
    35   19   20 2    
    36   21   22 1    
    37   21   43 1    
    38   21   44 1    
    39   22   23 1    
    40   22   45 1    
    41   22   46 1    
    42   23   24 1    
    43   23   25 1    
    44   23   47 1    
    45   24   48 1    
    46   24   49 1    
    47   24   50 1    
    48   25   51 1    
    49   25   52 1    
    50   25   53 1    
    51   26   27 2    
    52   26   28 1    
    53   28   29 1    
    54   28   54 1    
    55   28   55 1    
    56   29   30 1    
    57   29   31 1    
    58   29   32 1    
    59   30   56 1    
    60   30   57 1    
    61   31   58 1    
    62   31   59 1    
    63   31   60 1    
    64   32   61 1    
    65   32   62 1    
    66   32   63 1    
    67   33   64 1    
    68   33   65 1    
@<TRIPOS>SUBSTRUCTURE
     1 UNK         1 GROUP             0       ****    0 ROOT    
