@<TRIPOS>MOLECULE
ZINC08920040_4921
64   68    1
SMALL
USER_CHARGES


@<TRIPOS>ATOM
      1 C1          0.6046   54.4321   30.7410 C.3       1 UNK         0.0000 
      2 C2          1.0538   53.0315   30.2499 C.3       1 UNK         0.0000 
      3 C3          1.7991   52.3185   31.4026 C.3       1 UNK         0.0000 
      4 C4         -0.2222   52.1964   29.9702 C.3       1 UNK         0.0000 
      5 C5          1.9629   53.0991   28.9621 C.3       1 UNK         0.0000 
      6 H6          2.1473   52.0575   28.6827 H         1 UNK         0.0000 
      7 C7          1.2783   53.8061   27.7616 C.3       1 UNK         0.0000 
      8 C8          2.0113   53.5294   26.4339 C.3       1 UNK         0.0000 
      9 C9          3.4961   53.8429   26.6067 C.2       1 UNK         0.0000 
     10 C10         4.0968   53.9207   27.8736 C.2       1 UNK         0.0000 
     11 S11         5.8018   54.2598   27.7758 S.3       1 UNK         0.0000 
     12 C12         5.7112   54.3205   26.0506 C.ar      1 UNK         0.0000 
     13 C13         4.4230   54.0959   25.5717 C.ar      1 UNK         0.0000 
     14 C14         4.1947   54.1441   24.1213 C.ar      1 UNK         0.0000 
     15 O15         3.0911   54.0890   23.5725 O.2       1 UNK         0.0000 
     16 N16         5.3964   54.3008   23.4133 N.pl3     1 UNK         0.0000 
     17 C17         6.6389   54.4971   24.0087 C.ar      1 UNK         0.0000 
     18 N18         6.8109   54.5439   25.2838 N.2       1 UNK         0.0000 
     19 C19         5.3107   54.4383   21.9280 C.3       1 UNK         0.0000 
     20 C20         4.7063   53.2197   21.1964 C.2       1 UNK         0.0000 
     21 O21         4.7983   52.0932   21.6818 O.2       1 UNK         0.0000 
     22 N22         4.1392   53.5145   20.0091 N.am      1 UNK         0.0000 
     23 C23         3.3884   52.6882   19.1742 C.2       1 UNK         0.0000 
     24 C24         3.0700   52.9562   17.8250 C.2       1 UNK         0.0000 
     25 C25         2.2133   51.9412   17.2848 C.2       1 UNK         0.0000 
     26 C26         1.9184   50.9374   18.2244 C.2       1 UNK         0.0000 
     27 S27         2.7011   51.1904   19.7383 S.3       1 UNK         0.0000 
     28 C28         1.0790   49.6976   17.9668 C.3       1 UNK         0.0000 
     29 C29         0.1801   49.9453   16.7441 C.3       1 UNK         0.0000 
     30 C30         0.9970   50.4884   15.5647 C.3       1 UNK         0.0000 
     31 C31         1.6316   51.8671   15.8572 C.3       1 UNK         0.0000 
     32 C32         3.4977   54.1820   17.1503 C.2       1 UNK         0.0000 
     33 O33         3.8170   55.2003   17.7600 O.2       1 UNK         0.0000 
     34 N34         3.5862   54.1419   15.8184 N.am      1 UNK         0.0000 
     35 C35         3.3563   53.7689   29.1995 C.3       1 UNK         0.0000 
     36 H36         0.0814   54.3693   31.6949 H         1 UNK         0.0000 
     37 H37        -0.0922   54.8960   30.0454 H         1 UNK         0.0000 
     38 H38         1.4347   55.1233   30.8772 H         1 UNK         0.0000 
     39 H39         2.0664   51.3010   31.1305 H         1 UNK         0.0000 
     40 H40         2.7225   52.8206   31.6812 H         1 UNK         0.0000 
     41 H41         1.1837   52.2550   32.3029 H         1 UNK         0.0000 
     42 H42         0.0198   51.2239   29.5417 H         1 UNK         0.0000 
     43 H43        -0.7958   52.0134   30.8812 H         1 UNK         0.0000 
     44 H44        -0.9007   52.6896   29.2786 H         1 UNK         0.0000 
     45 H45         0.2703   53.4185   27.6268 H         1 UNK         0.0000 
     46 H46         1.1335   54.8704   27.9566 H         1 UNK         0.0000 
     47 H47         1.8946   52.4818   26.1560 H         1 UNK         0.0000 
     48 H48         1.5535   54.0968   25.6275 H         1 UNK         0.0000 
     49 H49         7.5032   54.6278   23.3609 H         1 UNK         0.0000 
     50 H50         4.7187   55.3200   21.6845 H         1 UNK         0.0000 
     51 H51         6.2961   54.6026   21.4875 H         1 UNK         0.0000 
     52 H52         4.2942   54.4384   19.6263 H         1 UNK         0.0000 
     53 H53         1.7384   48.8507   17.7723 H         1 UNK         0.0000 
     54 H54         0.4763   49.4387   18.8360 H         1 UNK         0.0000 
     55 H55        -0.3151   49.0179   16.4588 H         1 UNK         0.0000 
     56 H56        -0.6144   50.6497   16.9958 H         1 UNK         0.0000 
     57 H57         1.7837   49.7710   15.3191 H         1 UNK         0.0000 
     58 H58         0.3735   50.5584   14.6721 H         1 UNK         0.0000 
     59 H59         0.8907   52.6563   15.7219 H         1 UNK         0.0000 
     60 H60         2.3937   52.0171   15.0968 H         1 UNK         0.0000 
     61 H61         3.4216   53.2785   15.3230 H         1 UNK         0.0000 
     62 H62         3.8947   54.9629   15.3220 H         1 UNK         0.0000 
     63 H63         3.2413   54.7571   29.6446 H         1 UNK         0.0000 
     64 H64         3.9645   53.1721   29.8800 H         1 UNK         0.0000 
@<TRIPOS>BOND
     1    1    2 1    
     2    1   36 1    
     3    1   37 1    
     4    1   38 1    
     5    2    3 1    
     6    2    4 1    
     7    2    5 1    
     8    3   39 1    
     9    3   40 1    
    10    3   41 1    
    11    4   42 1    
    12    4   43 1    
    13    4   44 1    
    14    5    6 1    
    15    5   35 1    
    16    5    7 1    
    17    7    8 1    
    18    7   45 1    
    19    7   46 1    
    20    8    9 1    
    21    8   47 1    
    22    8   48 1    
    23    9   13 1    
    24    9   10 2    
    25   10   11 1    
    26   10   35 1    
    27   11   12 1    
    28   12   18 ar   
    29   12   13 ar   
    30   13   14 ar   
    31   14   15 2    
    32   14   16 ar   
    33   16   17 ar   
    34   16   19 1    
    35   17   18 ar   
    36   17   49 1    
    37   19   20 1    
    38   19   50 1    
    39   19   51 1    
    40   20   21 2    
    41   20   22 am   BACKBONE|DICT|INTERRES
    42   22   23 am   BACKBONE|DICT|INTERRES
    43   22   52 1    
    44   23   27 1    
    45   23   24 2    
    46   24   25 1    
    47   24   32 1    
    48   25   31 1    
    49   25   26 2    
    50   26   27 1    
    51   26   28 1    
    52   28   29 1    
    53   28   53 1    
    54   28   54 1    
    55   29   30 1    
    56   29   55 1    
    57   29   56 1    
    58   30   31 1    
    59   30   57 1    
    60   30   58 1    
    61   31   59 1    
    62   31   60 1    
    63   32   33 2    
    64   32   34 am   BACKBONE|DICT|INTERRES
    65   34   61 1    
    66   34   62 1    
    67   35   63 1    
    68   35   64 1    
@<TRIPOS>SUBSTRUCTURE
     1 UNK         1 GROUP             0       ****    0 ROOT    
