@<TRIPOS>MOLECULE
ZINC08854870_3637
48   51    1
SMALL
USER_CHARGES


@<TRIPOS>ATOM
      1 C1          3.8303   52.0637   31.3853 C.3       1 UNK         0.0000 
      2 C2          3.3962   52.1247   29.9109 C.3       1 UNK         0.0000 
      3 C3          1.9747   51.5306   29.6093 C.3       1 UNK         0.0000 
      4 O4          1.1266   52.0753   28.6160 O.3       1 UNK         0.0000 
      5 C5          1.1690   53.4206   28.6246 C.ar      1 UNK         0.0000 
      6 C6          0.6206   54.0989   29.7248 C.ar      1 UNK         0.0000 
      7 C7          1.0637   55.3817   30.0364 C.ar      1 UNK         0.0000 
      8 C8          2.0075   55.9865   29.2184 C.ar      1 UNK         0.0000 
      9 C9          2.4432   55.3029   28.0849 C.ar      1 UNK         0.0000 
     10 C10         2.0496   54.0432   27.7376 C.ar      1 UNK         0.0000 
     11 C11         2.8159   53.3461   26.5855 C.3       1 UNK         0.0000 
     12 H12         2.7869   52.3251   26.8899 H         1 UNK         0.0000 
     13 C13         2.2268   53.4705   25.1618 C.ar      1 UNK         0.0000 
     14 C14         1.0467   53.0849   24.4644 C.ar      1 UNK         0.0000 
     15 N15         1.0851   53.4728   23.1966 N.2       1 UNK         0.0000 
     16 N16         2.2544   54.0714   23.0143 N.pl3     1 UNK         0.0000 
     17 H17         2.5529   54.4369   22.1220 H         1 UNK         0.0000 
     18 C18         2.9759   54.0625   24.1564 C.ar      1 UNK         0.0000 
     19 O19         4.2654   54.5104   24.1927 O.3       1 UNK         0.0000 
     20 C20         4.8919   54.2402   25.3634 C.2       1 UNK         0.0000 
     21 C21         4.3324   53.7009   26.4772 C.2       1 UNK         0.0000 
     22 C22         5.1936   53.4789   27.5904 C.1       1 UNK         0.0000 
     23 N23         5.9694   53.3323   28.4303 N.1       1 UNK         0.0000 
     24 N24         6.2048   54.6015   25.2078 N.pl3     1 UNK         0.0000 
     25 C25        -0.1672   52.3572   24.9578 C.ar      1 UNK         0.0000 
     26 C26        -0.0576   51.4295   25.9917 C.ar      1 UNK         0.0000 
     27 C27        -1.1934   50.8106   26.5034 C.ar      1 UNK         0.0000 
     28 C28        -2.4425   51.0780   25.9528 C.ar      1 UNK         0.0000 
     29 C29        -2.5607   51.9523   24.8797 C.ar      1 UNK         0.0000 
     30 C30        -1.4271   52.5844   24.3842 C.ar      1 UNK         0.0000 
     31 Br31       -3.9940   50.2373   26.6618 Br        1 UNK         0.0000 
     32 H32         4.7032   52.6580   31.5950 H         1 UNK         0.0000 
     33 H33         4.0286   51.0417   31.7082 H         1 UNK         0.0000 
     34 H34         3.0459   52.4499   32.0339 H         1 UNK         0.0000 
     35 H35         3.4804   53.1755   29.6495 H         1 UNK         0.0000 
     36 H36         4.1227   51.5948   29.2923 H         1 UNK         0.0000 
     37 H37         2.0745   50.5015   29.2816 H         1 UNK         0.0000 
     38 H38         1.4073   51.5409   30.5359 H         1 UNK         0.0000 
     39 H39        -0.0446   53.5846   30.4012 H         1 UNK         0.0000 
     40 H40         0.6967   55.8961   30.9118 H         1 UNK         0.0000 
     41 H41         2.3699   56.9770   29.4359 H         1 UNK         0.0000 
     42 H42         3.1171   55.6974   27.3771 H         1 UNK         0.0000 
     43 H43         6.8526   54.4638   25.9713 H         1 UNK         0.0000 
     44 H44         6.5900   54.6883   24.2785 H         1 UNK         0.0000 
     45 H45         0.9042   51.1768   26.4097 H         1 UNK         0.0000 
     46 H46        -1.0966   50.1178   27.3309 H         1 UNK         0.0000 
     47 H47        -3.5275   52.1481   24.4443 H         1 UNK         0.0000 
     48 H48        -1.5371   53.2882   23.5738 H         1 UNK         0.0000 
@<TRIPOS>BOND
     1    1    2 1    
     2    1   32 1    
     3    1   33 1    
     4    1   34 1    
     5    2    3 1    
     6    2   35 1    
     7    2   36 1    
     8    3    4 1    
     9    3   37 1    
    10    3   38 1    
    11    4    5 1    
    12    5   10 ar   
    13    5    6 ar   
    14    6    7 ar   
    15    6   39 1    
    16    7    8 ar   
    17    7   40 1    
    18    8    9 ar   
    19    8   41 1    
    20    9   10 ar   
    21    9   42 1    
    22   10   11 1    
    23   11   12 1    
    24   11   21 1    
    25   11   13 1    
    26   13   18 ar   
    27   13   14 ar   
    28   14   15 ar   
    29   14   25 1    
    30   15   16 ar   
    31   16   17 1    
    32   16   18 ar   
    33   18   19 1    
    34   19   20 1    
    35   20   21 2    
    36   20   24 1    
    37   21   22 1    
    38   22   23 3    
    39   24   43 1    
    40   24   44 1    
    41   25   30 ar   
    42   25   26 ar   
    43   26   27 ar   
    44   26   45 1    
    45   27   28 ar   
    46   27   46 1    
    47   28   29 ar   
    48   28   31 1    
    49   29   30 ar   
    50   29   47 1    
    51   30   48 1    
@<TRIPOS>SUBSTRUCTURE
     1 UNK         1 GROUP             0       ****    0 ROOT    
