@<TRIPOS>MOLECULE
ZINC39677104_3691
65   68    1
SMALL
USER_CHARGES


@<TRIPOS>ATOM
      1 C1          1.4220   53.4523   24.3145 C.3       1 UNK         0.0000 
      2 C2          2.8575   53.8799   24.5609 C.ar      1 UNK         0.0000 
      3 C3          3.3101   54.0968   25.8605 C.ar      1 UNK         0.0000 
      4 C4          4.6245   54.4958   26.0824 C.ar      1 UNK         0.0000 
      5 C5          5.5050   54.6777   25.0110 C.ar      1 UNK         0.0000 
      6 C6          5.0667   54.4471   23.6902 C.ar      1 UNK         0.0000 
      7 C7          3.7346   54.0433   23.4874 C.ar      1 UNK         0.0000 
      8 C8          6.0293   54.6773   22.5093 C.3       1 UNK         0.0000 
      9 C9          5.4467   54.4616   21.0895 C.3       1 UNK         0.0000 
     10 N10         6.2824   54.8567   19.9509 N.am      1 UNK         0.0000 
     11 C11         6.7601   56.0848   19.6827 C.2       1 UNK         0.0000 
     12 O12         6.7041   57.0189   20.4837 O.2       1 UNK         0.0000 
     13 C13         7.4255   56.2639   18.2963 C.3       1 UNK         0.0000 
     14 H14         7.8305   55.3032   17.9715 H         1 UNK         0.0000 
     15 C15         8.5801   57.2886   18.3981 C.3       1 UNK         0.0000 
     16 N16         8.6695   57.8159   17.0337 N.am      1 UNK         0.0000 
     17 C17         7.5115   57.4498   16.2183 C.3       1 UNK         0.0000 
     18 C18         6.4805   56.8469   17.1987 C.3       1 UNK         0.0000 
     19 C19         5.5521   55.7850   16.5587 C.3       1 UNK         0.0000 
     20 C20         4.8030   56.3590   15.3365 C.3       1 UNK         0.0000 
     21 N21         3.9412   57.5565   15.8052 N.4       1 UNK         0.0000 
     22 C22         4.7018   58.6365   16.6060 C.3       1 UNK         0.0000 
     23 C23         5.5081   57.9484   17.7282 C.3       1 UNK         0.0000 
     24 C24         9.7484   58.4245   16.4840 C.2       1 UNK         0.0000 
     25 O25         9.8002   58.7420   15.2945 O.2       1 UNK         0.0000 
     26 C26        10.9482   58.6947   17.3551 C.ar      1 UNK         0.0000 
     27 C27        12.1837   58.1113   17.0339 C.ar      1 UNK         0.0000 
     28 C28        13.3137   58.3931   17.7961 C.ar      1 UNK         0.0000 
     29 C29        13.2287   59.2599   18.8819 C.ar      1 UNK         0.0000 
     30 C30        12.0066   59.8409   19.2184 C.ar      1 UNK         0.0000 
     31 C31        10.8664   59.5682   18.4530 C.ar      1 UNK         0.0000 
     32 F32         9.6984   60.1777   18.7739 F         1 UNK         0.0000 
     33 Cl33       11.9154   60.8998   20.5805 Cl        1 UNK         0.0000 
     34 F34        12.3060   57.2642   15.9836 F         1 UNK         0.0000 
     35 C35         6.9236   55.1253   25.3097 C.3       1 UNK         0.0000 
     36 H36         0.9970   52.9598   25.1903 H         1 UNK         0.0000 
     37 H37         1.3676   52.7343   23.4943 H         1 UNK         0.0000 
     38 H38         0.8085   54.3166   24.0576 H         1 UNK         0.0000 
     39 H39         2.6442   53.9635   26.7014 H         1 UNK         0.0000 
     40 H40         4.9562   54.6645   27.0961 H         1 UNK         0.0000 
     41 H41         3.3511   53.8607   22.4959 H         1 UNK         0.0000 
     42 H42         6.3843   55.7011   22.5965 H         1 UNK         0.0000 
     43 H43         6.9123   54.0513   22.6350 H         1 UNK         0.0000 
     44 H44         5.1367   53.4217   20.9832 H         1 UNK         0.0000 
     45 H45         4.5041   54.9990   20.9994 H         1 UNK         0.0000 
     46 H46         6.4337   54.1390   19.2578 H         1 UNK         0.0000 
     47 H47         8.2744   58.1354   19.0143 H         1 UNK         0.0000 
     48 H48         9.4928   56.8093   18.7596 H         1 UNK         0.0000 
     49 H49         7.8493   56.6487   15.5593 H         1 UNK         0.0000 
     50 H50         7.1324   58.2306   15.5575 H         1 UNK         0.0000 
     51 H51         6.1575   54.9516   16.1996 H         1 UNK         0.0000 
     52 H52         4.8692   55.3516   17.2914 H         1 UNK         0.0000 
     53 H53         5.4669   56.7368   14.5559 H         1 UNK         0.0000 
     54 H54         4.1122   55.6365   14.8951 H         1 UNK         0.0000 
     55 H55         3.4913   57.9943   15.0103 H         1 UNK         0.0000 
     56 H56         5.3062   59.2120   15.9029 H         1 UNK         0.0000 
     57 H57         3.9323   59.2967   17.0064 H         1 UNK         0.0000 
     58 H58         4.8309   57.5463   18.4810 H         1 UNK         0.0000 
     59 H59         6.0777   58.7315   18.2324 H         1 UNK         0.0000 
     60 H60        14.2606   57.9378   17.5405 H         1 UNK         0.0000 
     61 H61        14.1116   59.4765   19.4643 H         1 UNK         0.0000 
     62 H62         7.1229   56.0968   24.8606 H         1 UNK         0.0000 
     63 H63         7.1053   55.1913   26.3832 H         1 UNK         0.0000 
     64 H64         7.6297   54.4151   24.8821 H         1 UNK         0.0000 
     65 H65         3.1956   57.2039   16.3875 H         1 UNK         0.0000 
@<TRIPOS>BOND
     1    1    2 1    
     2    1   36 1    
     3    1   37 1    
     4    1   38 1    
     5    2    7 ar   
     6    2    3 ar   
     7    3    4 ar   
     8    3   39 1    
     9    4    5 ar   
    10    4   40 1    
    11    5    6 ar   
    12    5   35 1    
    13    6    7 ar   
    14    6    8 1    
    15    7   41 1    
    16    8    9 1    
    17    8   42 1    
    18    8   43 1    
    19    9   10 1    
    20    9   44 1    
    21    9   45 1    
    22   10   11 am   BACKBONE|DICT|INTERRES
    23   10   46 1    
    24   11   12 2    
    25   11   13 1    
    26   13   14 1    
    27   13   18 1    
    28   13   15 1    
    29   15   16 1    
    30   15   47 1    
    31   15   48 1    
    32   16   17 1    
    33   16   24 am   BACKBONE|DICT|INTERRES
    34   17   18 1    
    35   17   49 1    
    36   17   50 1    
    37   18   23 1    
    38   18   19 1    
    39   19   20 1    
    40   19   51 1    
    41   19   52 1    
    42   20   21 1    
    43   20   53 1    
    44   20   54 1    
    45   21   22 1    
    46   21   55 1    
    47   21   65 1    
    48   22   23 1    
    49   22   56 1    
    50   22   57 1    
    51   23   58 1    
    52   23   59 1    
    53   24   25 2    
    54   24   26 1    
    55   26   31 ar   
    56   26   27 ar   
    57   27   28 ar   
    58   27   34 1    
    59   28   29 ar   
    60   28   60 1    
    61   29   30 ar   
    62   29   61 1    
    63   30   31 ar   
    64   30   33 1    
    65   31   32 1    
    66   35   62 1    
    67   35   63 1    
    68   35   64 1    
@<TRIPOS>SUBSTRUCTURE
     1 UNK         1 GROUP             0       ****    0 ROOT    
