@<TRIPOS>MOLECULE
ZINC13123912_4709
36   39    1
SMALL
USER_CHARGES


@<TRIPOS>ATOM
      1 C1          5.5783   54.3711   24.8244 C.ar      1 UNK         0.0000 
      2 C2          4.4696   54.2147   25.6502 C.ar      1 UNK         0.0000 
      3 C3          3.2150   53.9905   25.0892 C.ar      1 UNK         0.0000 
      4 C4          3.0551   53.9199   23.6969 C.ar      1 UNK         0.0000 
      5 C5          4.1814   54.0966   22.8806 C.ar      1 UNK         0.0000 
      6 C6          5.4395   54.3066   23.4403 C.ar      1 UNK         0.0000 
      7 C7          1.6634   53.7161   23.0570 C.3       1 UNK         0.0000 
      8 H8          1.3837   54.7089   22.7009 H         1 UNK         0.0000 
      9 C9          1.6521   52.7229   21.8599 C.3       1 UNK         0.0000 
     10 C10         1.9623   51.2655   22.2713 C.3       1 UNK         0.0000 
     11 H11         3.0153   51.2066   22.5422 H         1 UNK         0.0000 
     12 N12         1.1870   51.0099   23.4999 N.pl3     1 UNK         0.0000 
     13 C13         0.5649   51.9444   24.3027 C.ar      1 UNK         0.0000 
     14 N14        -0.0240   51.3668   25.3157 N.2       1 UNK         0.0000 
     15 C15         0.3057   50.0969   25.1382 C.ar      1 UNK         0.0000 
     16 N16         1.0364   49.8136   24.0802 N.2       1 UNK         0.0000 
     17 N17        -0.0608   49.1263   26.0185 N.pl3     1 UNK         0.0000 
     18 N18         0.5957   53.2897   23.9804 N.pl3     1 UNK         0.0000 
     19 C19         1.7392   50.2854   21.1252 C.2       1 UNK         0.0000 
     20 C20         2.5883   50.0430   20.0442 C.2       1 UNK         0.0000 
     21 C21         2.1403   49.0676   19.1536 C.2       1 UNK         0.0000 
     22 C22         0.9058   48.5597   19.5068 C.2       1 UNK         0.0000 
     23 S23         0.3050   49.2991   20.9500 S.3       1 UNK         0.0000 
     24 H24         6.5527   54.5410   25.2578 H         1 UNK         0.0000 
     25 H25         4.5825   54.2629   26.7242 H         1 UNK         0.0000 
     26 H26         2.3722   53.8703   25.7537 H         1 UNK         0.0000 
     27 H27         4.0966   54.0834   21.8046 H         1 UNK         0.0000 
     28 H28         6.3023   54.4388   22.8034 H         1 UNK         0.0000 
     29 H29         0.6693   52.7627   21.3851 H         1 UNK         0.0000 
     30 H30         2.3367   53.0416   21.0761 H         1 UNK         0.0000 
     31 H31        -0.6971   49.2814   26.7944 H         1 UNK         0.0000 
     32 H32         0.3185   48.1906   25.9644 H         1 UNK         0.0000 
     33 H33         0.3056   53.9783   24.6599 H         1 UNK         0.0000 
     34 H34         3.5309   50.5546   19.9084 H         1 UNK         0.0000 
     35 H35         2.7035   48.7625   18.2838 H         1 UNK         0.0000 
     36 H36         0.3272   47.8073   18.9910 H         1 UNK         0.0000 
@<TRIPOS>BOND
     1    1    6 ar   
     2    1    2 ar   
     3    1   24 1    
     4    2    3 ar   
     5    2   25 1    
     6    3    4 ar   
     7    3   26 1    
     8    4    5 ar   
     9    4    7 1    
    10    5    6 ar   
    11    5   27 1    
    12    6   28 1    
    13    7    8 1    
    14    7   18 1    
    15    7    9 1    
    16    9   10 1    
    17    9   29 1    
    18    9   30 1    
    19   10   11 1    
    20   10   12 1    
    21   10   19 1    
    22   12   16 ar   
    23   12   13 ar   
    24   13   14 ar   
    25   13   18 1    
    26   14   15 ar   
    27   15   16 ar   
    28   15   17 1    
    29   17   31 1    
    30   17   32 1    
    31   18   33 1    
    32   19   23 1    
    33   19   20 2    
    34   20   21 1    
    35   20   34 1    
    36   21   22 2    
    37   21   35 1    
    38   22   23 1    
    39   22   36 1    
@<TRIPOS>SUBSTRUCTURE
     1 UNK         1 GROUP             0       ****    0 ROOT    
