@<TRIPOS>MOLECULE
ZINC31749178_2528
61   64    1
SMALL
USER_CHARGES


@<TRIPOS>ATOM
      1 C1          3.5077   53.2820   29.5528 C.3       1 UNK         0.0000 
      2 C2          1.9696   53.3972   29.5013 C.3       1 UNK         0.0000 
      3 C3          1.5015   54.8604   29.6157 C.3       1 UNK         0.0000 
      4 C4          1.3838   52.7220   28.2595 C.ar      1 UNK         0.0000 
      5 C5          0.4394   51.7013   28.3854 C.ar      1 UNK         0.0000 
      6 C6         -0.0857   51.0862   27.2502 C.ar      1 UNK         0.0000 
      7 C7          0.3037   51.4863   25.9648 C.ar      1 UNK         0.0000 
      8 C8          1.2621   52.5073   25.8576 C.ar      1 UNK         0.0000 
      9 C9          1.7923   53.1202   26.9862 C.ar      1 UNK         0.0000 
     10 C10        -0.2567   50.7663   24.7049 C.3       1 UNK         0.0000 
     11 C11        -0.2945   51.6399   23.4498 C.2       1 UNK         0.0000 
     12 O12        -1.0060   52.6325   23.2819 O.2       1 UNK         0.0000 
     13 N13         0.5807   51.0851   22.5829 N.am      1 UNK         0.0000 
     14 C14         1.1671   49.9516   23.0387 C.2       1 UNK         0.0000 
     15 O15         2.0446   49.2967   22.4817 O.2       1 UNK         0.0000 
     16 N16         0.6743   49.7580   24.2675 N.am      1 UNK         0.0000 
     17 C17         1.0339   51.7451   21.3355 C.3       1 UNK         0.0000 
     18 C18         2.3329   52.5529   21.5648 C.2       1 UNK         0.0000 
     19 O19         2.6934   52.8450   22.7060 O.2       1 UNK         0.0000 
     20 N20         2.9956   52.8953   20.4406 N.am      1 UNK         0.0000 
     21 C21         4.1948   53.5975   20.3112 C.2       1 UNK         0.0000 
     22 C22         4.7847   54.0069   19.0967 C.2       1 UNK         0.0000 
     23 C23         5.9485   54.7950   19.3128 C.2       1 UNK         0.0000 
     24 C24         6.2773   54.8966   20.6719 C.2       1 UNK         0.0000 
     25 S25         5.1303   54.1120   21.6897 S.3       1 UNK         0.0000 
     26 C26         7.4820   55.6249   21.2423 C.3       1 UNK         0.0000 
     27 C27         8.5138   55.8402   20.1193 C.3       1 UNK         0.0000 
     28 C28         7.8520   56.4225   18.8588 C.3       1 UNK         0.0000 
     29 C29         6.8173   55.4568   18.2324 C.3       1 UNK         0.0000 
     30 C30         4.2270   53.7449   17.7815 C.2       1 UNK         0.0000 
     31 O31         4.1251   54.6175   16.9246 O.2       1 UNK         0.0000 
     32 N32         3.7987   52.4974   17.5691 N.am      1 UNK         0.0000 
     33 C33        -1.6634   50.1321   24.8985 C.3       1 UNK         0.0000 
     34 H34         3.8313   52.2439   29.4626 H         1 UNK         0.0000 
     35 H35         3.9850   53.8449   28.7506 H         1 UNK         0.0000 
     36 H36         3.9050   53.6659   30.4915 H         1 UNK         0.0000 
     37 H37         1.5898   52.8685   30.3784 H         1 UNK         0.0000 
     38 H38         0.4146   54.9140   29.6803 H         1 UNK         0.0000 
     39 H39         1.9029   55.3442   30.5047 H         1 UNK         0.0000 
     40 H40         1.8146   55.4541   28.7561 H         1 UNK         0.0000 
     41 H41         0.1096   51.3706   29.3601 H         1 UNK         0.0000 
     42 H42        -0.7992   50.2895   27.3907 H         1 UNK         0.0000 
     43 H43         1.6140   52.8421   24.8965 H         1 UNK         0.0000 
     44 H44         2.5255   53.9043   26.8652 H         1 UNK         0.0000 
     45 H45         0.6654   48.8465   24.7019 H         1 UNK         0.0000 
     46 H46         0.2695   52.4318   20.9704 H         1 UNK         0.0000 
     47 H47         1.1975   50.9986   20.5565 H         1 UNK         0.0000 
     48 H48         2.5653   52.6455   19.5623 H         1 UNK         0.0000 
     49 H49         7.9232   55.0667   22.0670 H         1 UNK         0.0000 
     50 H50         7.1661   56.5799   21.6524 H         1 UNK         0.0000 
     51 H51         9.0014   54.8967   19.8702 H         1 UNK         0.0000 
     52 H52         9.3114   56.4956   20.4694 H         1 UNK         0.0000 
     53 H53         8.6133   56.6723   18.1190 H         1 UNK         0.0000 
     54 H54         7.3639   57.3659   19.1072 H         1 UNK         0.0000 
     55 H55         6.2106   56.0097   17.5152 H         1 UNK         0.0000 
     56 H56         7.3381   54.6860   17.6634 H         1 UNK         0.0000 
     57 H57         4.2272   51.7273   18.0813 H         1 UNK         0.0000 
     58 H58         3.3552   52.2824   16.6899 H         1 UNK         0.0000 
     59 H59        -2.3846   50.8683   25.2564 H         1 UNK         0.0000 
     60 H60        -2.0647   49.7099   23.9749 H         1 UNK         0.0000 
     61 H61        -1.6456   49.3143   25.6210 H         1 UNK         0.0000 
@<TRIPOS>BOND
     1    1    2 1    
     2    1   34 1    
     3    1   35 1    
     4    1   36 1    
     5    2    3 1    
     6    2    4 1    
     7    2   37 1    
     8    3   38 1    
     9    3   39 1    
    10    3   40 1    
    11    4    9 ar   
    12    4    5 ar   
    13    5    6 ar   
    14    5   41 1    
    15    6    7 ar   
    16    6   42 1    
    17    7    8 ar   
    18    7   10 1    
    19    8    9 ar   
    20    8   43 1    
    21    9   44 1    
    22   10   16 1    
    23   10   11 1    
    24   10   33 1    
    25   11   12 2    
    26   11   13 am   BACKBONE|DICT|INTERRES
    27   13   14 am   BACKBONE|DICT|INTERRES
    28   13   17 1    
    29   14   15 2    
    30   14   16 am   BACKBONE|DICT|INTERRES
    31   16   45 1    
    32   17   18 1    
    33   17   46 1    
    34   17   47 1    
    35   18   19 2    
    36   18   20 am   BACKBONE|DICT|INTERRES
    37   20   21 am   BACKBONE|DICT|INTERRES
    38   20   48 1    
    39   21   25 1    
    40   21   22 2    
    41   22   23 1    
    42   22   30 1    
    43   23   29 1    
    44   23   24 2    
    45   24   25 1    
    46   24   26 1    
    47   26   27 1    
    48   26   49 1    
    49   26   50 1    
    50   27   28 1    
    51   27   51 1    
    52   27   52 1    
    53   28   29 1    
    54   28   53 1    
    55   28   54 1    
    56   29   55 1    
    57   29   56 1    
    58   30   31 2    
    59   30   32 am   BACKBONE|DICT|INTERRES
    60   32   57 1    
    61   32   58 1    
    62   33   59 1    
    63   33   60 1    
    64   33   61 1    
@<TRIPOS>SUBSTRUCTURE
     1 UNK         1 GROUP             0       ****    0 ROOT    
