@<TRIPOS>MOLECULE
ZINC13360585_2019
54   56    1
SMALL
USER_CHARGES


@<TRIPOS>ATOM
      1 C1         -5.9856   49.9232   25.7635 C.ar      1 UNK         0.0000 
      2 C2         -5.2260   48.9337   25.1435 C.ar      1 UNK         0.0000 
      3 C3         -4.3953   48.1171   25.9122 C.ar      1 UNK         0.0000 
      4 C4         -4.3444   48.2741   27.2960 C.ar      1 UNK         0.0000 
      5 C5         -5.0980   49.2656   27.9111 C.ar      1 UNK         0.0000 
      6 C6         -5.9214   50.1036   27.1495 C.ar      1 UNK         0.0000 
      7 C7         -6.7016   51.1975   27.7621 C.2       1 UNK         0.0000 
      8 C8         -6.4808   51.7510   28.9761 C.2       1 UNK         0.0000 
      9 C9         -7.3209   52.8909   29.5764 C.2       1 UNK         0.0000 
     10 O10        -8.2803   53.2961   28.8812 O.co2     1 UNK         0.0000 
     11 O11        -6.8955   53.2963   30.6805 O.co2     1 UNK         0.0000 
     12 S12        -3.3386   46.8921   25.1456 S.o2      1 UNK         0.0000 
     13 O13        -3.3611   45.6963   25.9932 O.2       1 UNK         0.0000 
     14 O14        -3.6659   46.7873   23.7189 O.2       1 UNK         0.0000 
     15 N15        -1.6957   47.5374   25.2816 N.pl3     1 UNK         0.0000 
     16 C16        -1.1523   48.5343   24.4621 C.ar      1 UNK         0.0000 
     17 C17         0.2193   48.7704   24.5587 C.ar      1 UNK         0.0000 
     18 C18         0.8269   49.7252   23.7485 C.ar      1 UNK         0.0000 
     19 C19         0.0529   50.4726   22.8585 C.ar      1 UNK         0.0000 
     20 C20        -1.3258   50.2606   22.7809 C.ar      1 UNK         0.0000 
     21 C21        -1.9240   49.2908   23.5753 C.ar      1 UNK         0.0000 
     22 S22         0.8336   51.7135   21.8270 S.o2      1 UNK         0.0000 
     23 O23         1.9792   50.9973   21.2504 O.2       1 UNK         0.0000 
     24 O24        -0.2122   52.0962   20.8720 O.2       1 UNK         0.0000 
     25 N25         1.1557   52.8538   23.1345 N.2       1 UNK         0.0000 
     26 C26         2.3228   53.3315   23.2998 C.2       1 UNK         0.0000 
     27 N27         3.3862   53.0852   22.4448 N.pl3     1 UNK         0.0000 
     28 C28         4.5302   53.9285   22.1229 C.3       1 UNK         0.0000 
     29 C29         5.6274   53.9259   23.1996 C.3       1 UNK         0.0000 
     30 C30         5.2676   54.5402   24.5693 C.3       1 UNK         0.0000 
     31 C31         3.9614   54.0784   25.2394 C.3       1 UNK         0.0000 
     32 C32         2.6482   54.2832   24.4472 C.3       1 UNK         0.0000 
     33 H33        -6.6142   50.5593   25.1569 H         1 UNK         0.0000 
     34 H34        -5.2770   48.8174   24.0703 H         1 UNK         0.0000 
     35 H35        -3.6955   47.6519   27.8963 H         1 UNK         0.0000 
     36 H36        -5.0273   49.3742   28.9834 H         1 UNK         0.0000 
     37 H37        -7.5302   51.5682   27.1714 H         1 UNK         0.0000 
     38 H38        -5.6603   51.3903   29.5802 H         1 UNK         0.0000 
     39 H39        -1.1804   47.2904   26.1184 H         1 UNK         0.0000 
     40 H40         0.8202   48.1941   25.2491 H         1 UNK         0.0000 
     41 H41         1.8947   49.8804   23.8132 H         1 UNK         0.0000 
     42 H42        -1.9391   50.8401   22.1069 H         1 UNK         0.0000 
     43 H43        -2.9879   49.1471   23.4917 H         1 UNK         0.0000 
     44 H44         4.9465   53.6521   21.1527 H         1 UNK         0.0000 
     45 H45         4.1410   54.9417   22.0111 H         1 UNK         0.0000 
     46 H46         5.9604   52.8969   23.3315 H         1 UNK         0.0000 
     47 H47         6.4972   54.4556   22.8074 H         1 UNK         0.0000 
     48 H48         6.0926   54.3433   25.2562 H         1 UNK         0.0000 
     49 H49         5.2380   55.6254   24.4810 H         1 UNK         0.0000 
     50 H50         3.8716   54.6098   26.1898 H         1 UNK         0.0000 
     51 H51         4.0492   53.0315   25.5232 H         1 UNK         0.0000 
     52 H52         2.5802   55.3031   24.0837 H         1 UNK         0.0000 
     53 H53         1.8414   54.1946   25.1755 H         1 UNK         0.0000 
     54 H54         3.1514   52.4419   21.6945 H         1 UNK         0.0000 
@<TRIPOS>BOND
     1    1    6 ar   
     2    1    2 ar   
     3    1   33 1    
     4    2    3 ar   
     5    2   34 1    
     6    3    4 ar   
     7    3   12 1    
     8    4    5 ar   
     9    4   35 1    
    10    5    6 ar   
    11    5   36 1    
    12    6    7 1    
    13    7    8 2    
    14    7   37 1    
    15    8    9 1    
    16    8   38 1    
    17    9   10 2    
    18    9   11 1    
    19   12   13 2    
    20   12   14 2    
    21   12   15 1    
    22   15   16 1    
    23   15   39 1    
    24   16   21 ar   
    25   16   17 ar   
    26   17   18 ar   
    27   17   40 1    
    28   18   19 ar   
    29   18   41 1    
    30   19   20 ar   
    31   19   22 1    
    32   20   21 ar   
    33   20   42 1    
    34   21   43 1    
    35   22   23 2    
    36   22   24 2    
    37   22   25 1    
    38   25   26 2    
    39   26   32 1    
    40   26   27 1    
    41   27   28 1    
    42   27   54 1    
    43   28   29 1    
    44   28   44 1    
    45   28   45 1    
    46   29   30 1    
    47   29   46 1    
    48   29   47 1    
    49   30   31 1    
    50   30   48 1    
    51   30   49 1    
    52   31   32 1    
    53   31   50 1    
    54   31   51 1    
    55   32   52 1    
    56   32   53 1    
@<TRIPOS>SUBSTRUCTURE
     1 UNK         1 GROUP             0       ****    0 ROOT    
