@<TRIPOS>MOLECULE
ZINC05274740_5846
51   55    1
SMALL
USER_CHARGES


@<TRIPOS>ATOM
      1 C1          1.0022   54.6544   30.3968 C.3       1 UNK         0.0000 
      2 C2          1.4238   53.2157   29.9816 C.3       1 UNK         0.0000 
      3 C3          2.0518   52.4964   31.2017 C.3       1 UNK         0.0000 
      4 C4          0.1336   52.4288   29.6273 C.3       1 UNK         0.0000 
      5 C5          2.4509   53.2235   28.7799 C.3       1 UNK         0.0000 
      6 H6          2.8996   52.2270   28.7549 H         1 UNK         0.0000 
      7 C7          3.6155   54.2381   28.9747 C.3       1 UNK         0.0000 
      8 C8          4.7625   54.0313   27.9625 C.3       1 UNK         0.0000 
      9 C9          4.1897   53.9683   26.5417 C.2       1 UNK         0.0000 
     10 C10         2.8221   53.6960   26.3248 C.2       1 UNK         0.0000 
     11 S11         2.3961   53.6966   24.6471 S.3       1 UNK         0.0000 
     12 C12         4.0196   54.0979   24.2330 C.2       1 UNK         0.0000 
     13 C13         4.8805   54.2239   25.3271 C.2       1 UNK         0.0000 
     14 C14         6.2674   54.6339   25.2038 C.2       1 UNK         0.0000 
     15 O15         7.0827   54.8964   26.0812 O.2       1 UNK         0.0000 
     16 N16         6.6374   54.7656   23.9078 N.am      1 UNK         0.0000 
     17 C17         5.8725   54.3025   22.7201 C.3       1 UNK         0.0000 
     18 H18         6.1180   53.2410   22.6174 H         1 UNK         0.0000 
     19 N19         4.4174   54.3422   22.9452 N.pl3     1 UNK         0.0000 
     20 C20         6.3108   54.9101   21.3759 C.ar      1 UNK         0.0000 
     21 C21         7.5724   55.5366   21.2472 C.ar      1 UNK         0.0000 
     22 C22         8.0013   56.0855   20.0329 C.ar      1 UNK         0.0000 
     23 C23         7.1179   56.0504   18.9647 C.ar      1 UNK         0.0000 
     24 C24         5.8894   55.4682   19.0711 C.ar      1 UNK         0.0000 
     25 C25         5.4581   54.8736   20.2515 C.ar      1 UNK         0.0000 
     26 O26         5.2420   55.5629   17.8780 O.3       1 UNK         0.0000 
     27 C27         6.0285   56.4159   17.0902 C.3       1 UNK         0.0000 
     28 O28         7.2866   56.5194   17.7016 O.3       1 UNK         0.0000 
     29 C29         1.7712   53.4974   27.4070 C.3       1 UNK         0.0000 
     30 H30         0.1649   54.6448   31.0997 H         1 UNK         0.0000 
     31 H31         0.6937   55.2475   29.5358 H         1 UNK         0.0000 
     32 H32         1.8069   55.2073   30.8806 H         1 UNK         0.0000 
     33 H33         2.2061   51.4430   30.9914 H         1 UNK         0.0000 
     34 H34         3.0244   52.8967   31.4785 H         1 UNK         0.0000 
     35 H35         1.4035   52.5508   32.0806 H         1 UNK         0.0000 
     36 H36         0.3647   51.4427   29.2234 H         1 UNK         0.0000 
     37 H37        -0.4963   52.2736   30.5063 H         1 UNK         0.0000 
     38 H38        -0.4818   52.9516   28.8928 H         1 UNK         0.0000 
     39 H39         3.2513   55.2660   28.9533 H         1 UNK         0.0000 
     40 H40         4.0467   54.1278   29.9680 H         1 UNK         0.0000 
     41 H41         5.4874   54.8383   28.0829 H         1 UNK         0.0000 
     42 H42         5.2969   53.1064   28.1818 H         1 UNK         0.0000 
     43 H43         7.6180   54.9673   23.7707 H         1 UNK         0.0000 
     44 H44         3.8989   53.9418   22.1786 H         1 UNK         0.0000 
     45 H45         8.2551   55.5861   22.0817 H         1 UNK         0.0000 
     46 H46         8.9846   56.5256   19.9423 H         1 UNK         0.0000 
     47 H47         4.4828   54.4132   20.2910 H         1 UNK         0.0000 
     48 H48         5.5627   57.4027   17.0535 H         1 UNK         0.0000 
     49 H49         6.1285   56.0197   16.0776 H         1 UNK         0.0000 
     50 H50         1.1225   52.6666   27.1303 H         1 UNK         0.0000 
     51 H51         1.1550   54.3924   27.4680 H         1 UNK         0.0000 
@<TRIPOS>BOND
     1    1    2 1    
     2    1   30 1    
     3    1   31 1    
     4    1   32 1    
     5    2    3 1    
     6    2    4 1    
     7    2    5 1    
     8    3   33 1    
     9    3   34 1    
    10    3   35 1    
    11    4   36 1    
    12    4   37 1    
    13    4   38 1    
    14    5    6 1    
    15    5   29 1    
    16    5    7 1    
    17    7    8 1    
    18    7   39 1    
    19    7   40 1    
    20    8    9 1    
    21    8   41 1    
    22    8   42 1    
    23    9   13 1    
    24    9   10 2    
    25   10   11 1    
    26   10   29 1    
    27   11   12 1    
    28   12   19 1    
    29   12   13 2    
    30   13   14 1    
    31   14   15 2    
    32   14   16 am   BACKBONE|DICT|INTERRES
    33   16   17 1    
    34   16   43 1    
    35   17   18 1    
    36   17   19 1    
    37   17   20 1    
    38   19   44 1    
    39   20   25 ar   
    40   20   21 ar   
    41   21   22 ar   
    42   21   45 1    
    43   22   23 ar   
    44   22   46 1    
    45   23   28 1    
    46   23   24 ar   
    47   24   25 ar   
    48   24   26 1    
    49   25   47 1    
    50   26   27 1    
    51   27   28 1    
    52   27   48 1    
    53   27   49 1    
    54   29   50 1    
    55   29   51 1    
@<TRIPOS>SUBSTRUCTURE
     1 UNK         1 GROUP             0       ****    0 ROOT    
