@<TRIPOS>MOLECULE
ZINC05010614_4814
38   41    1
SMALL
USER_CHARGES


@<TRIPOS>ATOM
      1 C1          7.1726   55.3155   20.2784 C.ar      1 UNK         0.0000 
      2 C2          5.9707   54.8996   19.7068 C.ar      1 UNK         0.0000 
      3 C3          4.8984   54.4817   20.4937 C.ar      1 UNK         0.0000 
      4 C4          5.0679   54.4941   21.8854 C.ar      1 UNK         0.0000 
      5 C5          6.2911   54.8958   22.4788 C.ar      1 UNK         0.0000 
      6 C6          7.3516   55.3221   21.6630 C.ar      1 UNK         0.0000 
      7 N7          6.3063   54.8574   23.8384 N.2       1 UNK         0.0000 
      8 C8          5.1641   54.4593   24.3480 C.2       1 UNK         0.0000 
      9 S9          3.9271   54.0879   23.1531 S.3       1 UNK         0.0000 
     10 C10         4.9110   54.3105   25.8008 C.2       1 UNK         0.0000 
     11 C11         3.7629   53.9719   26.4227 C.2       1 UNK         0.0000 
     12 N12         3.9120   53.8863   27.7944 N.pl3     1 UNK         0.0000 
     13 C13         5.2817   54.1982   28.1511 C.3       1 UNK         0.0000 
     14 C14         5.9404   54.4960   26.8172 C.2       1 UNK         0.0000 
     15 O15         7.1044   54.8340   26.6231 O.2       1 UNK         0.0000 
     16 C16         2.9243   53.5354   28.8235 C.3       1 UNK         0.0000 
     17 C17         1.7783   54.5386   29.0239 C.3       1 UNK         0.0000 
     18 C18         0.6883   53.6949   29.6937 C.3       1 UNK         0.0000 
     19 C19         0.8137   52.3128   29.0425 C.3       1 UNK         0.0000 
     20 C20         2.3057   52.1282   28.7188 C.3       1 UNK         0.0000 
     21 N21         2.5203   53.6954   25.9147 N.pl3     1 UNK         0.0000 
     22 H22         7.9821   55.6316   19.6356 H         1 UNK         0.0000 
     23 H23         5.8679   54.9044   18.6310 H         1 UNK         0.0000 
     24 H24         3.9624   54.1754   20.0469 H         1 UNK         0.0000 
     25 H25         8.2906   55.6469   22.0817 H         1 UNK         0.0000 
     26 H26         5.7790   53.3712   28.6580 H         1 UNK         0.0000 
     27 H27         5.3539   55.0566   28.8209 H         1 UNK         0.0000 
     28 H28         3.4869   53.5498   29.7585 H         1 UNK         0.0000 
     29 H29         2.0716   55.3881   29.6419 H         1 UNK         0.0000 
     30 H30         1.4135   54.9298   28.0733 H         1 UNK         0.0000 
     31 H31         0.8754   53.6209   30.7667 H         1 UNK         0.0000 
     32 H32        -0.3099   54.1147   29.5641 H         1 UNK         0.0000 
     33 H33         0.4264   51.5189   29.6820 H         1 UNK         0.0000 
     34 H34         0.2288   52.2874   28.1214 H         1 UNK         0.0000 
     35 H35         2.4041   51.6918   27.7241 H         1 UNK         0.0000 
     36 H36         2.7688   51.4494   29.4361 H         1 UNK         0.0000 
     37 H37         2.3546   53.7212   24.9187 H         1 UNK         0.0000 
     38 H38         1.7640   53.4062   26.5179 H         1 UNK         0.0000 
@<TRIPOS>BOND
     1    1    6 ar   
     2    1    2 ar   
     3    1   22 1    
     4    2    3 ar   
     5    2   23 1    
     6    3    4 ar   
     7    3   24 1    
     8    4    9 1    
     9    4    5 ar   
    10    5    6 ar   
    11    5    7 1    
    12    6   25 1    
    13    7    8 2    
    14    8    9 1    
    15    8   10 1    
    16   10   14 1    
    17   10   11 2    
    18   11   12 1    
    19   11   21 1    
    20   12   13 1    
    21   12   16 1    
    22   13   14 1    
    23   13   26 1    
    24   13   27 1    
    25   14   15 2    
    26   16   20 1    
    27   16   17 1    
    28   16   28 1    
    29   17   18 1    
    30   17   29 1    
    31   17   30 1    
    32   18   19 1    
    33   18   31 1    
    34   18   32 1    
    35   19   20 1    
    36   19   33 1    
    37   19   34 1    
    38   20   35 1    
    39   20   36 1    
    40   21   37 1    
    41   21   38 1    
@<TRIPOS>SUBSTRUCTURE
     1 UNK         1 GROUP             0       ****    0 ROOT    
