@<TRIPOS>MOLECULE
ZINC12789683_2750
44   47    1
SMALL
USER_CHARGES


@<TRIPOS>ATOM
      1 C1          1.3091   55.3948   30.3347 C.3       1 UNK         0.0000 
      2 C2          1.3467   53.9267   29.8588 C.3       1 UNK         0.0000 
      3 H3          1.8541   53.3185   30.6115 H         1 UNK         0.0000 
      4 C4         -0.0464   53.3243   29.6864 C.3       1 UNK         0.0000 
      5 C5          0.0468   52.6551   28.3427 C.ar      1 UNK         0.0000 
      6 C6         -0.9183   51.8857   27.6832 C.ar      1 UNK         0.0000 
      7 C7         -0.6729   51.4097   26.3913 C.ar      1 UNK         0.0000 
      8 C8          0.5412   51.6968   25.7696 C.ar      1 UNK         0.0000 
      9 C9          1.5044   52.4538   26.4318 C.ar      1 UNK         0.0000 
     10 C10         1.2752   52.9226   27.7267 C.ar      1 UNK         0.0000 
     11 N11         2.0342   53.7424   28.5791 N.pl3     1 UNK         0.0000 
     12 C12         3.4994   53.7458   28.7669 C.3       1 UNK         0.0000 
     13 C13         4.3515   54.1645   27.5761 C.2       1 UNK         0.0000 
     14 N14         3.9974   54.4245   26.3487 N.2       1 UNK         0.0000 
     15 C15         5.1563   54.4725   25.7179 C.2       1 UNK         0.0000 
     16 N16         6.2262   54.4304   26.4874 N.2       1 UNK         0.0000 
     17 O17         5.6952   54.1975   27.7553 O.3       1 UNK         0.0000 
     18 C18         5.2383   54.4967   24.2184 C.ar      1 UNK         0.0000 
     19 C19         4.1365   54.0967   23.4436 C.ar      1 UNK         0.0000 
     20 C20         4.2022   54.0957   22.0506 C.ar      1 UNK         0.0000 
     21 C21         5.3716   54.4970   21.4098 C.ar      1 UNK         0.0000 
     22 C22         6.4709   54.9066   22.1625 C.ar      1 UNK         0.0000 
     23 C23         6.4093   54.8959   23.5572 C.ar      1 UNK         0.0000 
     24 Br24        8.0439   55.5174   21.2817 Br        1 UNK         0.0000 
     25 S25        -1.9075   50.4649   25.5021 S.o2      1 UNK         0.0000 
     26 O26        -1.7631   50.8040   24.0824 O.2       1 UNK         0.0000 
     27 O27        -3.1889   50.6384   26.1931 O.2       1 UNK         0.0000 
     28 N28        -1.4217   48.8001   25.6817 N.pl3     1 UNK         0.0000 
     29 H29         0.7761   55.4857   31.2819 H         1 UNK         0.0000 
     30 H30         2.3044   55.8102   30.4813 H         1 UNK         0.0000 
     31 H31         0.8015   56.0330   29.6113 H         1 UNK         0.0000 
     32 H32        -0.8142   54.0968   29.6815 H         1 UNK         0.0000 
     33 H33        -0.2642   52.6209   30.4930 H         1 UNK         0.0000 
     34 H34        -1.8628   51.6665   28.1617 H         1 UNK         0.0000 
     35 H35         0.7405   51.3385   24.7695 H         1 UNK         0.0000 
     36 H36         2.4278   52.6350   25.9135 H         1 UNK         0.0000 
     37 H37         3.7770   54.3708   29.6154 H         1 UNK         0.0000 
     38 H38         3.7824   52.7294   29.0433 H         1 UNK         0.0000 
     39 H39         3.2181   53.7815   23.9165 H         1 UNK         0.0000 
     40 H40         3.3448   53.7912   21.4668 H         1 UNK         0.0000 
     41 H41         5.4190   54.5056   20.3303 H         1 UNK         0.0000 
     42 H42         7.2760   55.2141   24.1182 H         1 UNK         0.0000 
     43 H43        -0.4959   48.6084   25.2969 H         1 UNK         0.0000 
     44 H44        -1.4827   48.4966   26.6725 H         1 UNK         0.0000 
@<TRIPOS>BOND
     1    1    2 1    
     2    1   29 1    
     3    1   30 1    
     4    1   31 1    
     5    2    3 1    
     6    2   11 1    
     7    2    4 1    
     8    4    5 1    
     9    4   32 1    
    10    4   33 1    
    11    5   10 ar   
    12    5    6 ar   
    13    6    7 ar   
    14    6   34 1    
    15    7    8 ar   
    16    7   25 1    
    17    8    9 ar   
    18    8   35 1    
    19    9   10 ar   
    20    9   36 1    
    21   10   11 1    
    22   11   12 1    
    23   12   13 1    
    24   12   37 1    
    25   12   38 1    
    26   13   17 1    
    27   13   14 2    
    28   14   15 1    
    29   15   16 2    
    30   15   18 1    
    31   16   17 1    
    32   18   23 ar   
    33   18   19 ar   
    34   19   20 ar   
    35   19   39 1    
    36   20   21 ar   
    37   20   40 1    
    38   21   22 ar   
    39   21   41 1    
    40   22   23 ar   
    41   22   24 1    
    42   23   42 1    
    43   25   26 2    
    44   25   27 2    
    45   25   28 1    
    46   28   43 1    
    47   28   44 1    
@<TRIPOS>SUBSTRUCTURE
     1 UNK         1 GROUP             0       ****    0 ROOT    
