@<TRIPOS>MOLECULE
ZINC13640613_5295
69   73    1
SMALL
USER_CHARGES


@<TRIPOS>ATOM
      1 C1          0.1281   52.7624   31.0557 C.3       1 UNK         0.0000 
      2 O2          1.0725   53.4839   30.2713 O.3       1 UNK         0.0000 
      3 C3          1.2006   53.2011   28.9224 C.ar      1 UNK         0.0000 
      4 C4          0.4303   52.2404   28.2448 C.ar      1 UNK         0.0000 
      5 C5          0.6074   52.0045   26.8777 C.ar      1 UNK         0.0000 
      6 C6          1.5651   52.7519   26.1857 C.ar      1 UNK         0.0000 
      7 C7          2.3575   53.7093   26.8373 C.ar      1 UNK         0.0000 
      8 C8          2.1685   53.9235   28.2102 C.ar      1 UNK         0.0000 
      9 O9          2.9224   54.8724   28.8651 O.3       1 UNK         0.0000 
     10 C10         4.2207   54.4304   29.2426 C.3       1 UNK         0.0000 
     11 O11         3.3232   54.4720   26.2004 O.3       1 UNK         0.0000 
     12 C12         3.5335   54.3152   24.8010 C.3       1 UNK         0.0000 
     13 C13        -0.2285   50.9238   26.1696 C.3       1 UNK         0.0000 
     14 H14        -0.5331   50.2226   26.9502 H         1 UNK         0.0000 
     15 C15        -1.5092   51.4649   25.4861 C.3       1 UNK         0.0000 
     16 H16        -2.0466   50.5638   25.1647 H         1 UNK         0.0000 
     17 C17        -2.5537   52.2822   26.2331 C.3       1 UNK         0.0000 
     18 C18        -3.3016   52.8962   25.0559 C.2       1 UNK         0.0000 
     19 C19        -2.5622   52.8419   23.9277 C.2       1 UNK         0.0000 
     20 C20        -1.1859   52.3047   24.2595 C.3       1 UNK         0.0000 
     21 H21        -0.5396   53.1487   24.5023 H         1 UNK         0.0000 
     22 C22        -0.4049   51.4400   23.2764 C.ar      1 UNK         0.0000 
     23 C23        -0.4348   51.6581   21.8947 C.ar      1 UNK         0.0000 
     24 C24         0.3347   50.8799   21.0272 C.ar      1 UNK         0.0000 
     25 C25         1.1614   49.8798   21.5348 C.ar      1 UNK         0.0000 
     26 C26         1.2148   49.6614   22.9063 C.ar      1 UNK         0.0000 
     27 C27         0.4288   50.4148   23.7779 C.ar      1 UNK         0.0000 
     28 N28         0.5005   50.1241   25.1623 N.pl3     1 UNK         0.0000 
     29 S29         0.2981   51.1917   19.2727 S.o2      1 UNK         0.0000 
     30 O30         0.8078   49.9944   18.5969 O.2       1 UNK         0.0000 
     31 O31        -1.0340   51.7299   18.9709 O.2       1 UNK         0.0000 
     32 N32         1.4414   52.4973   19.0274 N.pl3     1 UNK         0.0000 
     33 C33         2.9037   52.3243   19.1992 C.3       1 UNK         0.0000 
     34 C34         3.5522   53.3293   18.2120 C.3       1 UNK         0.0000 
     35 C35         5.0581   53.5203   18.4627 C.3       1 UNK         0.0000 
     36 C36         5.3159   53.9609   19.9150 C.3       1 UNK         0.0000 
     37 C37         4.7180   52.9525   20.9147 C.3       1 UNK         0.0000 
     38 C38         3.2096   52.7573   20.6619 C.3       1 UNK         0.0000 
     39 H39         0.1716   53.1271   32.0814 H         1 UNK         0.0000 
     40 H40        -0.8945   52.8967   30.6967 H         1 UNK         0.0000 
     41 H41         0.3561   51.6969   31.0812 H         1 UNK         0.0000 
     42 H42        -0.3106   51.6584   28.7726 H         1 UNK         0.0000 
     43 H43         1.6988   52.5634   25.1324 H         1 UNK         0.0000 
     44 H44         4.7762   55.2595   29.6806 H         1 UNK         0.0000 
     45 H45         4.1663   53.6332   29.9861 H         1 UNK         0.0000 
     46 H46         4.7964   54.0666   28.3896 H         1 UNK         0.0000 
     47 H47         4.3414   54.9734   24.4826 H         1 UNK         0.0000 
     48 H48         2.6419   54.5789   24.2288 H         1 UNK         0.0000 
     49 H49         3.8315   53.2973   24.5508 H         1 UNK         0.0000 
     50 H50        -3.1859   51.6405   26.8511 H         1 UNK         0.0000 
     51 H51        -2.1059   53.0341   26.8811 H         1 UNK         0.0000 
     52 H52        -4.2988   53.3013   25.1509 H         1 UNK         0.0000 
     53 H53        -2.8350   53.2252   22.9557 H         1 UNK         0.0000 
     54 H54        -1.0525   52.4453   21.4931 H         1 UNK         0.0000 
     55 H55         1.7756   49.2860   20.8734 H         1 UNK         0.0000 
     56 H56         1.8745   48.8967   23.2831 H         1 UNK         0.0000 
     57 H57         1.0771   49.3776   25.5231 H         1 UNK         0.0000 
     58 H58         1.1045   53.4349   19.2709 H         1 UNK         0.0000 
     59 H59         3.2249   51.2868   19.0742 H         1 UNK         0.0000 
     60 H60         3.3762   53.0059   17.1849 H         1 UNK         0.0000 
     61 H61         3.0868   54.3108   18.3035 H         1 UNK         0.0000 
     62 H62         5.5909   52.5919   18.2562 H         1 UNK         0.0000 
     63 H63         5.4601   54.2615   17.7705 H         1 UNK         0.0000 
     64 H64         6.3804   54.0968   20.0819 H         1 UNK         0.0000 
     65 H65         4.8675   54.9416   20.0796 H         1 UNK         0.0000 
     66 H66         5.2311   51.9933   20.8220 H         1 UNK         0.0000 
     67 H67         4.8851   53.2931   21.9375 H         1 UNK         0.0000 
     68 H68         2.7064   53.6966   20.8950 H         1 UNK         0.0000 
     69 H69         2.8163   52.0314   21.3695 H         1 UNK         0.0000 
@<TRIPOS>BOND
     1    1    2 1    
     2    1   39 1    
     3    1   40 1    
     4    1   41 1    
     5    2    3 1    
     6    3    8 ar   
     7    3    4 ar   
     8    4    5 ar   
     9    4   42 1    
    10    5    6 ar   
    11    5   13 1    
    12    6    7 ar   
    13    6   43 1    
    14    7    8 ar   
    15    7   11 1    
    16    8    9 1    
    17    9   10 1    
    18   10   44 1    
    19   10   45 1    
    20   10   46 1    
    21   11   12 1    
    22   12   47 1    
    23   12   48 1    
    24   12   49 1    
    25   13   14 1    
    26   13   28 1    
    27   13   15 1    
    28   15   16 1    
    29   15   20 1    
    30   15   17 1    
    31   17   18 1    
    32   17   50 1    
    33   17   51 1    
    34   18   19 2    
    35   18   52 1    
    36   19   20 1    
    37   19   53 1    
    38   20   21 1    
    39   20   22 1    
    40   22   27 ar   
    41   22   23 ar   
    42   23   24 ar   
    43   23   54 1    
    44   24   25 ar   
    45   24   29 1    
    46   25   26 ar   
    47   25   55 1    
    48   26   27 ar   
    49   26   56 1    
    50   27   28 1    
    51   28   57 1    
    52   29   30 2    
    53   29   31 2    
    54   29   32 1    
    55   32   33 1    
    56   32   58 1    
    57   33   38 1    
    58   33   34 1    
    59   33   59 1    
    60   34   35 1    
    61   34   60 1    
    62   34   61 1    
    63   35   36 1    
    64   35   62 1    
    65   35   63 1    
    66   36   37 1    
    67   36   64 1    
    68   36   65 1    
    69   37   38 1    
    70   37   66 1    
    71   37   67 1    
    72   38   68 1    
    73   38   69 1    
@<TRIPOS>SUBSTRUCTURE
     1 UNK         1 GROUP             0       ****    0 ROOT    
