@<TRIPOS>MOLECULE
ZINC13348958_5941
45   47    1
SMALL
USER_CHARGES


@<TRIPOS>ATOM
      1 C1          1.6687   56.3743   30.2723 C.2       1 UNK         0.0000 
      2 C2          1.3218   56.0971   29.0087 C.2       1 UNK         0.0000 
      3 C3          1.6664   54.8626   28.1949 C.3       1 UNK         0.0000 
      4 N4          2.2508   53.7447   28.9348 N.pl3     1 UNK         0.0000 
      5 C5          3.5355   53.2480   28.8460 C.ar      1 UNK         0.0000 
      6 N6          3.7331   52.3144   29.7427 N.2       1 UNK         0.0000 
      7 N7          2.5125   52.0973   30.3745 N.2       1 UNK         0.0000 
      8 C8          1.6338   52.9028   29.8347 C.ar      1 UNK         0.0000 
      9 S9         -0.0954   52.8558   30.1806 S.3       1 UNK         0.0000 
     10 C10        -0.5498   51.4167   29.1290 C.3       1 UNK         0.0000 
     11 C11        -1.0011   51.7485   27.6994 C.2       1 UNK         0.0000 
     12 O12        -0.8898   52.8955   27.2815 O.2       1 UNK         0.0000 
     13 N13        -1.4993   50.7485   26.9450 N.am      1 UNK         0.0000 
     14 C14        -1.7514   50.8500   25.5559 C.ar      1 UNK         0.0000 
     15 C15        -0.9961   50.0834   24.6258 C.ar      1 UNK         0.0000 
     16 C16        -1.2582   50.2433   23.2554 C.ar      1 UNK         0.0000 
     17 C17        -2.2397   51.1117   22.7988 C.ar      1 UNK         0.0000 
     18 C18        -3.0118   51.8181   23.7107 C.ar      1 UNK         0.0000 
     19 C19        -2.7921   51.6818   25.0793 C.ar      1 UNK         0.0000 
     20 Cl20       -3.8569   52.5475   26.1364 Cl        1 UNK         0.0000 
     21 Cl21       -2.4952   51.2977   21.1013 Cl        1 UNK         0.0000 
     22 C22         0.0785   49.1058   25.0180 C.2       1 UNK         0.0000 
     23 O23         0.2966   48.1547   24.2300 O.co2     1 UNK         0.0000 
     24 C24         4.5394   53.6906   27.8443 C.ar      1 UNK         0.0000 
     25 C25         4.1742   53.7036   26.4931 C.ar      1 UNK         0.0000 
     26 C26         5.0466   54.2125   25.5423 C.ar      1 UNK         0.0000 
     27 C27         6.2967   54.6661   25.9387 C.ar      1 UNK         0.0000 
     28 C28         6.7017   54.5773   27.2697 C.ar      1 UNK         0.0000 
     29 C29         5.8169   54.0949   28.2281 C.ar      1 UNK         0.0000 
     30 F30         7.1103   55.2182   25.0187 F         1 UNK         0.0000 
     31 H31         1.3534   57.2919   30.7506 H         1 UNK         0.0000 
     32 H32         2.2806   55.6971   30.8455 H         1 UNK         0.0000 
     33 H33         0.7124   56.8202   28.4844 H         1 UNK         0.0000 
     34 H34         2.3551   55.1989   27.4267 H         1 UNK         0.0000 
     35 H35         0.7811   54.5071   27.6816 H         1 UNK         0.0000 
     36 H36         0.2896   50.7287   29.0725 H         1 UNK         0.0000 
     37 H37        -1.3684   50.8974   29.6302 H         1 UNK         0.0000 
     38 H38        -1.4815   49.8116   27.3512 H         1 UNK         0.0000 
     39 H39        -0.6855   49.6885   22.5231 H         1 UNK         0.0000 
     40 H40        -3.7948   52.4699   23.3547 H         1 UNK         0.0000 
     41 H41         3.2012   53.3500   26.1839 H         1 UNK         0.0000 
     42 H42         4.7535   54.2688   24.5041 H         1 UNK         0.0000 
     43 H43         7.6790   54.9142   27.5778 H         1 UNK         0.0000 
     44 H44         6.1147   54.0776   29.2658 H         1 UNK         0.0000 
     45 O45         0.7043   49.3043   26.0822 O.co2     1 UNK         0.0000 
@<TRIPOS>BOND
     1    1    2 2    
     2    1   31 1    
     3    1   32 1    
     4    2    3 1    
     5    2   33 1    
     6    3    4 1    
     7    3   34 1    
     8    3   35 1    
     9    4    8 ar   
    10    4    5 ar   
    11    5    6 ar   
    12    5   24 1    
    13    6    7 ar   
    14    7    8 ar   
    15    8    9 1    
    16    9   10 1    
    17   10   11 1    
    18   10   36 1    
    19   10   37 1    
    20   11   12 2    
    21   11   13 am   BACKBONE|DICT|INTERRES
    22   13   14 1    
    23   13   38 1    
    24   14   19 ar   
    25   14   15 ar   
    26   15   16 ar   
    27   15   22 1    
    28   16   17 ar   
    29   16   39 1    
    30   17   18 ar   
    31   17   21 1    
    32   18   19 ar   
    33   18   40 1    
    34   19   20 1    
    35   22   23 2    
    36   22   45 1    
    37   24   29 ar   
    38   24   25 ar   
    39   25   26 ar   
    40   25   41 1    
    41   26   27 ar   
    42   26   42 1    
    43   27   28 ar   
    44   27   30 1    
    45   28   29 ar   
    46   28   43 1    
    47   29   44 1    
@<TRIPOS>SUBSTRUCTURE
     1 UNK         1 GROUP             0       ****    0 ROOT    
