@<TRIPOS>MOLECULE
ZINC25581091_2364
54   56    1
SMALL
USER_CHARGES


@<TRIPOS>ATOM
      1 C1          1.6962   51.5231   28.6496 C.3       1 UNK         0.0000 
      2 C2          0.5564   52.3094   27.9728 C.3       1 UNK         0.0000 
      3 C3          0.3034   53.6523   28.6798 C.3       1 UNK         0.0000 
      4 C4          0.7950   52.4970   26.4743 C.ar      1 UNK         0.0000 
      5 C5          1.9803   53.0783   26.0182 C.ar      1 UNK         0.0000 
      6 C6          2.2365   53.1725   24.6549 C.ar      1 UNK         0.0000 
      7 C7          1.3116   52.6840   23.7224 C.ar      1 UNK         0.0000 
      8 C8          0.0732   52.2200   24.1851 C.ar      1 UNK         0.0000 
      9 C9         -0.1730   52.0968   25.5504 C.ar      1 UNK         0.0000 
     10 C10         1.6496   52.6539   22.2138 C.3       1 UNK         0.0000 
     11 H11         1.1145   53.5252   21.8341 H         1 UNK         0.0000 
     12 C12         1.1514   51.3855   21.4131 C.3       1 UNK         0.0000 
     13 H13         0.0707   51.4792   21.3258 H         1 UNK         0.0000 
     14 C14         1.7299   51.3705   19.9488 C.3       1 UNK         0.0000 
     15 N15         3.1915   51.5324   20.0585 N.am      1 UNK         0.0000 
     16 C16         3.8291   52.3550   20.9177 C.2       1 UNK         0.0000 
     17 O17         5.0410   52.5342   20.8823 O.2       1 UNK         0.0000 
     18 N18         3.0680   52.9218   21.8779 N.am      1 UNK         0.0000 
     19 C19         1.3296   50.1362   19.0672 C.3       1 UNK         0.0000 
     20 F20         1.8283   48.9858   19.5236 F         1 UNK         0.0000 
     21 F21         0.0067   49.9849   18.9817 F         1 UNK         0.0000 
     22 F22         1.7770   50.2655   17.8174 F         1 UNK         0.0000 
     23 O23         1.1822   52.4967   19.2760 O.3       1 UNK         0.0000 
     24 C24         1.4085   50.0614   22.1982 C.2       1 UNK         0.0000 
     25 O25         2.5643   49.7491   22.4817 O.2       1 UNK         0.0000 
     26 C26         0.2217   49.3430   22.7636 C.ar      1 UNK         0.0000 
     27 C27         0.3044   48.7847   24.0446 C.ar      1 UNK         0.0000 
     28 C28        -0.7705   48.0819   24.5786 C.ar      1 UNK         0.0000 
     29 C29        -1.9369   47.8996   23.8405 C.ar      1 UNK         0.0000 
     30 C30        -2.0247   48.4584   22.5570 C.ar      1 UNK         0.0000 
     31 C31        -0.9553   49.1748   22.0252 C.ar      1 UNK         0.0000 
     32 O32        -2.9377   47.1590   24.4398 O.3       1 UNK         0.0000 
     33 C33        -4.1868   47.0132   23.7736 C.3       1 UNK         0.0000 
     34 H34         1.8841   50.5775   28.1393 H         1 UNK         0.0000 
     35 H35         1.4443   51.2971   29.6845 H         1 UNK         0.0000 
     36 H36         2.6317   52.0829   28.6582 H         1 UNK         0.0000 
     37 H37        -0.3446   51.7036   28.0920 H         1 UNK         0.0000 
     38 H38        -0.4955   54.2030   28.1876 H         1 UNK         0.0000 
     39 H39         0.0092   53.5034   29.7196 H         1 UNK         0.0000 
     40 H40         1.1912   54.2856   28.6729 H         1 UNK         0.0000 
     41 H41         2.7269   53.4215   26.7191 H         1 UNK         0.0000 
     42 H42         3.1869   53.5787   24.3443 H         1 UNK         0.0000 
     43 H43        -0.6837   51.8860   23.4915 H         1 UNK         0.0000 
     44 H44        -1.1081   51.6708   25.8849 H         1 UNK         0.0000 
     45 H45         3.7506   51.2238   19.2700 H         1 UNK         0.0000 
     46 H46         3.5147   53.6851   22.3608 H         1 UNK         0.0000 
     47 H47         1.5045   53.3124   19.6813 H         1 UNK         0.0000 
     48 H48         1.1965   48.8971   24.6453 H         1 UNK         0.0000 
     49 H49        -0.6972   47.6781   25.5791 H         1 UNK         0.0000 
     50 H50        -2.9117   48.3407   21.9545 H         1 UNK         0.0000 
     51 H51        -1.0607   49.5802   21.0322 H         1 UNK         0.0000 
     52 H52        -4.8638   46.4351   24.4022 H         1 UNK         0.0000 
     53 H53        -4.6567   47.9803   23.5873 H         1 UNK         0.0000 
     54 H54        -4.0771   46.4800   22.8282 H         1 UNK         0.0000 
@<TRIPOS>BOND
     1    1    2 1    
     2    1   34 1    
     3    1   35 1    
     4    1   36 1    
     5    2    3 1    
     6    2    4 1    
     7    2   37 1    
     8    3   38 1    
     9    3   39 1    
    10    3   40 1    
    11    4    9 ar   
    12    4    5 ar   
    13    5    6 ar   
    14    5   41 1    
    15    6    7 ar   
    16    6   42 1    
    17    7    8 ar   
    18    7   10 1    
    19    8    9 ar   
    20    8   43 1    
    21    9   44 1    
    22   10   11 1    
    23   10   18 1    
    24   10   12 1    
    25   12   13 1    
    26   12   14 1    
    27   12   24 1    
    28   14   15 1    
    29   14   19 1    
    30   14   23 1    
    31   15   16 am   BACKBONE|DICT|INTERRES
    32   15   45 1    
    33   16   17 2    
    34   16   18 am   BACKBONE|DICT|INTERRES
    35   18   46 1    
    36   19   20 1    
    37   19   21 1    
    38   19   22 1    
    39   23   47 1    
    40   24   25 2    
    41   24   26 1    
    42   26   31 ar   
    43   26   27 ar   
    44   27   28 ar   
    45   27   48 1    
    46   28   29 ar   
    47   28   49 1    
    48   29   30 ar   
    49   29   32 1    
    50   30   31 ar   
    51   30   50 1    
    52   31   51 1    
    53   32   33 1    
    54   33   52 1    
    55   33   53 1    
    56   33   54 1    
@<TRIPOS>SUBSTRUCTURE
     1 UNK         1 GROUP             0       ****    0 ROOT    
