@<TRIPOS>MOLECULE
ZINC37756535_6149
29   31    1
SMALL
USER_CHARGES


@<TRIPOS>ATOM
      1 C1          5.0256   54.0455   22.2485 C.2       1 UNK         0.0000 
      2 C2          3.6622   53.8425   22.1052 C.2       1 UNK         0.0000 
      3 S3          2.8449   53.8526   23.6344 S.3       1 UNK         0.0000 
      4 C4          4.3454   54.0967   24.4956 C.2       1 UNK         0.0000 
      5 C5          5.4060   54.1748   23.5859 C.2       1 UNK         0.0000 
      6 N6          6.7050   54.3725   23.9500 N.pl3     1 UNK         0.0000 
      7 C7          4.3531   54.1852   25.9565 C.2       1 UNK         0.0000 
      8 N8          3.3329   54.0837   26.7686 N.2       1 UNK         0.0000 
      9 C9          3.9039   54.2069   27.9532 C.2       1 UNK         0.0000 
     10 N10         5.2064   54.4028   27.9555 N.2       1 UNK         0.0000 
     11 O11         5.5305   54.3933   26.6002 O.3       1 UNK         0.0000 
     12 C12         3.1121   54.0945   29.2537 C.3       1 UNK         0.0000 
     13 C13         1.9655   55.1138   29.4271 C.3       1 UNK         0.0000 
     14 C14         0.8332   54.3892   30.1849 C.3       1 UNK         0.0000 
     15 C15         1.3358   52.9669   30.4764 C.3       1 UNK         0.0000 
     16 C16         2.4615   52.7203   29.4692 C.3       1 UNK         0.0000 
     17 H17         5.7125   54.0966   21.4184 H         1 UNK         0.0000 
     18 H18         3.1098   53.6978   21.1881 H         1 UNK         0.0000 
     19 H19         6.9581   54.4238   24.9261 H         1 UNK         0.0000 
     20 H20         7.4535   54.4851   23.2785 H         1 UNK         0.0000 
     21 H21         3.8110   54.2412   30.0815 H         1 UNK         0.0000 
     22 H22         2.3041   56.0202   29.9417 H         1 UNK         0.0000 
     23 H23         1.5859   55.4448   28.4557 H         1 UNK         0.0000 
     24 H24         0.5714   54.9108   31.1100 H         1 UNK         0.0000 
     25 H25        -0.0704   54.3507   29.5711 H         1 UNK         0.0000 
     26 H26         1.7240   52.8987   31.4970 H         1 UNK         0.0000 
     27 H27         0.5383   52.2252   30.3898 H         1 UNK         0.0000 
     28 H28         2.0413   52.3410   28.5309 H         1 UNK         0.0000 
     29 H29         3.1826   51.9751   29.8171 H         1 UNK         0.0000 
@<TRIPOS>BOND
     1    1    5 1    
     2    1    2 2    
     3    1   17 1    
     4    2    3 1    
     5    2   18 1    
     6    3    4 1    
     7    4    5 2    
     8    4    7 1    
     9    5    6 1    
    10    6   19 1    
    11    6   20 1    
    12    7   11 1    
    13    7    8 2    
    14    8    9 1    
    15    9   10 2    
    16    9   12 1    
    17   10   11 1    
    18   12   16 1    
    19   12   13 1    
    20   12   21 1    
    21   13   14 1    
    22   13   22 1    
    23   13   23 1    
    24   14   15 1    
    25   14   24 1    
    26   14   25 1    
    27   15   16 1    
    28   15   26 1    
    29   15   27 1    
    30   16   28 1    
    31   16   29 1    
@<TRIPOS>SUBSTRUCTURE
     1 UNK         1 GROUP             0       ****    0 ROOT    
