@<TRIPOS>MOLECULE
ZINC08618075_4364
47   50    1
SMALL
USER_CHARGES


@<TRIPOS>ATOM
      1 C1          4.6522   54.5601   24.1588 C.3       1 UNK         0.0000 
      2 O2          3.3406   54.1898   24.5572 O.3       1 UNK         0.0000 
      3 C3          3.1036   53.6969   25.7917 C.2       1 UNK         0.0000 
      4 O4          3.9704   53.7010   26.6713 O.2       1 UNK         0.0000 
      5 C5          1.7156   53.1407   25.9818 C.2       1 UNK         0.0000 
      6 C6          1.2588   52.7027   27.2029 C.2       1 UNK         0.0000 
      7 N7         -0.0437   52.1992   27.4196 N.am      1 UNK         0.0000 
      8 C8         -0.5590   51.7471   28.6119 C.2       1 UNK         0.0000 
      9 O9          0.0574   51.6969   29.6808 O.2       1 UNK         0.0000 
     10 C10        -1.9441   51.3460   28.4762 C.2       1 UNK         0.0000 
     11 C11        -2.6405   50.8967   29.5509 C.2       1 UNK         0.0000 
     12 C12        -4.0428   50.4257   29.6439 C.ar      1 UNK         0.0000 
     13 C13        -4.6718   50.4967   30.8916 C.ar      1 UNK         0.0000 
     14 C14        -5.9809   50.0551   31.0547 C.ar      1 UNK         0.0000 
     15 C15        -6.6686   49.5293   29.9636 C.ar      1 UNK         0.0000 
     16 C16        -6.0505   49.4336   28.7194 C.ar      1 UNK         0.0000 
     17 C17        -4.7381   49.8701   28.5618 C.ar      1 UNK         0.0000 
     18 Cl18       -8.2928   48.9842   30.1571 Cl        1 UNK         0.0000 
     19 S19        -2.4808   51.5905   26.8250 S.3       1 UNK         0.0000 
     20 C20        -0.8940   52.1854   26.3473 C.2       1 UNK         0.0000 
     21 C21        -0.5907   52.5777   25.0911 C.2       1 UNK         0.0000 
     22 C22         0.8070   53.0786   24.7140 C.3       1 UNK         0.0000 
     23 H23         0.6827   54.0988   24.3496 H         1 UNK         0.0000 
     24 C24         1.3795   52.3006   23.5205 C.ar      1 UNK         0.0000 
     25 C25         1.7527   52.9834   22.3585 C.ar      1 UNK         0.0000 
     26 C26         2.2821   52.2915   21.2772 C.ar      1 UNK         0.0000 
     27 C27         2.4272   50.9096   21.3484 C.ar      1 UNK         0.0000 
     28 C28         2.0314   50.2121   22.4904 C.ar      1 UNK         0.0000 
     29 C29         1.5043   50.9078   23.5758 C.ar      1 UNK         0.0000 
     30 Cl30        3.1028   50.0696   20.0077 Cl        1 UNK         0.0000 
     31 C31        -1.5615   52.5227   24.0440 C.1       1 UNK         0.0000 
     32 N32        -2.3340   52.4982   23.1814 N.1       1 UNK         0.0000 
     33 N33         2.0695   52.7486   28.3247 N.pl3     1 UNK         0.0000 
     34 H34         4.6380   54.8958   23.1215 H         1 UNK         0.0000 
     35 H35         5.0447   55.3649   24.7816 H         1 UNK         0.0000 
     36 H36         5.3349   53.7126   24.2260 H         1 UNK         0.0000 
     37 H37        -2.1148   50.8316   30.4991 H         1 UNK         0.0000 
     38 H38        -4.1421   50.8953   31.7474 H         1 UNK         0.0000 
     39 H39        -6.4534   50.1131   32.0235 H         1 UNK         0.0000 
     40 H40        -6.5805   49.0075   27.8801 H         1 UNK         0.0000 
     41 H41        -4.2660   49.7409   27.6019 H         1 UNK         0.0000 
     42 H42         1.6562   54.0578   22.2900 H         1 UNK         0.0000 
     43 H43         2.5798   52.8284   20.3863 H         1 UNK         0.0000 
     44 H44         2.1480   49.1384   22.5394 H         1 UNK         0.0000 
     45 H45         1.2085   50.3641   24.4620 H         1 UNK         0.0000 
     46 H46         3.0296   53.0654   28.2469 H         1 UNK         0.0000 
     47 H47         1.7256   52.4182   29.2216 H         1 UNK         0.0000 
@<TRIPOS>BOND
     1    1    2 1    
     2    1   34 1    
     3    1   35 1    
     4    1   36 1    
     5    2    3 1    
     6    3    4 2    
     7    3    5 1    
     8    5   22 1    
     9    5    6 2    
    10    6    7 1    
    11    6   33 1    
    12    7   20 am   BACKBONE|DICT|INTERRES
    13    7    8 am   BACKBONE|DICT|INTERRES
    14    8    9 2    
    15    8   10 1    
    16   10   11 2    
    17   10   19 1    
    18   11   12 1    
    19   11   37 1    
    20   12   17 ar   
    21   12   13 ar   
    22   13   14 ar   
    23   13   38 1    
    24   14   15 ar   
    25   14   39 1    
    26   15   16 ar   
    27   15   18 1    
    28   16   17 ar   
    29   16   40 1    
    30   17   41 1    
    31   19   20 1    
    32   20   21 2    
    33   21   22 1    
    34   21   31 1    
    35   22   23 1    
    36   22   24 1    
    37   24   29 ar   
    38   24   25 ar   
    39   25   26 ar   
    40   25   42 1    
    41   26   27 ar   
    42   26   43 1    
    43   27   28 ar   
    44   27   30 1    
    45   28   29 ar   
    46   28   44 1    
    47   29   45 1    
    48   31   32 3    
    49   33   46 1    
    50   33   47 1    
@<TRIPOS>SUBSTRUCTURE
     1 UNK         1 GROUP             0       ****    0 ROOT    
