@<TRIPOS>MOLECULE
ZINC43260507_3183
63   66    1
SMALL
USER_CHARGES


@<TRIPOS>ATOM
      1 C1         10.0716   54.0756   16.9854 C.ar      1 UNK         0.0000 
      2 C2          9.3267   54.5037   18.0821 C.ar      1 UNK         0.0000 
      3 C3          7.9271   54.4348   18.0692 C.ar      1 UNK         0.0000 
      4 C4          7.2894   53.9860   16.9012 C.ar      1 UNK         0.0000 
      5 C5          8.0289   53.5416   15.7971 C.ar      1 UNK         0.0000 
      6 C6          9.4259   53.5871   15.8515 C.ar      1 UNK         0.0000 
      7 C7          7.3379   53.0037   14.5446 C.3       1 UNK         0.0000 
      8 F8          7.8389   51.8084   14.2254 F         1 UNK         0.0000 
      9 F9          6.0196   52.8699   14.7093 F         1 UNK         0.0000 
     10 F10         7.5484   53.8434   13.5291 F         1 UNK         0.0000 
     11 C11         7.1410   54.8979   19.2783 C.2       1 UNK         0.0000 
     12 O12         7.5154   55.9265   19.8538 O.2       1 UNK         0.0000 
     13 N13         6.0477   54.1912   19.7011 N.am      1 UNK         0.0000 
     14 C14         5.7354   52.7988   19.2788 C.3       1 UNK         0.0000 
     15 C15         4.2399   52.7057   18.8761 C.3       1 UNK         0.0000 
     16 N16         3.4564   53.1007   20.0443 N.am      1 UNK         0.0000 
     17 C17         3.7307   54.4967   20.4464 C.3       1 UNK         0.0000 
     18 C18         5.2106   54.7515   20.7991 C.3       1 UNK         0.0000 
     19 H19         5.3565   55.8280   20.8947 H         1 UNK         0.0000 
     20 C20         5.5433   54.1993   22.2077 C.2       1 UNK         0.0000 
     21 O21         4.8769   53.2966   22.7045 O.2       1 UNK         0.0000 
     22 N22         6.5383   54.7761   22.8951 N.am      1 UNK         0.0000 
     23 C23         6.8672   54.3734   24.2645 C.3       1 UNK         0.0000 
     24 C24         6.0635   55.0634   25.3791 C.3       1 UNK         0.0000 
     25 H25         6.0031   56.1440   25.2376 H         1 UNK         0.0000 
     26 C26         4.7919   54.3555   25.8559 C.3       1 UNK         0.0000 
     27 C27         4.7796   54.5136   27.3621 C.3       1 UNK         0.0000 
     28 C28         6.2148   54.8967   27.7134 C.3       1 UNK         0.0000 
     29 O29         6.9289   54.8393   26.4921 O.3       1 UNK         0.0000 
     30 C30         2.7960   52.1797   20.8067 C.2       1 UNK         0.0000 
     31 O31         2.8842   50.9649   20.6120 O.2       1 UNK         0.0000 
     32 N32         2.0451   52.7239   21.7911 N.am      1 UNK         0.0000 
     33 C33         1.4628   52.1138   22.9128 C.ar      1 UNK         0.0000 
     34 C34         1.1010   50.7588   22.9779 C.ar      1 UNK         0.0000 
     35 C35         0.5203   50.2540   24.1394 C.ar      1 UNK         0.0000 
     36 C36         0.3040   51.0945   25.2286 C.ar      1 UNK         0.0000 
     37 C37         0.6660   52.4382   25.1703 C.ar      1 UNK         0.0000 
     38 C38         1.2360   52.9505   24.0092 C.ar      1 UNK         0.0000 
     39 F39        -0.2478   50.6009   26.3587 F         1 UNK         0.0000 
     40 H40        11.1502   54.1175   17.0199 H         1 UNK         0.0000 
     41 H41         9.8516   54.8735   18.9531 H         1 UNK         0.0000 
     42 H42         6.2093   53.9714   16.8539 H         1 UNK         0.0000 
     43 H43        10.0147   53.2484   15.0107 H         1 UNK         0.0000 
     44 H44         5.8954   52.1369   20.1306 H         1 UNK         0.0000 
     45 H45         6.3766   52.4041   18.4949 H         1 UNK         0.0000 
     46 H46         3.9053   51.7334   18.5021 H         1 UNK         0.0000 
     47 H47         4.0415   53.4056   18.0651 H         1 UNK         0.0000 
     48 H48         3.1045   54.8594   21.2615 H         1 UNK         0.0000 
     49 H49         3.5056   55.1378   19.5944 H         1 UNK         0.0000 
     50 H50         7.1360   55.4546   22.4436 H         1 UNK         0.0000 
     51 H51         7.9043   54.5730   24.4393 H         1 UNK         0.0000 
     52 H52         6.7863   53.2963   24.3660 H         1 UNK         0.0000 
     53 H53         4.8272   53.2970   25.5976 H         1 UNK         0.0000 
     54 H54         3.9013   54.7465   25.3630 H         1 UNK         0.0000 
     55 H55         4.4788   53.5875   27.8543 H         1 UNK         0.0000 
     56 H56         4.0856   55.2952   27.6727 H         1 UNK         0.0000 
     57 H57         6.6646   54.2324   28.4523 H         1 UNK         0.0000 
     58 H58         6.3020   55.9147   28.0816 H         1 UNK         0.0000 
     59 H59         2.0507   53.7316   21.8163 H         1 UNK         0.0000 
     60 H60         1.2524   50.0916   22.1434 H         1 UNK         0.0000 
     61 H61         0.2415   49.2125   24.2023 H         1 UNK         0.0000 
     62 H62         0.5093   53.0698   26.0300 H         1 UNK         0.0000 
     63 H63         1.5155   53.9937   23.9768 H         1 UNK         0.0000 
@<TRIPOS>BOND
     1    1    6 ar   
     2    1    2 ar   
     3    1   40 1    
     4    2    3 ar   
     5    2   41 1    
     6    3    4 ar   
     7    3   11 1    
     8    4    5 ar   
     9    4   42 1    
    10    5    6 ar   
    11    5    7 1    
    12    6   43 1    
    13    7    8 1    
    14    7    9 1    
    15    7   10 1    
    16   11   12 2    
    17   11   13 am   BACKBONE|DICT|INTERRES
    18   13   18 1    
    19   13   14 1    
    20   14   15 1    
    21   14   44 1    
    22   14   45 1    
    23   15   16 1    
    24   15   46 1    
    25   15   47 1    
    26   16   17 1    
    27   16   30 am   BACKBONE|DICT|INTERRES
    28   17   18 1    
    29   17   48 1    
    30   17   49 1    
    31   18   19 1    
    32   18   20 1    
    33   20   21 2    
    34   20   22 am   BACKBONE|DICT|INTERRES
    35   22   23 1    
    36   22   50 1    
    37   23   24 1    
    38   23   51 1    
    39   23   52 1    
    40   24   25 1    
    41   24   29 1    
    42   24   26 1    
    43   26   27 1    
    44   26   53 1    
    45   26   54 1    
    46   27   28 1    
    47   27   55 1    
    48   27   56 1    
    49   28   29 1    
    50   28   57 1    
    51   28   58 1    
    52   30   31 2    
    53   30   32 am   BACKBONE|DICT|INTERRES
    54   32   33 1    
    55   32   59 1    
    56   33   38 ar   
    57   33   34 ar   
    58   34   35 ar   
    59   34   60 1    
    60   35   36 ar   
    61   35   61 1    
    62   36   37 ar   
    63   36   39 1    
    64   37   38 ar   
    65   37   62 1    
    66   38   63 1    
@<TRIPOS>SUBSTRUCTURE
     1 UNK         1 GROUP             0       ****    0 ROOT    
