@<TRIPOS>MOLECULE
ZINC39836471_5310
66   69    1
SMALL
USER_CHARGES


@<TRIPOS>ATOM
      1 C1          0.8890   53.7434   29.6772 C.3       1 UNK         0.0000 
      2 C2          2.2540   53.6579   28.9476 C.3       1 UNK         0.0000 
      3 C3          3.0975   54.8741   29.4016 C.3       1 UNK         0.0000 
      4 C4          2.9760   52.3711   29.4311 C.3       1 UNK         0.0000 
      5 C5          2.0457   53.6887   27.3838 C.3       1 UNK         0.0000 
      6 H6          1.4101   54.5504   27.1876 H         1 UNK         0.0000 
      7 C7          1.3115   52.4396   26.8358 C.3       1 UNK         0.0000 
      8 C8          0.9110   52.5545   25.3493 C.3       1 UNK         0.0000 
      9 C9          2.0957   53.0452   24.5043 C.2       1 UNK         0.0000 
     10 C10         3.1751   53.6968   25.1118 C.2       1 UNK         0.0000 
     11 S11         4.3958   54.1351   23.9808 S.3       1 UNK         0.0000 
     12 C12         3.5010   53.4436   22.6526 C.2       1 UNK         0.0000 
     13 C13         2.2892   52.8676   23.1007 C.2       1 UNK         0.0000 
     14 C14         1.4131   52.0619   22.2704 C.2       1 UNK         0.0000 
     15 O15         0.9006   51.0265   22.6952 O.2       1 UNK         0.0000 
     16 N16         1.2422   52.4966   21.0073 N.am      1 UNK         0.0000 
     17 C17         0.5137   51.7591   19.9767 C.3       1 UNK         0.0000 
     18 H18         0.9707   50.7870   19.7698 H         1 UNK         0.0000 
     19 C19         0.5517   52.5600   18.6560 C.3       1 UNK         0.0000 
     20 C20        -0.4542   51.9532   17.6695 C.3       1 UNK         0.0000 
     21 S21        -1.9074   51.4500   18.7360 S.o2      1 UNK         0.0000 
     22 O22        -2.2597   50.0584   18.4431 O.2       1 UNK         0.0000 
     23 O23        -2.9319   52.4978   18.7416 O.2       1 UNK         0.0000 
     24 C24        -0.9704   51.5555   20.3469 C.3       1 UNK         0.0000 
     25 N25         4.0364   53.3738   21.3598 N.am      1 UNK         0.0000 
     26 C26         5.1043   54.0326   20.8600 C.2       1 UNK         0.0000 
     27 O27         5.7445   54.8967   21.4625 O.2       1 UNK         0.0000 
     28 C28         5.4719   53.5921   19.5327 C.2       1 UNK         0.0000 
     29 C29         6.5462   54.0974   18.8833 C.2       1 UNK         0.0000 
     30 C30         7.0402   53.7093   17.5454 C.ar      1 UNK         0.0000 
     31 C31         6.2983   52.8970   16.6779 C.ar      1 UNK         0.0000 
     32 C32         6.8164   52.5327   15.4378 C.ar      1 UNK         0.0000 
     33 C33         8.0780   52.9824   15.0566 C.ar      1 UNK         0.0000 
     34 C34         8.8271   53.7906   15.9086 C.ar      1 UNK         0.0000 
     35 C35         8.3085   54.1517   17.1505 C.ar      1 UNK         0.0000 
     36 C36         3.3775   53.8974   26.6052 C.3       1 UNK         0.0000 
     37 H37         0.2808   52.8524   29.5257 H         1 UNK         0.0000 
     38 H38         1.0114   53.8518   30.7565 H         1 UNK         0.0000 
     39 H39         0.3059   54.5975   29.3352 H         1 UNK         0.0000 
     40 H40         4.1182   54.8424   29.0200 H         1 UNK         0.0000 
     41 H41         2.6525   55.8191   29.0866 H         1 UNK         0.0000 
     42 H42         3.1883   54.8969   30.4817 H         1 UNK         0.0000 
     43 H43         3.9481   52.2368   28.9577 H         1 UNK         0.0000 
     44 H44         3.1513   52.3952   30.5080 H         1 UNK         0.0000 
     45 H45         2.3890   51.4743   29.2332 H         1 UNK         0.0000 
     46 H46         1.9043   51.5477   27.0175 H         1 UNK         0.0000 
     47 H47         0.3971   52.2635   27.4006 H         1 UNK         0.0000 
     48 H48         0.0773   53.2453   25.2331 H         1 UNK         0.0000 
     49 H49         0.5373   51.5831   25.0311 H         1 UNK         0.0000 
     50 H50         1.5090   53.4481   20.7763 H         1 UNK         0.0000 
     51 H51         1.5608   52.5801   18.2405 H         1 UNK         0.0000 
     52 H52         0.3044   53.6064   18.8384 H         1 UNK         0.0000 
     53 H53        -0.0178   51.0346   17.2755 H         1 UNK         0.0000 
     54 H54        -0.7781   52.5575   16.8226 H         1 UNK         0.0000 
     55 H55        -1.3229   52.4933   20.7736 H         1 UNK         0.0000 
     56 H56        -1.2339   50.7627   21.0459 H         1 UNK         0.0000 
     57 H57         3.5330   52.7815   20.7155 H         1 UNK         0.0000 
     58 H58         4.8614   52.8210   19.0834 H         1 UNK         0.0000 
     59 H59         7.1278   54.8706   19.3690 H         1 UNK         0.0000 
     60 H60         5.3271   52.5158   16.9596 H         1 UNK         0.0000 
     61 H61         6.2431   51.8943   14.7804 H         1 UNK         0.0000 
     62 H62         8.4816   52.6954   14.0959 H         1 UNK         0.0000 
     63 H63         9.8079   54.1310   15.6098 H         1 UNK         0.0000 
     64 H64         8.9055   54.7701   17.8060 H         1 UNK         0.0000 
     65 H65         4.1289   53.1844   26.9428 H         1 UNK         0.0000 
     66 H66         3.7762   54.8962   26.7803 H         1 UNK         0.0000 
@<TRIPOS>BOND
     1    1    2 1    
     2    1   37 1    
     3    1   38 1    
     4    1   39 1    
     5    2    3 1    
     6    2    4 1    
     7    2    5 1    
     8    3   40 1    
     9    3   41 1    
    10    3   42 1    
    11    4   43 1    
    12    4   44 1    
    13    4   45 1    
    14    5    6 1    
    15    5   36 1    
    16    5    7 1    
    17    7    8 1    
    18    7   46 1    
    19    7   47 1    
    20    8    9 1    
    21    8   48 1    
    22    8   49 1    
    23    9   13 1    
    24    9   10 2    
    25   10   11 1    
    26   10   36 1    
    27   11   12 1    
    28   12   13 2    
    29   12   25 am   BACKBONE|DICT|INTERRES
    30   13   14 1    
    31   14   15 2    
    32   14   16 am   BACKBONE|DICT|INTERRES
    33   16   17 1    
    34   16   50 1    
    35   17   18 1    
    36   17   24 1    
    37   17   19 1    
    38   19   20 1    
    39   19   51 1    
    40   19   52 1    
    41   20   21 1    
    42   20   53 1    
    43   20   54 1    
    44   21   22 2    
    45   21   23 2    
    46   21   24 1    
    47   24   55 1    
    48   24   56 1    
    49   25   26 am   BACKBONE|DICT|INTERRES
    50   25   57 1    
    51   26   27 2    
    52   26   28 1    
    53   28   29 2    
    54   28   58 1    
    55   29   30 1    
    56   29   59 1    
    57   30   35 ar   
    58   30   31 ar   
    59   31   32 ar   
    60   31   60 1    
    61   32   33 ar   
    62   32   61 1    
    63   33   34 ar   
    64   33   62 1    
    65   34   35 ar   
    66   34   63 1    
    67   35   64 1    
    68   36   65 1    
    69   36   66 1    
@<TRIPOS>SUBSTRUCTURE
     1 UNK         1 GROUP             0       ****    0 ROOT    
