@<TRIPOS>MOLECULE
ZINC32809991_5093
57   60    1
SMALL
USER_CHARGES


@<TRIPOS>ATOM
      1 C1          0.0215   48.7785   23.3619 C.3       1 UNK         0.0000 
      2 C2          0.3021   50.1767   23.8731 C.2       1 UNK         0.0000 
      3 C3         -0.2271   50.7197   25.0452 C.2       1 UNK         0.0000 
      4 S4          0.2843   52.3711   25.3119 S.3       1 UNK         0.0000 
      5 C5          1.2526   52.3413   23.8697 C.ar      1 UNK         0.0000 
      6 C6          1.1938   51.0882   23.2009 C.ar      1 UNK         0.0000 
      7 C7          1.9970   51.0015   22.0288 C.ar      1 UNK         0.0000 
      8 N8          2.7903   52.0443   21.6464 N.ar      1 UNK         0.0000 
      9 C9          2.7361   53.1781   22.3847 C.ar      1 UNK         0.0000 
     10 N10         1.9683   53.3929   23.4779 N.ar      1 UNK         0.0000 
     11 C11         3.6750   54.3089   21.9787 C.3       1 UNK         0.0000 
     12 S12         5.3748   54.0973   22.6221 S.3       1 UNK         0.0000 
     13 C13         5.4224   54.3360   24.3834 C.ar      1 UNK         0.0000 
     14 C14         4.2892   54.7255   25.0983 C.ar      1 UNK         0.0000 
     15 C15         4.3169   54.7712   26.4854 C.ar      1 UNK         0.0000 
     16 C16         5.4944   54.4713   27.1603 C.ar      1 UNK         0.0000 
     17 C17         6.6521   54.1525   26.4546 C.ar      1 UNK         0.0000 
     18 C18         6.6184   54.0965   25.0609 C.ar      1 UNK         0.0000 
     19 Cl19        5.5069   54.4974   28.8823 Cl        1 UNK         0.0000 
     20 N20         1.9657   49.8489   21.2197 N.pl3     1 UNK         0.0000 
     21 C21         2.6247   49.8052   19.9153 C.3       1 UNK         0.0000 
     22 C22         1.7826   50.4645   18.8065 C.3       1 UNK         0.0000 
     23 N23         2.7044   51.2964   17.8909 N.4       1 UNK         0.0000 
     24 C24         2.1214   52.4452   17.0384 C.3       1 UNK         0.0000 
     25 H25         2.9905   53.0303   16.7269 H         1 UNK         0.0000 
     26 C26         1.3521   51.8319   15.8326 C.3       1 UNK         0.0000 
     27 C27         0.0310   52.5878   15.5937 C.3       1 UNK         0.0000 
     28 S28        -0.5419   53.0403   17.3107 S.o2      1 UNK         0.0000 
     29 O29        -1.0707   51.8486   17.9803 O.2       1 UNK         0.0000 
     30 O30        -1.3109   54.2880   17.2924 O.2       1 UNK         0.0000 
     31 C31         1.2047   53.3649   17.8828 C.3       1 UNK         0.0000 
     32 C32        -1.1492   50.0906   26.0662 C.3       1 UNK         0.0000 
     33 H33        -0.7448   48.2548   23.9313 H         1 UNK         0.0000 
     34 H34        -0.3207   48.7781   22.3271 H         1 UNK         0.0000 
     35 H35         0.9190   48.1680   23.4244 H         1 UNK         0.0000 
     36 H36         3.7195   54.3447   20.8893 H         1 UNK         0.0000 
     37 H37         3.2797   55.2844   22.2692 H         1 UNK         0.0000 
     38 H38         3.3781   55.0007   24.6008 H         1 UNK         0.0000 
     39 H39         3.4270   55.0412   27.0352 H         1 UNK         0.0000 
     40 H40         7.5581   53.9224   26.9925 H         1 UNK         0.0000 
     41 H41         7.5034   53.8163   24.5078 H         1 UNK         0.0000 
     42 H42         1.2403   49.1714   21.4081 H         1 UNK         0.0000 
     43 H43         2.8570   48.7691   19.6631 H         1 UNK         0.0000 
     44 H44         3.6006   50.2882   19.9908 H         1 UNK         0.0000 
     45 H45         1.0165   51.1168   19.2184 H         1 UNK         0.0000 
     46 H46         1.3009   49.7334   18.1564 H         1 UNK         0.0000 
     47 H47         3.1959   50.6365   17.2854 H         1 UNK         0.0000 
     48 H48         1.0682   50.7990   16.0444 H         1 UNK         0.0000 
     49 H49         1.9767   51.7901   14.9378 H         1 UNK         0.0000 
     50 H50        -0.7563   52.0643   15.0532 H         1 UNK         0.0000 
     51 H51         0.2460   53.5193   15.0704 H         1 UNK         0.0000 
     52 H52         1.4382   54.3995   17.6308 H         1 UNK         0.0000 
     53 H53         1.2512   53.2963   18.9680 H         1 UNK         0.0000 
     54 H54        -1.2645   49.0139   25.9475 H         1 UNK         0.0000 
     55 H55        -0.7756   50.2367   27.0802 H         1 UNK         0.0000 
     56 H56        -2.1481   50.5244   26.0306 H         1 UNK         0.0000 
     57 H57         3.4479   51.6804   18.4594 H         1 UNK         0.0000 
@<TRIPOS>BOND
     1    1    2 1    
     2    1   33 1    
     3    1   34 1    
     4    1   35 1    
     5    2    6 1    
     6    2    3 2    
     7    3    4 1    
     8    3   32 1    
     9    4    5 1    
    10    5   10 ar   
    11    5    6 ar   
    12    6    7 ar   
    13    7    8 ar   
    14    7   20 1    
    15    8    9 ar   
    16    9   10 ar   
    17    9   11 1    
    18   11   12 1    
    19   11   36 1    
    20   11   37 1    
    21   12   13 1    
    22   13   18 ar   
    23   13   14 ar   
    24   14   15 ar   
    25   14   38 1    
    26   15   16 ar   
    27   15   39 1    
    28   16   17 ar   
    29   16   19 1    
    30   17   18 ar   
    31   17   40 1    
    32   18   41 1    
    33   20   21 1    
    34   20   42 1    
    35   21   22 1    
    36   21   43 1    
    37   21   44 1    
    38   22   23 1    
    39   22   45 1    
    40   22   46 1    
    41   23   24 1    
    42   23   47 1    
    43   23   57 1    
    44   24   25 1    
    45   24   31 1    
    46   24   26 1    
    47   26   27 1    
    48   26   48 1    
    49   26   49 1    
    50   27   28 1    
    51   27   50 1    
    52   27   51 1    
    53   28   29 2    
    54   28   30 2    
    55   28   31 1    
    56   31   52 1    
    57   31   53 1    
    58   32   54 1    
    59   32   55 1    
    60   32   56 1    
@<TRIPOS>SUBSTRUCTURE
     1 UNK         1 GROUP             0       ****    0 ROOT    
