ZINC13355306_5630
                    3D
 Schrodinger Suite 2024-2.
 54 57  0  0  1  0            999 V2000
    3.6708   57.7336   16.5168 C   0  0  0  0  0  0
    3.5046   56.5759   17.2814 C   0  0  0  0  0  0
    4.5966   56.2295   18.0825 C   0  0  0  0  0  0
    5.9020   57.3499   17.7440 S   0  0  0  0  0  0
    4.9248   58.2877   16.6709 C   0  0  0  0  0  0
    4.6829   55.0428   19.0462 C   0  0  0  0  0  0
    5.5619   55.1634   20.2989 C   0  0  0  0  0  0
    6.6174   55.9384   20.3887 N   0  0  0  0  0  0
    7.2252   55.7103   21.6103 N   0  0  0  0  0  0
    6.5240   54.7966   22.2192 C   0  0  0  0  0  0
    5.4451   54.3939   21.4550 N   0  0  0  0  0  0
    4.4474   53.3819   21.8749 C   0  0  0  0  0  0
    3.1794   54.1166   22.3675 C   0  0  0  0  0  0
    2.0314   53.1478   22.7114 C   0  0  0  0  0  0
    1.7646   52.1368   21.5797 C   0  0  0  0  0  0
    3.0396   51.3576   21.1997 C   0  0  0  0  0  0
    4.1803   52.3072   20.7869 C   0  0  0  0  0  0
    6.9902   54.0916   23.7566 S   0  0  0  0  0  0
    6.5980   55.4586   24.8643 C   0  0  0  0  0  0
    6.2188   54.8961   26.2262 C   0  0  0  0  0  0
    7.1039   54.6970   27.0558 O   0  0  0  0  0  0
    4.9063   54.6608   26.4190 N   0  0  0  0  0  0
    4.3012   54.1126   27.5551 C   0  0  0  0  0  0
    3.0142   54.5477   27.8579 C   0  0  0  0  0  0
    2.3311   54.0221   28.9416 C   0  0  0  0  0  0
    2.9277   53.0427   29.7404 C   0  0  0  0  0  0
    4.2211   52.5984   29.4284 C   0  0  0  0  0  0
    4.9079   53.1309   28.3436 C   0  0  0  0  0  0
    2.1958   52.4959   30.9210 C   0  0  0  0  0  0
    2.8166   51.6969   31.6603 O   0  0  0  0  0  0
    2.9029   58.1561   15.8853 H   0  0  0  0  0  0
    2.5827   56.0129   17.2855 H   0  0  0  0  0  0
    5.3111   59.1942   16.2233 H   0  0  0  0  0  0
    5.0313   54.1832   18.4730 H   0  0  0  0  0  0
    3.6628   54.7989   19.3417 H   0  0  0  0  0  0
    4.9019   52.8687   22.7180 H   0  0  0  0  0  0
    3.4267   54.6443   23.2898 H   0  0  0  0  0  0
    2.8720   54.8987   21.6819 H   0  0  0  0  0  0
    2.2774   52.6048   23.6260 H   0  0  0  0  0  0
    1.1236   53.7119   22.9295 H   0  0  0  0  0  0
    0.9812   51.4405   21.8816 H   0  0  0  0  0  0
    1.3832   52.6647   20.7033 H   0  0  0  0  0  0
    3.3558   50.7441   22.0451 H   0  0  0  0  0  0
    2.8250   50.6629   20.3858 H   0  0  0  0  0  0
    3.9881   52.7057   19.7978 H   0  0  0  0  0  0
    5.0780   51.6971   20.6726 H   0  0  0  0  0  0
    5.7892   56.0756   24.4814 H   0  0  0  0  0  0
    7.4771   56.0961   24.9416 H   0  0  0  0  0  0
    4.2716   54.9452   25.6904 H   0  0  0  0  0  0
    2.5262   55.3077   27.2811 H   0  0  0  0  0  0
    1.3358   54.3858   29.1576 H   0  0  0  0  0  0
    4.7042   51.8386   30.0263 H   0  0  0  0  0  0
    5.8946   52.7567   28.1130 H   0  0  0  0  0  0
    1.0308   52.8999   31.1297 O   0  5  0  0  0  0
  1  5  2  0  0  0
  1  2  1  0  0  0
  1 31  1  0  0  0
  2  3  2  0  0  0
  2 32  1  0  0  0
  3  4  1  0  0  0
  3  6  1  0  0  0
  4  5  1  0  0  0
  5 33  1  0  0  0
  6  7  1  0  0  0
  6 34  1  0  0  0
  6 35  1  0  0  0
  7 11  1  0  0  0
  7  8  2  0  0  0
  8  9  1  0  0  0
  9 10  2  0  0  0
 10 11  1  0  0  0
 10 18  1  0  0  0
 11 12  1  0  0  0
 12 17  1  0  0  0
 12 13  1  0  0  0
 12 36  1  0  0  0
 13 14  1  0  0  0
 13 37  1  0  0  0
 13 38  1  0  0  0
 14 15  1  0  0  0
 14 39  1  0  0  0
 14 40  1  0  0  0
 15 16  1  0  0  0
 15 41  1  0  0  0
 15 42  1  0  0  0
 16 17  1  0  0  0
 16 43  1  0  0  0
 16 44  1  0  0  0
 17 45  1  0  0  0
 17 46  1  0  0  0
 18 19  1  0  0  0
 19 20  1  0  0  0
 19 47  1  0  0  0
 19 48  1  0  0  0
 20 21  2  0  0  0
 20 22  1  0  0  0
 22 23  1  0  0  0
 22 49  1  0  0  0
 23 28  2  0  0  0
 23 24  1  0  0  0
 24 25  2  0  0  0
 24 50  1  0  0  0
 25 26  1  0  0  0
 25 51  1  0  0  0
 26 27  2  0  0  0
 26 29  1  0  0  0
 27 28  1  0  0  0
 27 52  1  0  0  0
 28 53  1  0  0  0
 29 30  2  0  0  0
 29 54  1  0  0  0
M  CHG  1  54  -1
M  END
> <i_i_glide_confnum>
50

> <i_i_glide_lignum>
5631

> <i_i_glide_posenum>
142

> <i_i_glide_rotatable_bonds>
9

> <i_m_Source_File_Index>
4985

> <b_m_subgroup_collapsed>
0

> <r_i_docking_score>
-6.22101

> <r_i_glide_ecoul>
-2.41572

> <r_i_glide_eff_state_penalty>
0

> <r_i_glide_einternal>
4.91199

> <r_i_glide_emodel>
-67.9464

> <r_i_glide_energy>
-49.3314

> <r_i_glide_erotb>
0.774379

> <r_i_glide_esite>
-0.0541837

> <r_i_glide_evdw>
-46.9156

> <r_i_glide_gscore>
-6.22101

> <r_i_glide_hbond>
-0.370378

> <r_i_glide_ligand_efficiency>
-0.200678

> <r_i_glide_ligand_efficiency_ln>
-1.40303

> <r_i_glide_ligand_efficiency_sa>
-0.630405

> <r_i_glide_lipo>
-2.41099

> <r_i_glide_metal>
0

> <r_i_glide_rewards>
-1.4517

> <s_i_glide_gridfile>
wee1_glide-grid

> <s_m_Source_File>
wee1_decoys_glide_SP.sdf

> <s_m_Source_Path>
/Users/zhangxujun/Desktop

> <s_m_entry_id>
5260

> <s_m_entry_name>
wee1_decoys_glide_SP.4985

> <s_m_subgroup_title>
wee1_decoys_glide_SP

> <s_m_subgroupid>
wee1_decoys_glide_SP


$$$$
