@<TRIPOS>MOLECULE
ZINC39494869_2885
60   63    1
SMALL
USER_CHARGES


@<TRIPOS>ATOM
      1 C1         -4.6450   53.2541   26.0007 C.ar      1 UNK         0.0000 
      2 C2         -4.0301   52.0985   26.4749 C.ar      1 UNK         0.0000 
      3 C3         -2.9950   51.5181   25.7475 C.ar      1 UNK         0.0000 
      4 C4         -2.5620   52.0997   24.5496 C.ar      1 UNK         0.0000 
      5 C5         -3.1917   53.2593   24.0816 C.ar      1 UNK         0.0000 
      6 C6         -4.2322   53.8352   24.8050 C.ar      1 UNK         0.0000 
      7 C7         -1.4584   51.4219   23.7188 C.3       1 UNK         0.0000 
      8 H8         -1.3884   50.3805   24.0492 H         1 UNK         0.0000 
      9 C9         -0.0320   52.0583   23.9115 C.3       1 UNK         0.0000 
     10 H10        -0.1417   53.1220   23.7023 H         1 UNK         0.0000 
     11 C11         0.9721   51.4783   22.8870 C.ar      1 UNK         0.0000 
     12 C12         1.3326   52.2759   21.7901 C.ar      1 UNK         0.0000 
     13 C13         2.1845   51.7911   20.8010 C.ar      1 UNK         0.0000 
     14 C14         2.6751   50.4918   20.8824 C.ar      1 UNK         0.0000 
     15 C15         2.3069   49.6761   21.9506 C.ar      1 UNK         0.0000 
     16 C16         1.4593   50.1554   22.9486 C.ar      1 UNK         0.0000 
     17 O17         1.1043   49.2969   23.9568 O.3       1 UNK         0.0000 
     18 C18         0.5468   51.9867   25.3605 C.2       1 UNK         0.0000 
     19 O19         0.0269   51.2049   26.1589 O.2       1 UNK         0.0000 
     20 C20         1.6872   52.8971   25.7752 C.ar      1 UNK         0.0000 
     21 C21         2.3754   53.6833   24.8310 C.ar      1 UNK         0.0000 
     22 C22         3.4792   54.4565   25.1925 C.ar      1 UNK         0.0000 
     23 C23         3.9000   54.4963   26.5173 C.ar      1 UNK         0.0000 
     24 C24         3.2184   53.7546   27.4775 C.ar      1 UNK         0.0000 
     25 C25         2.1314   52.9551   27.1196 C.ar      1 UNK         0.0000 
     26 O26         1.5412   52.2321   28.1269 O.3       1 UNK         0.0000 
     27 N27        -1.8086   51.3632   22.2910 N.am      1 UNK         0.0000 
     28 C28        -2.7943   50.5388   21.7648 C.2       1 UNK         0.0000 
     29 O29        -3.4640   49.6756   22.3312 O.2       1 UNK         0.0000 
     30 S30        -2.9629   50.7812   19.9052 S.3       1 UNK         0.0000 
     31 O31        -2.3866   52.0966   19.5901 O.2       1 UNK         0.0000 
     32 O32        -2.4671   49.5645   19.2517 O.2       1 UNK         0.0000 
     33 O33        -4.6260   50.8967   19.7038 O.3       1 UNK         0.0000 
     34 C34        -5.4306   49.8231   19.9873 C.ar      1 UNK         0.0000 
     35 C35        -5.4202   48.6907   19.1706 C.ar      1 UNK         0.0000 
     36 C36        -6.2636   47.6202   19.4576 C.ar      1 UNK         0.0000 
     37 C37        -7.1189   47.6923   20.5548 C.ar      1 UNK         0.0000 
     38 C38        -7.1461   48.8280   21.3633 C.ar      1 UNK         0.0000 
     39 C39        -6.3038   49.8983   21.0733 C.ar      1 UNK         0.0000 
     40 H40        -5.4541   53.6981   26.5626 H         1 UNK         0.0000 
     41 H41        -4.3603   51.6452   27.3985 H         1 UNK         0.0000 
     42 H42        -2.5364   50.6110   26.1184 H         1 UNK         0.0000 
     43 H43        -2.8826   53.7077   23.1509 H         1 UNK         0.0000 
     44 H44        -4.7181   54.7252   24.4336 H         1 UNK         0.0000 
     45 H45         0.9528   53.2827   21.6915 H         1 UNK         0.0000 
     46 H46         2.4588   52.4192   19.9657 H         1 UNK         0.0000 
     47 H47         3.3314   50.1151   20.1100 H         1 UNK         0.0000 
     48 H48         2.6867   48.6659   21.9945 H         1 UNK         0.0000 
     49 H49         1.7395   48.5763   24.0813 H         1 UNK         0.0000 
     50 H50         2.0931   53.7065   23.7928 H         1 UNK         0.0000 
     51 H51         4.0046   55.0278   24.4405 H         1 UNK         0.0000 
     52 H52         4.7509   55.0984   26.8018 H         1 UNK         0.0000 
     53 H53         3.5493   53.7841   28.5054 H         1 UNK         0.0000 
     54 H54         0.8245   51.6836   27.7858 H         1 UNK         0.0000 
     55 H55        -1.2747   51.9296   21.6476 H         1 UNK         0.0000 
     56 H56        -4.7597   48.6448   18.3169 H         1 UNK         0.0000 
     57 H57        -6.2551   46.7389   18.8322 H         1 UNK         0.0000 
     58 H58        -7.7718   46.8611   20.7786 H         1 UNK         0.0000 
     59 H59        -7.8166   48.8783   22.2086 H         1 UNK         0.0000 
     60 H60        -6.3216   50.7850   21.6908 H         1 UNK         0.0000 
@<TRIPOS>BOND
     1    1    6 ar   
     2    1    2 ar   
     3    1   40 1    
     4    2    3 ar   
     5    2   41 1    
     6    3    4 ar   
     7    3   42 1    
     8    4    5 ar   
     9    4    7 1    
    10    5    6 ar   
    11    5   43 1    
    12    6   44 1    
    13    7    8 1    
    14    7    9 1    
    15    7   27 1    
    16    9   10 1    
    17    9   11 1    
    18    9   18 1    
    19   11   16 ar   
    20   11   12 ar   
    21   12   13 ar   
    22   12   45 1    
    23   13   14 ar   
    24   13   46 1    
    25   14   15 ar   
    26   14   47 1    
    27   15   16 ar   
    28   15   48 1    
    29   16   17 1    
    30   17   49 1    
    31   18   19 2    
    32   18   20 1    
    33   20   25 ar   
    34   20   21 ar   
    35   21   22 ar   
    36   21   50 1    
    37   22   23 ar   
    38   22   51 1    
    39   23   24 ar   
    40   23   52 1    
    41   24   25 ar   
    42   24   53 1    
    43   25   26 1    
    44   26   54 1    
    45   27   28 am   BACKBONE|DICT|INTERRES
    46   27   55 1    
    47   28   29 2    
    48   28   30 1    
    49   30   31 2    
    50   30   32 2    
    51   30   33 1    
    52   33   34 1    
    53   34   39 ar   
    54   34   35 ar   
    55   35   36 ar   
    56   35   56 1    
    57   36   37 ar   
    58   36   57 1    
    59   37   38 ar   
    60   37   58 1    
    61   38   39 ar   
    62   38   59 1    
    63   39   60 1    
@<TRIPOS>SUBSTRUCTURE
     1 UNK         1 GROUP             0       ****    0 ROOT    
