ZINC39354725_5346
                    3D
 Schrodinger Suite 2024-2.
 62 66  0  0  1  0            999 V2000
    0.2603   48.9158   23.2295 C   0  0  0  0  0  0
   -1.1227   48.8549   23.1174 C   0  0  0  0  0  0
   -1.7555   49.4694   22.0414 C   0  0  0  0  0  0
   -1.0202   50.1625   21.0647 C   0  0  0  0  0  0
    0.3878   50.2477   21.1961 C   0  0  0  0  0  0
    1.0065   49.6000   22.2751 C   0  0  0  0  0  0
    1.2834   50.9933   20.1907 C   0  0  0  0  0  0
    2.0501   52.0969   20.7868 N   0  0  0  0  0  0
    3.2784   51.9711   21.3236 C   0  0  0  0  0  0
    3.9070   50.9190   21.2811 O   0  0  0  0  0  0
    3.9243   53.1743   22.0390 C   0  0  1  0  0  0
    4.9787   53.2949   21.7890 H   0  0  0  0  0  0
    3.1014   54.4230   22.2689 C   0  0  0  0  0  0
    3.4603   53.5563   23.4481 C   0  0  2  0  0  0
    4.5263   54.0736   24.4482 C   0  0  0  0  0  0
    3.9325   54.7301   25.7138 C   0  0  0  0  0  0
    2.7889   53.8728   26.3137 N   0  3  2  0  0  0
    1.7089   53.5614   25.2443 C   0  0  0  0  0  0
    2.3318   52.7484   24.1173 C   0  0  0  0  0  0
    2.1327   54.5915   27.5373 C   0  0  0  0  0  0
    2.1221   53.7328   28.8186 C   0  0  2  0  0  0
    1.4459   54.1845   29.5481 H   0  0  0  0  0  0
    3.4466   53.4966   29.4771 C   0  0  0  0  0  0
    3.6573   52.2741   29.6930 N   0  0  0  0  0  0
    2.7045   51.5699   29.2310 N   0  0  0  0  0  0
    1.8012   52.2625   28.6787 C   0  0  0  0  0  0
    0.6315   51.7522   27.9318 C   0  0  0  0  0  0
    0.7052   50.5458   27.2276 C   0  0  0  0  0  0
   -0.3511   50.1105   26.4375 C   0  0  0  0  0  0
   -1.4910   50.8931   26.3213 C   0  0  0  0  0  0
   -1.5839   52.0962   27.0072 C   0  0  0  0  0  0
   -0.5350   52.5127   27.8296 C   0  0  0  0  0  0
   -2.5112   50.4882   25.5334 F   0  0  0  0  0  0
   -1.7747   50.7890   19.8837 C   0  0  0  0  0  0
   -1.5790   52.1056   19.8756 F   0  0  0  0  0  0
   -1.3368   50.2734   18.7346 F   0  0  0  0  0  0
   -3.0933   50.5854   19.9402 F   0  0  0  0  0  0
    0.7598   48.4279   24.0541 H   0  0  0  0  0  0
   -1.7043   48.3248   23.8589 H   0  0  0  0  0  0
   -2.8317   49.3952   21.9749 H   0  0  0  0  0  0
    2.0806   49.6144   22.3839 H   0  0  0  0  0  0
    1.9557   50.2579   19.7419 H   0  0  0  0  0  0
    0.7246   51.4031   19.3538 H   0  0  0  0  0  0
    1.6132   53.0077   20.7984 H   0  0  0  0  0  0
    3.6145   55.3537   22.0820 H   0  0  0  0  0  0
    2.0326   54.4959   22.0816 H   0  0  0  0  0  0
    5.1972   53.2825   24.7551 H   0  0  0  0  0  0
    5.1779   54.7943   23.9541 H   0  0  0  0  0  0
    3.5046   55.6966   25.4892 H   0  0  0  0  0  0
    4.6949   54.8334   26.4892 H   0  0  0  0  0  0
    1.2870   54.4962   24.8792 H   0  0  0  0  0  0
    0.9213   52.9778   25.7033 H   0  0  0  0  0  0
    1.5383   52.4939   23.4151 H   0  0  0  0  0  0
    2.7043   51.7963   24.4814 H   0  0  0  0  0  0
    2.6670   55.5301   27.7058 H   0  0  0  0  0  0
    1.1069   54.8643   27.2812 H   0  0  0  0  0  0
    4.1506   54.2718   29.7704 H   0  0  0  0  0  0
    1.5857   49.9251   27.2818 H   0  0  0  0  0  0
   -0.2957   49.1554   25.9429 H   0  0  0  0  0  0
   -2.4699   52.6997   26.8849 H   0  0  0  0  0  0
   -0.6158   53.4562   28.3487 H   0  0  0  0  0  0
    3.1773   52.9942   26.6357 H   0  0  0  0  0  0
  1  6  2  0  0  0
  1  2  1  0  0  0
  1 38  1  0  0  0
  2  3  2  0  0  0
  2 39  1  0  0  0
  3  4  1  0  0  0
  3 40  1  0  0  0
  4  5  2  0  0  0
  4 34  1  0  0  0
  5  6  1  0  0  0
  5  7  1  0  0  0
  6 41  1  0  0  0
  7  8  1  0  0  0
  7 42  1  0  0  0
  7 43  1  0  0  0
  8  9  1  0  0  0
  8 44  1  0  0  0
  9 10  2  0  0  0
  9 11  1  0  0  0
 11 12  1  0  0  0
 11 14  1  0  0  0
 11 13  1  0  0  0
 13 14  1  0  0  0
 13 45  1  0  0  0
 13 46  1  0  0  0
 14 19  1  0  0  0
 14 15  1  0  0  0
 15 16  1  0  0  0
 15 47  1  0  0  0
 15 48  1  0  0  0
 16 17  1  0  0  0
 16 49  1  0  0  0
 16 50  1  0  0  0
 17 18  1  0  0  0
 17 20  1  0  0  0
 17 62  1  0  0  0
 18 19  1  0  0  0
 18 51  1  0  0  0
 18 52  1  0  0  0
 19 53  1  0  0  0
 19 54  1  0  0  0
 20 21  1  0  0  0
 20 55  1  0  0  0
 20 56  1  0  0  0
 21 22  1  0  0  0
 21 26  1  0  0  0
 21 23  1  0  0  0
 23 24  2  0  0  0
 23 57  1  0  0  0
 24 25  1  0  0  0
 25 26  2  0  0  0
 26 27  1  0  0  0
 27 32  2  0  0  0
 27 28  1  0  0  0
 28 29  2  0  0  0
 28 58  1  0  0  0
 29 30  1  0  0  0
 29 59  1  0  0  0
 30 31  2  0  0  0
 30 33  1  0  0  0
 31 32  1  0  0  0
 31 60  1  0  0  0
 32 61  1  0  0  0
 34 35  1  0  0  0
 34 36  1  0  0  0
 34 37  1  0  0  0
M  CHG  1  17   1
M  END
> <i_i_glide_confnum>
172

> <i_i_glide_lignum>
5347

> <i_i_glide_posenum>
80

> <i_i_glide_rotatable_bonds>
8

> <i_m_Source_File_Index>
3402

> <b_m_subgroup_collapsed>
0

> <r_i_docking_score>
-3.74199

> <r_i_glide_ecoul>
-3.90258

> <r_i_glide_eff_state_penalty>
0

> <r_i_glide_einternal>
10.7225

> <r_i_glide_emodel>
-36.3224

> <r_i_glide_energy>
-33.4625

> <r_i_glide_erotb>
0.598772

> <r_i_glide_esite>
-0.0875996

> <r_i_glide_evdw>
-29.5599

> <r_i_glide_gscore>
-3.74199

> <r_i_glide_hbond>
-0.0759179

> <r_i_glide_ligand_efficiency>
-0.106914

> <r_i_glide_ligand_efficiency_ln>
-0.821449

> <r_i_glide_ligand_efficiency_sa>
-0.349723

> <r_i_glide_lipo>
-1.62568

> <r_i_glide_metal>
0

> <r_i_glide_rewards>
-0.488182

> <s_i_glide_gridfile>
wee1_glide-grid

> <s_m_Source_File>
wee1_decoys_glide_SP.sdf

> <s_m_Source_Path>
/Users/zhangxujun/Desktop

> <s_m_entry_id>
3677

> <s_m_entry_name>
wee1_decoys_glide_SP.3402

> <s_m_subgroup_title>
wee1_decoys_glide_SP

> <s_m_subgroupid>
wee1_decoys_glide_SP


$$$$
