@<TRIPOS>MOLECULE
ZINC35056555_5499
63   66    1
SMALL
USER_CHARGES


@<TRIPOS>ATOM
      1 C1         -4.8952   51.0926   26.0327 C.3       1 UNK         0.0000 
      2 C2         -3.5336   51.1579   26.7129 C.2       1 UNK         0.0000 
      3 O3         -3.4454   51.5392   27.8772 O.2       1 UNK         0.0000 
      4 N4         -2.4806   50.7936   25.9679 N.am      1 UNK         0.0000 
      5 C5         -1.0765   50.7547   26.4008 C.3       1 UNK         0.0000 
      6 H6         -1.0770   50.4500   27.4461 H         1 UNK         0.0000 
      7 C7         -0.2408   49.7124   25.6271 C.3       1 UNK         0.0000 
      8 H8          0.7226   49.5999   26.1269 H         1 UNK         0.0000 
      9 C9          0.0135   50.1773   24.1733 C.3       1 UNK         0.0000 
     10 H10         0.7371   49.4915   23.7311 H         1 UNK         0.0000 
     11 C11         0.5587   51.6262   24.1595 C.3       1 UNK         0.0000 
     12 H12         1.5864   51.6117   24.5269 H         1 UNK         0.0000 
     13 C13         0.5487   52.1726   22.7212 C.3       1 UNK         0.0000 
     14 O14        -0.6906   51.9239   22.0498 O.3       1 UNK         0.0000 
     15 C15        -1.1490   50.5933   22.1063 C.3       1 UNK         0.0000 
     16 O16        -1.2198   50.1447   23.4392 O.3       1 UNK         0.0000 
     17 C17        -2.5906   50.6497   21.6341 C.3       1 UNK         0.0000 
     18 C18        -0.2539   49.6755   21.2566 C.3       1 UNK         0.0000 
     19 O19        -0.2763   52.4978   24.9480 O.3       1 UNK         0.0000 
     20 C20        -0.3795   52.1255   26.3013 C.3       1 UNK         0.0000 
     21 H21        -0.9775   52.9312   26.7268 H         1 UNK         0.0000 
     22 O22         0.8945   52.1217   26.8967 O.3       1 UNK         0.0000 
     23 C23         1.0684   52.3274   28.2570 C.ar      1 UNK         0.0000 
     24 C24         0.0349   52.1931   29.2000 C.ar      1 UNK         0.0000 
     25 C25         0.3004   52.2898   30.5623 C.ar      1 UNK         0.0000 
     26 C26         1.6009   52.4991   31.0049 C.ar      1 UNK         0.0000 
     27 C27         2.6244   52.7055   30.0814 C.ar      1 UNK         0.0000 
     28 C28         2.3640   52.6522   28.7049 C.ar      1 UNK         0.0000 
     29 C29         3.4260   52.9828   27.7252 C.2       1 UNK         0.0000 
     30 C30         4.4726   53.8139   27.9324 C.2       1 UNK         0.0000 
     31 C31         5.5117   54.1343   26.9448 C.2       1 UNK         0.0000 
     32 O32         6.6365   54.3933   27.3760 O.2       1 UNK         0.0000 
     33 C33         5.2623   54.1192   25.4555 C.ar      1 UNK         0.0000 
     34 C34         6.3675   54.0988   24.5881 C.ar      1 UNK         0.0000 
     35 C35         6.1902   54.0966   23.2070 C.ar      1 UNK         0.0000 
     36 C36         4.9053   54.0966   22.6760 C.ar      1 UNK         0.0000 
     37 C37         3.7978   54.1484   23.5165 C.ar      1 UNK         0.0000 
     38 C38         3.9743   54.1907   24.8983 C.ar      1 UNK         0.0000 
     39 Cl39        4.6842   54.0772   20.9647 Cl        1 UNK         0.0000 
     40 O40        -0.8352   48.4256   25.6817 O.3       1 UNK         0.0000 
     41 H41        -4.8263   51.4060   24.9888 H         1 UNK         0.0000 
     42 H42        -5.2826   50.0729   26.0662 H         1 UNK         0.0000 
     43 H43        -5.6055   51.7470   26.5400 H         1 UNK         0.0000 
     44 H44        -2.6350   50.4838   25.0185 H         1 UNK         0.0000 
     45 H45         0.7296   53.2469   22.7223 H         1 UNK         0.0000 
     46 H46         1.3646   51.7525   22.1315 H         1 UNK         0.0000 
     47 H47        -3.1715   51.3051   22.2822 H         1 UNK         0.0000 
     48 H48        -2.6373   51.0259   20.6121 H         1 UNK         0.0000 
     49 H49        -3.0290   49.6509   21.6618 H         1 UNK         0.0000 
     50 H50         0.7878   49.6942   21.5652 H         1 UNK         0.0000 
     51 H51        -0.6145   48.6486   21.3256 H         1 UNK         0.0000 
     52 H52        -0.2976   49.9885   20.2135 H         1 UNK         0.0000 
     53 H53        -0.9826   51.9874   28.9076 H         1 UNK         0.0000 
     54 H54        -0.4955   52.1532   31.2819 H         1 UNK         0.0000 
     55 H55         1.8059   52.5217   32.0668 H         1 UNK         0.0000 
     56 H56         3.6220   52.9058   30.4433 H         1 UNK         0.0000 
     57 H57         3.3294   52.4967   26.7690 H         1 UNK         0.0000 
     58 H58         4.6076   54.2885   28.8932 H         1 UNK         0.0000 
     59 H59         7.3789   54.0832   24.9684 H         1 UNK         0.0000 
     60 H60         7.0510   54.0966   22.5532 H         1 UNK         0.0000 
     61 H61         2.8054   54.1949   23.0954 H         1 UNK         0.0000 
     62 H62         3.0898   54.2865   25.5083 H         1 UNK         0.0000 
     63 H63        -0.9959   48.2095   26.6194 H         1 UNK         0.0000 
@<TRIPOS>BOND
     1    1    2 1    
     2    1   41 1    
     3    1   42 1    
     4    1   43 1    
     5    2    3 2    
     6    2    4 am   BACKBONE|DICT|INTERRES
     7    4    5 1    
     8    4   44 1    
     9    5    6 1    
    10    5   20 1    
    11    5    7 1    
    12    7    8 1    
    13    7    9 1    
    14    7   40 1    
    15    9   10 1    
    16    9   16 1    
    17    9   11 1    
    18   11   12 1    
    19   11   13 1    
    20   11   19 1    
    21   13   14 1    
    22   13   45 1    
    23   13   46 1    
    24   14   15 1    
    25   15   16 1    
    26   15   17 1    
    27   15   18 1    
    28   17   47 1    
    29   17   48 1    
    30   17   49 1    
    31   18   50 1    
    32   18   51 1    
    33   18   52 1    
    34   19   20 1    
    35   20   21 1    
    36   20   22 1    
    37   22   23 1    
    38   23   28 ar   
    39   23   24 ar   
    40   24   25 ar   
    41   24   53 1    
    42   25   26 ar   
    43   25   54 1    
    44   26   27 ar   
    45   26   55 1    
    46   27   28 ar   
    47   27   56 1    
    48   28   29 1    
    49   29   30 2    
    50   29   57 1    
    51   30   31 1    
    52   30   58 1    
    53   31   32 2    
    54   31   33 1    
    55   33   38 ar   
    56   33   34 ar   
    57   34   35 ar   
    58   34   59 1    
    59   35   36 ar   
    60   35   60 1    
    61   36   37 ar   
    62   36   39 1    
    63   37   38 ar   
    64   37   61 1    
    65   38   62 1    
    66   40   63 1    
@<TRIPOS>SUBSTRUCTURE
     1 UNK         1 GROUP             0       ****    0 ROOT    
