ZINC09088922_1778
                    3D
 Schrodinger Suite 2024-2.
 37 39  0  0  1  0            999 V2000
    2.0219   51.8015   21.9123 C   0  0  0  0  0  0
    1.3577   51.2544   23.1839 C   0  0  0  0  0  0
    1.4034   52.2561   24.3568 C   0  0  0  0  0  0
    0.8042   51.7625   25.6675 C   0  0  0  0  0  0
    0.9066   52.3822   26.9319 C   0  0  0  0  0  0
    0.1906   51.5451   27.7584 C   0  0  0  0  0  0
   -0.2528   50.4968   27.0149 N   0  0  0  0  0  0
   -0.7947   49.7095   27.3713 H   0  0  0  0  0  0
    0.1174   50.6276   25.7358 N   0  0  0  0  0  0
   -0.0816   51.6975   29.0929 O   0  0  0  0  0  0
    0.3353   52.8956   29.5940 C   0  0  0  0  0  0
    1.0570   53.8429   28.9352 C   0  0  0  0  0  0
    1.5418   53.6639   27.4796 C   0  0  1  0  0  0
    1.1044   54.4951   26.9339 H   0  0  0  0  0  0
    3.0637   53.7700   27.3265 C   0  0  0  0  0  0
    3.6711   54.4420   26.2496 C   0  0  0  0  0  0
    5.0494   54.4966   26.3110 C   0  0  0  0  0  0
    5.6461   53.6968   27.7117 S   0  0  0  0  0  0
    4.0352   53.2452   28.2053 C   0  0  0  0  0  0
    3.8677   52.4022   29.4509 C   0  0  0  0  0  0
    1.3683   55.0775   29.5797 C   0  0  0  0  0  0
    1.5826   56.0965   30.0816 N   0  0  0  0  0  0
   -0.0955   52.9657   30.8886 N   0  0  0  0  0  0
    1.9736   51.0726   21.1031 H   0  0  0  0  0  0
    1.5312   52.7120   21.5661 H   0  0  0  0  0  0
    3.0735   52.0326   22.0808 H   0  0  0  0  0  0
    1.8552   50.3273   23.4738 H   0  0  0  0  0  0
    0.3227   50.9924   22.9603 H   0  0  0  0  0  0
    0.9109   53.1822   24.0593 H   0  0  0  0  0  0
    2.4464   52.5206   24.5280 H   0  0  0  0  0  0
    3.1126   54.8897   25.4412 H   0  0  0  0  0  0
    5.7284   54.9607   25.6110 H   0  0  0  0  0  0
    2.9550   51.8086   29.4245 H   0  0  0  0  0  0
    4.6895   51.6966   29.5723 H   0  0  0  0  0  0
    3.8372   53.0158   30.3501 H   0  0  0  0  0  0
    0.1073   53.7705   31.4613 H   0  0  0  0  0  0
   -0.5424   52.1797   31.3509 H   0  0  0  0  0  0
  1  2  1  0  0  0
  1 24  1  0  0  0
  1 25  1  0  0  0
  1 26  1  0  0  0
  2  3  1  0  0  0
  2 27  1  0  0  0
  2 28  1  0  0  0
  3  4  1  0  0  0
  3 29  1  0  0  0
  3 30  1  0  0  0
  4  9  2  0  0  0
  4  5  1  0  0  0
  5 13  1  0  0  0
  5  6  2  0  0  0
  6  7  1  0  0  0
  6 10  1  0  0  0
  7  8  1  0  0  0
  7  9  1  0  0  0
 10 11  1  0  0  0
 11 12  2  0  0  0
 11 23  1  0  0  0
 12 13  1  0  0  0
 12 21  1  0  0  0
 13 14  1  0  0  0
 13 15  1  0  0  0
 15 19  2  0  0  0
 15 16  1  0  0  0
 16 17  2  0  0  0
 16 31  1  0  0  0
 17 18  1  0  0  0
 17 32  1  0  0  0
 18 19  1  0  0  0
 19 20  1  0  0  0
 20 33  1  0  0  0
 20 34  1  0  0  0
 20 35  1  0  0  0
 21 22  3  0  0  0
 23 36  1  0  0  0
 23 37  1  0  0  0
M  END
> <i_i_glide_confnum>
5

> <i_i_glide_lignum>
1779

> <i_i_glide_posenum>
74

> <i_i_glide_rotatable_bonds>
4

> <i_m_Source_File_Index>
3987

> <b_m_subgroup_collapsed>
0

> <r_i_docking_score>
-6.67187

> <r_i_glide_ecoul>
-4.2004

> <r_i_glide_eff_state_penalty>
0

> <r_i_glide_einternal>
2.67807

> <r_i_glide_emodel>
-53.1133

> <r_i_glide_energy>
-38.9016

> <r_i_glide_erotb>
0.40743

> <r_i_glide_esite>
-0.175591

> <r_i_glide_evdw>
-34.7012

> <r_i_glide_gscore>
-6.67187

> <r_i_glide_hbond>
-0.255752

> <r_i_glide_ligand_efficiency>
-0.317708

> <r_i_glide_ligand_efficiency_ln>
-1.64961

> <r_i_glide_ligand_efficiency_sa>
-0.876532

> <r_i_glide_lipo>
-2.40621

> <r_i_glide_metal>
0

> <r_i_glide_rewards>
-1.87662

> <s_i_glide_gridfile>
wee1_glide-grid

> <s_m_Source_File>
wee1_decoys_glide_SP.sdf

> <s_m_Source_Path>
/Users/zhangxujun/Desktop

> <s_m_entry_id>
4262

> <s_m_entry_name>
wee1_decoys_glide_SP.3987

> <s_m_subgroup_title>
wee1_decoys_glide_SP

> <s_m_subgroupid>
wee1_decoys_glide_SP


$$$$
