@<TRIPOS>MOLECULE
ZINC48599713_1599
31   31    1
SMALL
USER_CHARGES


@<TRIPOS>ATOM
      1 C1          6.7534   55.5757   24.4816 C.3       1 UNK         0.0000 
      2 N2          5.6555   54.7718   25.0366 N.am      1 UNK         0.0000 
      3 C3          4.5731   54.4229   24.0851 C.3       1 UNK         0.0000 
      4 C4          5.0036   53.9116   22.6919 C.3       1 UNK         0.0000 
      5 F5          5.5412   54.8689   21.9356 F         1 UNK         0.0000 
      6 F6          3.9475   53.4361   22.0352 F         1 UNK         0.0000 
      7 F7          5.8946   52.9273   22.7877 F         1 UNK         0.0000 
      8 C8          5.6033   54.5029   26.3711 C.2       1 UNK         0.0000 
      9 O9          6.5412   54.7672   27.1264 O.2       1 UNK         0.0000 
     10 C10         4.3164   53.8813   26.9497 C.3       1 UNK         0.0000 
     11 S11         4.2320   53.7106   28.7661 S.3       1 UNK         0.0000 
     12 C12         2.6381   53.0329   29.1451 C.ar      1 UNK         0.0000 
     13 N13         2.3097   52.9502   30.4611 N.ar      1 UNK         0.0000 
     14 C14         1.0626   52.4968   30.7449 C.ar      1 UNK         0.0000 
     15 C15         0.1668   52.0966   29.7562 C.ar      1 UNK         0.0000 
     16 C16         0.6181   52.1642   28.4407 C.ar      1 UNK         0.0000 
     17 N17         1.8397   52.6530   28.1116 N.ar      1 UNK         0.0000 
     18 N18        -0.1871   51.6966   27.4122 N.pl3     1 UNK         0.0000 
     19 N19         0.7044   52.3965   32.0817 N.pl3     1 UNK         0.0000 
     20 H20         7.2753   55.0325   23.6936 H         1 UNK         0.0000 
     21 H21         6.3554   56.4963   24.0574 H         1 UNK         0.0000 
     22 H22         7.5019   55.8647   25.2189 H         1 UNK         0.0000 
     23 H23         3.9288   55.2917   23.9588 H         1 UNK         0.0000 
     24 H24         3.9254   53.6526   24.5000 H         1 UNK         0.0000 
     25 H25         3.4679   54.4945   26.6464 H         1 UNK         0.0000 
     26 H26         4.1893   52.8948   26.5168 H         1 UNK         0.0000 
     27 H27        -0.8083   51.7019   30.0042 H         1 UNK         0.0000 
     28 H28        -0.9861   51.1268   27.6571 H         1 UNK         0.0000 
     29 H29         0.2015   51.6705   26.4826 H         1 UNK         0.0000 
     30 H30        -0.2434   52.0969   32.3567 H         1 UNK         0.0000 
     31 H31         1.3937   52.5768   32.7962 H         1 UNK         0.0000 
@<TRIPOS>BOND
     1    1    2 1    
     2    1   20 1    
     3    1   21 1    
     4    1   22 1    
     5    2    3 1    
     6    2    8 am   BACKBONE|DICT|INTERRES
     7    3    4 1    
     8    3   23 1    
     9    3   24 1    
    10    4    5 1    
    11    4    6 1    
    12    4    7 1    
    13    8    9 2    
    14    8   10 1    
    15   10   11 1    
    16   10   25 1    
    17   10   26 1    
    18   11   12 1    
    19   12   17 ar   
    20   12   13 ar   
    21   13   14 ar   
    22   14   15 ar   
    23   14   19 1    
    24   15   16 ar   
    25   15   27 1    
    26   16   17 ar   
    27   16   18 1    
    28   18   28 1    
    29   18   29 1    
    30   19   30 1    
    31   19   31 1    
@<TRIPOS>SUBSTRUCTURE
     1 UNK         1 GROUP             0       ****    0 ROOT    
