@<TRIPOS>MOLECULE
ZINC39686645_5555
73   76    1
SMALL
USER_CHARGES


@<TRIPOS>ATOM
      1 C1          0.2699   50.3278   20.0096 C.3       1 UNK         0.0000 
      2 C2          0.8531   51.4065   20.9536 C.3       1 UNK         0.0000 
      3 H3          0.8677   52.3531   20.4047 H         1 UNK         0.0000 
      4 C4          2.3083   51.0407   21.3559 C.3       1 UNK         0.0000 
      5 C5          3.2639   52.2288   21.4289 C.ar      1 UNK         0.0000 
      6 C6          4.2033   52.3916   20.4068 C.ar      1 UNK         0.0000 
      7 C7          5.1045   53.4481   20.4236 C.ar      1 UNK         0.0000 
      8 C8          5.1000   54.3410   21.4861 C.ar      1 UNK         0.0000 
      9 C9          4.1745   54.1870   22.5153 C.ar      1 UNK         0.0000 
     10 C10         3.2315   53.1435   22.4954 C.ar      1 UNK         0.0000 
     11 O11         2.2900   52.9600   23.4932 O.3       1 UNK         0.0000 
     12 C12         2.1809   53.9468   24.5153 C.3       1 UNK         0.0000 
     13 N13         0.0479   51.6128   22.1629 N.am      1 UNK         0.0000 
     14 C14        -1.2789   51.7990   22.2735 C.2       1 UNK         0.0000 
     15 O15        -2.0114   51.9342   21.2916 O.2       1 UNK         0.0000 
     16 C16        -1.8649   51.8112   23.7134 C.3       1 UNK         0.0000 
     17 H17        -1.8212   52.8492   24.0494 H         1 UNK         0.0000 
     18 C18        -3.3695   51.4512   23.6300 C.3       1 UNK         0.0000 
     19 N19        -3.6940   51.0085   24.9902 N.am      1 UNK         0.0000 
     20 C20        -2.4747   50.7834   25.7679 C.3       1 UNK         0.0000 
     21 C21        -1.3011   50.8127   24.7662 C.3       1 UNK         0.0000 
     22 C22         0.0168   51.2484   25.4479 C.3       1 UNK         0.0000 
     23 C23         0.3652   50.3272   26.6361 C.3       1 UNK         0.0000 
     24 N24         0.5463   48.8972   26.0814 N.4       1 UNK         0.0000 
     25 C25        -0.6565   48.3610   25.2771 C.3       1 UNK         0.0000 
     26 C26        -1.0130   49.3880   24.1839 C.3       1 UNK         0.0000 
     27 C27        -4.9639   51.1070   25.4714 C.2       1 UNK         0.0000 
     28 O28        -5.8982   51.4479   24.7421 O.2       1 UNK         0.0000 
     29 C29        -5.2475   50.9059   26.9488 C.ar      1 UNK         0.0000 
     30 C30        -4.6353   49.9105   27.7229 C.ar      1 UNK         0.0000 
     31 C31        -4.8433   49.8497   29.0975 C.ar      1 UNK         0.0000 
     32 C32        -5.7288   50.7347   29.7300 C.ar      1 UNK         0.0000 
     33 C33        -6.4437   51.6529   28.9463 C.ar      1 UNK         0.0000 
     34 C34        -6.1880   51.7366   27.5719 C.ar      1 UNK         0.0000 
     35 C35        -7.4894   52.5612   29.5915 C.3       1 UNK         0.0000 
     36 F36        -8.4260   51.8287   30.1940 F         1 UNK         0.0000 
     37 F37        -6.8997   53.3334   30.5018 F         1 UNK         0.0000 
     38 F38        -8.0953   53.3520   28.7053 F         1 UNK         0.0000 
     39 O39        -5.9475   50.7501   31.0951 O.3       1 UNK         0.0000 
     40 C40        -5.1439   49.9345   31.9389 C.3       1 UNK         0.0000 
     41 H41         0.9376   50.1513   19.1656 H         1 UNK         0.0000 
     42 H42         0.1482   49.3731   20.5189 H         1 UNK         0.0000 
     43 H43        -0.6843   50.6279   19.5781 H         1 UNK         0.0000 
     44 H44         2.7247   50.3336   20.6355 H         1 UNK         0.0000 
     45 H45         2.3378   50.5024   22.3045 H         1 UNK         0.0000 
     46 H46         4.2493   51.6940   19.5906 H         1 UNK         0.0000 
     47 H47         5.8169   53.5605   19.6190 H         1 UNK         0.0000 
     48 H48         5.8065   55.1562   21.5104 H         1 UNK         0.0000 
     49 H49         4.2031   54.8965   23.3266 H         1 UNK         0.0000 
     50 H50         1.3594   53.7154   25.1843 H         1 UNK         0.0000 
     51 H51         3.0880   54.0049   25.1189 H         1 UNK         0.0000 
     52 H52         1.9677   54.9205   24.0799 H         1 UNK         0.0000 
     53 H53         0.5953   51.7080   23.0052 H         1 UNK         0.0000 
     54 H54        -3.9396   52.3212   23.2957 H         1 UNK         0.0000 
     55 H55        -3.4947   50.5875   22.9726 H         1 UNK         0.0000 
     56 H56        -2.4394   49.9284   26.4299 H         1 UNK         0.0000 
     57 H57        -2.3739   51.6481   26.4270 H         1 UNK         0.0000 
     58 H58         0.8458   51.3137   24.7457 H         1 UNK         0.0000 
     59 H59        -0.1192   52.2497   25.8580 H         1 UNK         0.0000 
     60 H60         1.2990   50.5979   27.1306 H         1 UNK         0.0000 
     61 H61        -0.4152   50.2683   27.3953 H         1 UNK         0.0000 
     62 H62         1.3763   48.8459   25.5042 H         1 UNK         0.0000 
     63 H63        -0.3325   47.4064   24.8636 H         1 UNK         0.0000 
     64 H64        -1.4530   48.1611   25.9953 H         1 UNK         0.0000 
     65 H65        -1.9031   49.0144   23.6753 H         1 UNK         0.0000 
     66 H66        -0.2357   49.3947   23.4213 H         1 UNK         0.0000 
     67 H67        -3.9933   49.1599   27.2910 H         1 UNK         0.0000 
     68 H68        -4.2980   49.1002   29.6540 H         1 UNK         0.0000 
     69 H69        -6.7125   52.4739   26.9784 H         1 UNK         0.0000 
     70 H70        -5.4259   50.1002   32.9783 H         1 UNK         0.0000 
     71 H71        -5.2984   48.8788   31.7118 H         1 UNK         0.0000 
     72 H72        -4.0830   50.1679   31.8447 H         1 UNK         0.0000 
     73 H73         0.6977   48.2477   26.8488 H         1 UNK         0.0000 
@<TRIPOS>BOND
     1    1    2 1    
     2    1   41 1    
     3    1   42 1    
     4    1   43 1    
     5    2    3 1    
     6    2    4 1    
     7    2   13 1    
     8    4    5 1    
     9    4   44 1    
    10    4   45 1    
    11    5   10 ar   
    12    5    6 ar   
    13    6    7 ar   
    14    6   46 1    
    15    7    8 ar   
    16    7   47 1    
    17    8    9 ar   
    18    8   48 1    
    19    9   10 ar   
    20    9   49 1    
    21   10   11 1    
    22   11   12 1    
    23   12   50 1    
    24   12   51 1    
    25   12   52 1    
    26   13   14 am   BACKBONE|DICT|INTERRES
    27   13   53 1    
    28   14   15 2    
    29   14   16 1    
    30   16   17 1    
    31   16   21 1    
    32   16   18 1    
    33   18   19 1    
    34   18   54 1    
    35   18   55 1    
    36   19   20 1    
    37   19   27 am   BACKBONE|DICT|INTERRES
    38   20   21 1    
    39   20   56 1    
    40   20   57 1    
    41   21   26 1    
    42   21   22 1    
    43   22   23 1    
    44   22   58 1    
    45   22   59 1    
    46   23   24 1    
    47   23   60 1    
    48   23   61 1    
    49   24   25 1    
    50   24   62 1    
    51   24   73 1    
    52   25   26 1    
    53   25   63 1    
    54   25   64 1    
    55   26   65 1    
    56   26   66 1    
    57   27   28 2    
    58   27   29 1    
    59   29   34 ar   
    60   29   30 ar   
    61   30   31 ar   
    62   30   67 1    
    63   31   32 ar   
    64   31   68 1    
    65   32   33 ar   
    66   32   39 1    
    67   33   34 ar   
    68   33   35 1    
    69   34   69 1    
    70   35   36 1    
    71   35   37 1    
    72   35   38 1    
    73   39   40 1    
    74   40   70 1    
    75   40   71 1    
    76   40   72 1    
@<TRIPOS>SUBSTRUCTURE
     1 UNK         1 GROUP             0       ****    0 ROOT    
