ZINC08964117_110
                    3D
 Schrodinger Suite 2024-2.
 61 64  0  0  1  0            999 V2000
   -0.7669   50.7783   24.7249 C   0  0  0  0  0  0
    0.0810   50.7662   23.5368 N   0  0  0  0  0  0
    0.6649   49.4453   23.3668 C   0  0  0  0  0  0
    1.7263   49.6181   22.2944 C   0  0  0  0  0  0
    2.0140   51.0911   22.4213 C   0  0  0  0  0  0
    1.0552   51.7152   23.2241 C   0  0  0  0  0  0
    1.1067   53.0918   23.4336 C   0  0  0  0  0  0
    2.1484   53.8367   22.8823 C   0  0  0  0  0  0
    3.1210   53.2247   22.0822 C   0  0  0  0  0  0
    3.0329   51.8461   21.8386 C   0  0  0  0  0  0
    4.3140   54.0466   21.5696 C   0  0  1  0  0  0
    4.1223   55.0947   21.8064 H   0  0  0  0  0  0
    5.6498   53.6601   22.2633 C   0  0  0  0  0  0
    5.5576   53.7001   23.7230 N   0  0  0  0  0  0
    6.0324   54.6661   24.5412 C   0  0  0  0  0  0
    6.7046   55.6198   24.1515 O   0  0  0  0  0  0
    5.6710   54.4966   25.9756 C   0  0  0  0  0  0
    6.4672   54.7713   26.8765 O   0  0  0  0  0  0
    4.3870   54.0974   26.1495 N   0  0  0  0  0  0
    3.6702   53.8109   27.3208 C   0  0  0  0  0  0
    2.2886   53.6941   27.1621 C   0  0  0  0  0  0
    1.4825   53.3902   28.2506 C   0  0  0  0  0  0
    2.0497   53.1802   29.5106 C   0  0  0  0  0  0
    3.4382   53.2807   29.6676 C   0  0  0  0  0  0
    4.2488   53.6013   28.5788 C   0  0  0  0  0  0
    1.1467   52.8123   30.6886 C   0  0  0  0  0  0
    0.6906   53.9280   31.2536 F   0  0  0  0  0  0
    1.8077   52.1014   31.6039 F   0  0  0  0  0  0
    0.0989   52.0973   30.2771 F   0  0  0  0  0  0
    5.4212   55.1606   19.4434 C   0  0  0  0  0  0
    5.4431   54.8199   17.9582 C   0  0  0  0  0  0
    5.3566   53.2969   17.9087 C   0  0  0  0  0  0
    4.7185   52.8469   19.2288 C   0  0  0  0  0  0
   -0.1861   50.5880   25.6288 H   0  0  0  0  0  0
   -1.2564   51.7464   24.8326 H   0  0  0  0  0  0
   -1.5469   50.0185   24.6579 H   0  0  0  0  0  0
    1.1046   49.0808   24.2982 H   0  0  0  0  0  0
   -0.0975   48.7201   23.0791 H   0  0  0  0  0  0
    1.3240   49.3728   21.3115 H   0  0  0  0  0  0
    2.5821   48.9695   22.4837 H   0  0  0  0  0  0
    0.3412   53.5877   24.0109 H   0  0  0  0  0  0
    2.1930   54.8963   23.0790 H   0  0  0  0  0  0
    3.7789   51.3453   21.2421 H   0  0  0  0  0  0
    6.4746   54.2884   21.9354 H   0  0  0  0  0  0
    5.9040   52.6343   22.0067 H   0  0  0  0  0  0
    5.0788   52.9185   24.1508 H   0  0  0  0  0  0
    3.8373   54.0121   25.3075 H   0  0  0  0  0  0
    1.8252   53.8404   26.1967 H   0  0  0  0  0  0
    0.4149   53.3037   28.1093 H   0  0  0  0  0  0
    3.9012   53.1051   30.6277 H   0  0  0  0  0  0
    5.3166   53.6647   28.7273 H   0  0  0  0  0  0
    5.1044   56.1763   19.6836 H   0  0  0  0  0  0
    6.3878   54.9811   19.9151 H   0  0  0  0  0  0
    4.5865   55.2747   17.4572 H   0  0  0  0  0  0
    6.3441   55.1957   17.4680 H   0  0  0  0  0  0
    6.3488   52.8517   17.8151 H   0  0  0  0  0  0
    4.7785   52.9495   17.0511 H   0  0  0  0  0  0
    5.4184   52.2418   19.8063 H   0  0  0  0  0  0
    3.7837   52.2984   19.0951 H   0  0  0  0  0  0
    4.4131   54.1427   20.0182 N   0  3  0  0  0  0
    3.4895   54.4489   19.7219 H   0  0  0  0  0  0
  1  2  1  0  0  0
  1 34  1  0  0  0
  1 35  1  0  0  0
  1 36  1  0  0  0
  2  6  1  0  0  0
  2  3  1  0  0  0
  3  4  1  0  0  0
  3 37  1  0  0  0
  3 38  1  0  0  0
  4  5  1  0  0  0
  4 39  1  0  0  0
  4 40  1  0  0  0
  5 10  2  0  0  0
  5  6  1  0  0  0
  6  7  2  0  0  0
  7  8  1  0  0  0
  7 41  1  0  0  0
  8  9  2  0  0  0
  8 42  1  0  0  0
  9 10  1  0  0  0
  9 11  1  0  0  0
 10 43  1  0  0  0
 11 12  1  0  0  0
 11 13  1  0  0  0
 11 60  1  0  0  0
 13 14  1  0  0  0
 13 44  1  0  0  0
 13 45  1  0  0  0
 14 15  1  0  0  0
 14 46  1  0  0  0
 15 16  2  0  0  0
 15 17  1  0  0  0
 17 18  2  0  0  0
 17 19  1  0  0  0
 19 20  1  0  0  0
 19 47  1  0  0  0
 20 25  2  0  0  0
 20 21  1  0  0  0
 21 22  2  0  0  0
 21 48  1  0  0  0
 22 23  1  0  0  0
 22 49  1  0  0  0
 23 24  2  0  0  0
 23 26  1  0  0  0
 24 25  1  0  0  0
 24 50  1  0  0  0
 25 51  1  0  0  0
 26 27  1  0  0  0
 26 28  1  0  0  0
 26 29  1  0  0  0
 30 31  1  0  0  0
 30 52  1  0  0  0
 30 53  1  0  0  0
 30 60  1  0  0  0
 31 32  1  0  0  0
 31 54  1  0  0  0
 31 55  1  0  0  0
 32 33  1  0  0  0
 32 56  1  0  0  0
 32 57  1  0  0  0
 33 58  1  0  0  0
 33 59  1  0  0  0
 33 60  1  0  0  0
 60 61  1  0  0  0
M  CHG  1  60   1
M  END
> <i_i_glide_confnum>
64

> <i_i_glide_lignum>
111

> <i_i_glide_posenum>
341

> <i_i_glide_rotatable_bonds>
9

> <i_m_Source_File_Index>
66

> <b_m_subgroup_collapsed>
0

> <r_i_docking_score>
-5.42378

> <r_i_glide_ecoul>
-1.14765

> <r_i_glide_eff_state_penalty>
0

> <r_i_glide_einternal>
12.8258

> <r_i_glide_emodel>
-59.4227

> <r_i_glide_energy>
-48.5437

> <r_i_glide_erotb>
0.756371

> <r_i_glide_esite>
-0.128511

> <r_i_glide_evdw>
-47.3961

> <r_i_glide_gscore>
-5.42378

> <r_i_glide_hbond>
0

> <r_i_glide_ligand_efficiency>
-0.164357

> <r_i_glide_ligand_efficiency_ln>
-1.20622

> <r_i_glide_ligand_efficiency_sa>
-0.527181

> <r_i_glide_lipo>
-2.235

> <r_i_glide_metal>
0

> <r_i_glide_rewards>
-1.27469

> <s_i_glide_gridfile>
wee1_glide-grid

> <s_m_Source_File>
wee1_decoys_glide_SP.sdf

> <s_m_Source_Path>
/Users/zhangxujun/Desktop

> <s_m_entry_id>
341

> <s_m_entry_name>
wee1_decoys_glide_SP.66

> <s_m_subgroup_title>
wee1_decoys_glide_SP

> <s_m_subgroupid>
wee1_decoys_glide_SP


$$$$
