@<TRIPOS>MOLECULE
ZINC59121210_3492
62   65    1
SMALL
USER_CHARGES


@<TRIPOS>ATOM
      1 C1         -2.4476   47.6381   22.6062 C.ar      1 UNK         0.0000 
      2 C2         -2.9558   48.9268   22.4589 C.ar      1 UNK         0.0000 
      3 C3         -2.7030   49.8830   23.4380 C.ar      1 UNK         0.0000 
      4 C4         -1.9374   49.5521   24.5605 C.ar      1 UNK         0.0000 
      5 C5         -1.4389   48.2520   24.7069 C.ar      1 UNK         0.0000 
      6 C6         -1.6936   47.2971   23.7270 C.ar      1 UNK         0.0000 
      7 C7         -1.6543   50.6134   25.6280 C.3       1 UNK         0.0000 
      8 H8         -2.0321   51.5817   25.3030 H         1 UNK         0.0000 
      9 C9         -0.1329   50.7720   26.0013 C.3       1 UNK         0.0000 
     10 H10         0.1938   49.8296   26.4440 H         1 UNK         0.0000 
     11 C11         0.2334   51.8087   27.1057 C.ar      1 UNK         0.0000 
     12 C12         1.1685   52.8293   26.8766 C.ar      1 UNK         0.0000 
     13 C13         1.5045   53.7445   27.8712 C.ar      1 UNK         0.0000 
     14 C14         0.9233   53.6393   29.1304 C.ar      1 UNK         0.0000 
     15 C15         0.0362   52.6050   29.4059 C.ar      1 UNK         0.0000 
     16 C16        -0.2935   51.6966   28.4037 C.ar      1 UNK         0.0000 
     17 N17         0.7044   50.8958   24.7614 N.pl3     1 UNK         0.0000 
     18 S18         0.3068   52.0700   23.4915 S.o2      1 UNK         0.0000 
     19 O19        -0.2052   51.3227   22.3382 O.2       1 UNK         0.0000 
     20 O20        -0.4714   53.1645   24.0822 O.2       1 UNK         0.0000 
     21 C21         1.8832   52.7608   22.9974 C.ar      1 UNK         0.0000 
     22 C22         2.3522   53.9176   23.6190 C.ar      1 UNK         0.0000 
     23 C23         3.5995   54.4226   23.2812 C.ar      1 UNK         0.0000 
     24 C24         4.3553   53.8117   22.2839 C.ar      1 UNK         0.0000 
     25 C25         3.8767   52.6751   21.6340 C.ar      1 UNK         0.0000 
     26 C26         2.6416   52.1407   21.9991 C.ar      1 UNK         0.0000 
     27 Cl27        5.8873   54.4831   21.8547 Cl        1 UNK         0.0000 
     28 N28        -2.4952   50.3353   26.8821 N.4       1 UNK         0.0000 
     29 C29        -4.0251   50.2336   26.7533 C.3       1 UNK         0.0000 
     30 C30        -4.5276   49.7833   28.1452 C.3       1 UNK         0.0000 
     31 C31        -6.0633   49.7978   28.2541 C.3       1 UNK         0.0000 
     32 C32        -6.6463   51.1748   27.8786 C.3       1 UNK         0.0000 
     33 C33        -6.1509   51.6540   26.5006 C.3       1 UNK         0.0000 
     34 C34        -4.6128   51.6222   26.3956 C.3       1 UNK         0.0000 
     35 H35        -2.6378   46.8999   21.8414 H         1 UNK         0.0000 
     36 H36        -3.5368   49.1863   21.5853 H         1 UNK         0.0000 
     37 H37        -3.0915   50.8830   23.3137 H         1 UNK         0.0000 
     38 H38        -0.8563   47.9781   25.5765 H         1 UNK         0.0000 
     39 H39        -1.3000   46.2979   23.8333 H         1 UNK         0.0000 
     40 H40         1.6622   52.9126   25.9271 H         1 UNK         0.0000 
     41 H41         2.2203   54.5275   27.6674 H         1 UNK         0.0000 
     42 H42         1.1823   54.3458   29.9059 H         1 UNK         0.0000 
     43 H43        -0.3823   52.4942   30.3974 H         1 UNK         0.0000 
     44 H44        -0.9369   50.8827   28.6874 H         1 UNK         0.0000 
     45 H45         0.8444   49.9695   24.3480 H         1 UNK         0.0000 
     46 H46         1.7638   54.4268   24.3686 H         1 UNK         0.0000 
     47 H47         3.9718   55.2963   23.7903 H         1 UNK         0.0000 
     48 H48         4.4607   52.2044   20.8546 H         1 UNK         0.0000 
     49 H49         2.2795   51.2492   21.5052 H         1 UNK         0.0000 
     50 H50        -2.3051   51.0754   27.5401 H         1 UNK         0.0000 
     51 H51        -4.3169   49.4660   26.0335 H         1 UNK         0.0000 
     52 H52        -4.1396   50.4650   28.9056 H         1 UNK         0.0000 
     53 H53        -4.1020   48.8151   28.4201 H         1 UNK         0.0000 
     54 H54        -6.3673   49.5283   29.2662 H         1 UNK         0.0000 
     55 H55        -6.4806   49.0323   27.5982 H         1 UNK         0.0000 
     56 H56        -6.3682   51.9057   28.6382 H         1 UNK         0.0000 
     57 H57        -7.7363   51.1335   27.8898 H         1 UNK         0.0000 
     58 H58        -6.5173   52.6623   26.3048 H         1 UNK         0.0000 
     59 H59        -6.5792   51.0214   25.7208 H         1 UNK         0.0000 
     60 H60        -4.2741   51.9516   25.4139 H         1 UNK         0.0000 
     61 H61        -4.2110   52.3682   27.0831 H         1 UNK         0.0000 
     62 H62        -2.1493   49.4922   27.3526 H         1 UNK         0.0000 
@<TRIPOS>BOND
     1    1    6 ar   
     2    1    2 ar   
     3    1   35 1    
     4    2    3 ar   
     5    2   36 1    
     6    3    4 ar   
     7    3   37 1    
     8    4    5 ar   
     9    4    7 1    
    10    5    6 ar   
    11    5   38 1    
    12    6   39 1    
    13    7    8 1    
    14    7    9 1    
    15    7   28 1    
    16    9   10 1    
    17    9   11 1    
    18    9   17 1    
    19   11   16 ar   
    20   11   12 ar   
    21   12   13 ar   
    22   12   40 1    
    23   13   14 ar   
    24   13   41 1    
    25   14   15 ar   
    26   14   42 1    
    27   15   16 ar   
    28   15   43 1    
    29   16   44 1    
    30   17   18 1    
    31   17   45 1    
    32   18   19 2    
    33   18   20 2    
    34   18   21 1    
    35   21   26 ar   
    36   21   22 ar   
    37   22   23 ar   
    38   22   46 1    
    39   23   24 ar   
    40   23   47 1    
    41   24   25 ar   
    42   24   27 1    
    43   25   26 ar   
    44   25   48 1    
    45   26   49 1    
    46   28   29 1    
    47   28   50 1    
    48   28   62 1    
    49   29   34 1    
    50   29   30 1    
    51   29   51 1    
    52   30   31 1    
    53   30   52 1    
    54   30   53 1    
    55   31   32 1    
    56   31   54 1    
    57   31   55 1    
    58   32   33 1    
    59   32   56 1    
    60   32   57 1    
    61   33   34 1    
    62   33   58 1    
    63   33   59 1    
    64   34   60 1    
    65   34   61 1    
@<TRIPOS>SUBSTRUCTURE
     1 UNK         1 GROUP             0       ****    0 ROOT    
