@<TRIPOS>MOLECULE
ZINC02852761_5374
67   70    1
SMALL
USER_CHARGES


@<TRIPOS>ATOM
      1 C1          0.6247   52.8893   31.4521 C.3       1 UNK         0.0000 
      2 C2          0.1253   52.5707   30.0566 C.ar      1 UNK         0.0000 
      3 C3         -0.8952   51.6390   29.8691 C.ar      1 UNK         0.0000 
      4 C4         -1.3216   51.2993   28.5840 C.ar      1 UNK         0.0000 
      5 C5         -0.7550   51.9458   27.4817 C.ar      1 UNK         0.0000 
      6 C6          0.2615   52.8821   27.6754 C.ar      1 UNK         0.0000 
      7 C7          0.7084   53.1904   28.9546 C.ar      1 UNK         0.0000 
      8 S8         -1.3347   51.6031   25.8125 S.o2      1 UNK         0.0000 
      9 O9         -1.6967   52.8906   25.2082 O.2       1 UNK         0.0000 
     10 O10        -2.3262   50.5240   25.8835 O.2       1 UNK         0.0000 
     11 N11         0.0702   50.9699   24.9125 N.pl3     1 UNK         0.0000 
     12 C12         0.5827   49.6909   25.4004 C.3       1 UNK         0.0000 
     13 C13         0.0932   51.1145   23.5070 C.ar      1 UNK         0.0000 
     14 C14        -0.6927   50.2440   22.7385 C.ar      1 UNK         0.0000 
     15 C15        -0.6924   50.3186   21.3481 C.ar      1 UNK         0.0000 
     16 C16         0.0912   51.2686   20.7031 C.ar      1 UNK         0.0000 
     17 C17         0.8652   52.1524   21.4472 C.ar      1 UNK         0.0000 
     18 C18         0.8747   52.1005   22.8509 C.ar      1 UNK         0.0000 
     19 C19         1.6992   53.1082   23.6150 C.2       1 UNK         0.0000 
     20 O20         1.2175   53.6971   24.5747 O.2       1 UNK         0.0000 
     21 N21         2.9534   53.2955   23.1620 N.am      1 UNK         0.0000 
     22 C22         4.0485   53.9655   23.7543 C.ar      1 UNK         0.0000 
     23 C23         4.0773   54.2895   25.1237 C.ar      1 UNK         0.0000 
     24 C24         5.1929   54.8995   25.6904 C.ar      1 UNK         0.0000 
     25 C25         6.3037   55.1850   24.9043 C.ar      1 UNK         0.0000 
     26 C26         6.3028   54.8613   23.5516 C.ar      1 UNK         0.0000 
     27 C27         5.1795   54.2599   22.9532 C.ar      1 UNK         0.0000 
     28 C28         5.1999   53.9757   21.4661 C.2       1 UNK         0.0000 
     29 O29         4.7082   52.9443   21.0043 O.2       1 UNK         0.0000 
     30 N30         5.7580   54.9329   20.7072 N.am      1 UNK         0.0000 
     31 C31         5.8870   54.9322   19.2513 C.3       1 UNK         0.0000 
     32 H32         6.3809   54.0030   18.9531 H         1 UNK         0.0000 
     33 C33         4.5156   54.9541   18.5360 C.3       1 UNK         0.0000 
     34 C34         6.8268   56.0716   18.8440 C.ar      1 UNK         0.0000 
     35 C35         6.3359   57.3197   18.4387 C.ar      1 UNK         0.0000 
     36 C36         7.2161   58.3312   18.0624 C.ar      1 UNK         0.0000 
     37 C37         8.5888   58.0945   18.0814 C.ar      1 UNK         0.0000 
     38 C38         9.0892   56.8569   18.4786 C.ar      1 UNK         0.0000 
     39 C39         8.2094   55.8474   18.8603 C.ar      1 UNK         0.0000 
     40 H40         0.3059   52.1383   32.1739 H         1 UNK         0.0000 
     41 H41         1.7147   52.8967   31.4717 H         1 UNK         0.0000 
     42 H42         0.2687   53.8672   31.7772 H         1 UNK         0.0000 
     43 H43        -1.3370   51.1409   30.7258 H         1 UNK         0.0000 
     44 H44        -2.0948   50.5544   28.4542 H         1 UNK         0.0000 
     45 H45         0.7078   53.3771   26.8354 H         1 UNK         0.0000 
     46 H46         1.5039   53.9111   29.0851 H         1 UNK         0.0000 
     47 H47         1.5026   49.4072   24.8880 H         1 UNK         0.0000 
     48 H48         0.7927   49.7427   26.4703 H         1 UNK         0.0000 
     49 H49        -0.1462   48.8942   25.2471 H         1 UNK         0.0000 
     50 H50        -1.3067   49.4995   23.2254 H         1 UNK         0.0000 
     51 H51        -1.2983   49.6346   20.7727 H         1 UNK         0.0000 
     52 H52         0.0961   51.3249   19.6241 H         1 UNK         0.0000 
     53 H53         1.4482   52.8945   20.9154 H         1 UNK         0.0000 
     54 H54         3.1842   52.8592   22.2775 H         1 UNK         0.0000 
     55 H55         3.2515   54.0560   25.7758 H         1 UNK         0.0000 
     56 H56         5.1997   55.1397   26.7446 H         1 UNK         0.0000 
     57 H57         7.1690   55.6556   25.3431 H         1 UNK         0.0000 
     58 H58         7.1894   55.0896   22.9739 H         1 UNK         0.0000 
     59 H59         6.2080   55.6960   21.1824 H         1 UNK         0.0000 
     60 H60         4.6364   55.0510   17.4570 H         1 UNK         0.0000 
     61 H61         3.9573   54.0332   18.7142 H         1 UNK         0.0000 
     62 H62         3.8900   55.7753   18.8810 H         1 UNK         0.0000 
     63 H63         5.2748   57.5213   18.4142 H         1 UNK         0.0000 
     64 H64         6.8325   59.2934   17.7491 H         1 UNK         0.0000 
     65 H65         9.2695   58.8781   17.7841 H         1 UNK         0.0000 
     66 H66        10.1564   56.6781   18.4928 H         1 UNK         0.0000 
     67 H67         8.6075   54.8912   19.1701 H         1 UNK         0.0000 
@<TRIPOS>BOND
     1    1    2 1    
     2    1   40 1    
     3    1   41 1    
     4    1   42 1    
     5    2    7 ar   
     6    2    3 ar   
     7    3    4 ar   
     8    3   43 1    
     9    4    5 ar   
    10    4   44 1    
    11    5    6 ar   
    12    5    8 1    
    13    6    7 ar   
    14    6   45 1    
    15    7   46 1    
    16    8    9 2    
    17    8   10 2    
    18    8   11 1    
    19   11   12 1    
    20   11   13 1    
    21   12   47 1    
    22   12   48 1    
    23   12   49 1    
    24   13   18 ar   
    25   13   14 ar   
    26   14   15 ar   
    27   14   50 1    
    28   15   16 ar   
    29   15   51 1    
    30   16   17 ar   
    31   16   52 1    
    32   17   18 ar   
    33   17   53 1    
    34   18   19 1    
    35   19   20 2    
    36   19   21 am   BACKBONE|DICT|INTERRES
    37   21   22 1    
    38   21   54 1    
    39   22   27 ar   
    40   22   23 ar   
    41   23   24 ar   
    42   23   55 1    
    43   24   25 ar   
    44   24   56 1    
    45   25   26 ar   
    46   25   57 1    
    47   26   27 ar   
    48   26   58 1    
    49   27   28 1    
    50   28   29 2    
    51   28   30 am   BACKBONE|DICT|INTERRES
    52   30   31 1    
    53   30   59 1    
    54   31   32 1    
    55   31   33 1    
    56   31   34 1    
    57   33   60 1    
    58   33   61 1    
    59   33   62 1    
    60   34   39 ar   
    61   34   35 ar   
    62   35   36 ar   
    63   35   63 1    
    64   36   37 ar   
    65   36   64 1    
    66   37   38 ar   
    67   37   65 1    
    68   38   39 ar   
    69   38   66 1    
    70   39   67 1    
@<TRIPOS>SUBSTRUCTURE
     1 UNK         1 GROUP             0       ****    0 ROOT    
