@<TRIPOS>MOLECULE
ZINC20570674_5040
53   56    1
SMALL
USER_CHARGES


@<TRIPOS>ATOM
      1 C1         -2.0141   57.1856   16.6263 C.3       1 UNK         0.0000 
      2 C2         -1.5519   55.7646   16.8941 C.ar      1 UNK         0.0000 
      3 C3         -2.4884   54.7331   17.0132 C.ar      1 UNK         0.0000 
      4 C4         -2.0592   53.4387   17.2893 C.ar      1 UNK         0.0000 
      5 C5         -0.6943   53.1697   17.4244 C.ar      1 UNK         0.0000 
      6 C6          0.2413   54.1961   17.2818 C.ar      1 UNK         0.0000 
      7 C7         -0.1888   55.4950   17.0234 C.ar      1 UNK         0.0000 
      8 S8         -0.1372   51.4985   17.7555 S.o2      1 UNK         0.0000 
      9 O9          1.1149   51.2951   17.0232 O.2       1 UNK         0.0000 
     10 O10        -1.2879   50.6128   17.5361 O.2       1 UNK         0.0000 
     11 N11         0.1971   51.4072   19.5027 N.pl3     1 UNK         0.0000 
     12 C12         1.3094   51.9565   20.1610 C.ar      1 UNK         0.0000 
     13 C13         2.5936   51.9830   19.6041 C.ar      1 UNK         0.0000 
     14 C14         3.6643   52.4994   20.3330 C.ar      1 UNK         0.0000 
     15 C15         3.4720   52.9715   21.6322 C.ar      1 UNK         0.0000 
     16 C16         2.1972   52.9320   22.2253 C.ar      1 UNK         0.0000 
     17 C17         1.1271   52.4226   21.4671 C.ar      1 UNK         0.0000 
     18 C18         1.9525   53.3914   23.6499 C.2       1 UNK         0.0000 
     19 O19         0.8144   53.6978   24.0118 O.2       1 UNK         0.0000 
     20 N20         3.0440   53.4597   24.4425 N.am      1 UNK         0.0000 
     21 C21         3.1181   53.6952   25.8183 C.2       1 UNK         0.0000 
     22 C22         2.1571   53.2832   26.8244 C.ar      1 UNK         0.0000 
     23 C23         0.9771   52.5074   26.7286 C.ar      1 UNK         0.0000 
     24 C24         0.2102   52.2341   27.8595 C.ar      1 UNK         0.0000 
     25 C25         0.5881   52.7075   29.1063 C.ar      1 UNK         0.0000 
     26 C26         1.7574   53.4428   29.2664 C.ar      1 UNK         0.0000 
     27 C27         2.5430   53.7005   28.1337 C.ar      1 UNK         0.0000 
     28 S28         4.0992   54.4949   28.1318 S.3       1 UNK         0.0000 
     29 C29         4.2588   54.2829   26.3949 C.2       1 UNK         0.0000 
     30 C30         5.5398   54.7310   25.8029 C.2       1 UNK         0.0000 
     31 O31         6.4895   55.1695   26.4618 O.2       1 UNK         0.0000 
     32 O32         5.5470   54.5953   24.4551 O.3       1 UNK         0.0000 
     33 C33         6.7046   54.9193   23.7028 C.3       1 UNK         0.0000 
     34 H34        -3.0669   57.3240   16.8832 H         1 UNK         0.0000 
     35 H35        -1.4415   57.8922   17.2318 H         1 UNK         0.0000 
     36 H36        -1.8643   57.4436   15.5740 H         1 UNK         0.0000 
     37 H37        -3.5434   54.9314   16.8830 H         1 UNK         0.0000 
     38 H38        -2.7861   52.6478   17.3771 H         1 UNK         0.0000 
     39 H39         1.2987   53.9913   17.3846 H         1 UNK         0.0000 
     40 H40         0.5372   56.2888   16.9318 H         1 UNK         0.0000 
     41 H41        -0.6154   51.2263   20.0714 H         1 UNK         0.0000 
     42 H42         2.7997   51.5855   18.6217 H         1 UNK         0.0000 
     43 H43         4.6495   52.5094   19.8892 H         1 UNK         0.0000 
     44 H44         4.3288   53.3656   22.1588 H         1 UNK         0.0000 
     45 H45         0.1389   52.3740   21.9054 H         1 UNK         0.0000 
     46 H46         3.9287   53.5463   23.9639 H         1 UNK         0.0000 
     47 H47         0.6533   52.0935   25.7853 H         1 UNK         0.0000 
     48 H48        -0.6862   51.6367   27.7692 H         1 UNK         0.0000 
     49 H49        -0.0230   52.4727   29.9686 H         1 UNK         0.0000 
     50 H50         2.0611   53.7775   30.2448 H         1 UNK         0.0000 
     51 H51         6.4795   54.8841   22.6367 H         1 UNK         0.0000 
     52 H52         7.0727   55.9200   23.9377 H         1 UNK         0.0000 
     53 H53         7.5020   54.2020   23.9039 H         1 UNK         0.0000 
@<TRIPOS>BOND
     1    1    2 1    
     2    1   34 1    
     3    1   35 1    
     4    1   36 1    
     5    2    7 ar   
     6    2    3 ar   
     7    3    4 ar   
     8    3   37 1    
     9    4    5 ar   
    10    4   38 1    
    11    5    6 ar   
    12    5    8 1    
    13    6    7 ar   
    14    6   39 1    
    15    7   40 1    
    16    8    9 2    
    17    8   10 2    
    18    8   11 1    
    19   11   12 1    
    20   11   41 1    
    21   12   17 ar   
    22   12   13 ar   
    23   13   14 ar   
    24   13   42 1    
    25   14   15 ar   
    26   14   43 1    
    27   15   16 ar   
    28   15   44 1    
    29   16   17 ar   
    30   16   18 1    
    31   17   45 1    
    32   18   19 2    
    33   18   20 am   BACKBONE|DICT|INTERRES
    34   20   21 1    
    35   20   46 1    
    36   21   29 2    
    37   21   22 1    
    38   22   27 ar   
    39   22   23 ar   
    40   23   24 ar   
    41   23   47 1    
    42   24   25 ar   
    43   24   48 1    
    44   25   26 ar   
    45   25   49 1    
    46   26   27 ar   
    47   26   50 1    
    48   27   28 1    
    49   28   29 1    
    50   29   30 1    
    51   30   31 2    
    52   30   32 1    
    53   32   33 1    
    54   33   51 1    
    55   33   52 1    
    56   33   53 1    
@<TRIPOS>SUBSTRUCTURE
     1 UNK         1 GROUP             0       ****    0 ROOT    
