@<TRIPOS>MOLECULE
ZINC15230737_1995
54   56    1
SMALL
USER_CHARGES


@<TRIPOS>ATOM
      1 C1         -0.6470   48.4537   21.9220 C.3       1 UNK         0.0000 
      2 C2         -1.1120   49.4562   22.9595 C.2       1 UNK         0.0000 
      3 C3         -1.9634   50.4558   22.6416 C.2       1 UNK         0.0000 
      4 C4         -2.5248   51.4771   23.6270 C.3       1 UNK         0.0000 
      5 C5         -2.3951   50.9917   25.1236 C.3       1 UNK         0.0000 
      6 C6         -0.9299   50.4200   25.3424 C.3       1 UNK         0.0000 
      7 H7         -0.8499   50.0061   26.3513 H         1 UNK         0.0000 
      8 C8         -0.6407   49.2118   24.3954 C.3       1 UNK         0.0000 
      9 C9          0.2116   51.4682   25.3449 C.ar      1 UNK         0.0000 
     10 C10         0.8324   51.8813   24.1578 C.ar      1 UNK         0.0000 
     11 C11         1.8795   52.8000   24.1900 C.ar      1 UNK         0.0000 
     12 C12         2.3249   53.2981   25.4113 C.ar      1 UNK         0.0000 
     13 C13         1.7202   52.8980   26.6000 C.ar      1 UNK         0.0000 
     14 C14         0.6734   51.9816   26.5662 C.ar      1 UNK         0.0000 
     15 Br15        3.8049   54.4965   25.4615 Br        1 UNK         0.0000 
     16 C16        -3.4928   49.9138   25.4399 C.2       1 UNK         0.0000 
     17 O17        -4.5232   49.8753   24.7544 O.2       1 UNK         0.0000 
     18 N18        -3.2963   49.0671   26.4815 N.am      1 UNK         0.0000 
     19 N19        -4.2433   48.0646   26.8079 N.pl3     1 UNK         0.0000 
     20 C20        -4.5342   46.9831   25.9725 C.2       1 UNK         0.0000 
     21 C21        -5.1133   45.7992   26.3000 C.2       1 UNK         0.0000 
     22 C22        -5.4842   45.4546   27.6814 C.2       1 UNK         0.0000 
     23 O23        -5.2920   46.0967   28.7133 O.2       1 UNK         0.0000 
     24 O24        -6.0921   44.2456   27.8730 O.3       1 UNK         0.0000 
     25 C25        -6.6479   43.5434   26.7799 C.3       1 UNK         0.0000 
     26 O26        -5.8920   43.6280   25.5893 O.3       1 UNK         0.0000 
     27 C27        -5.2951   44.8022   25.2398 C.2       1 UNK         0.0000 
     28 O28        -4.8966   44.8613   24.0759 O.2       1 UNK         0.0000 
     29 C29        -8.0604   44.0754   26.5172 C.3       1 UNK         0.0000 
     30 C30        -6.5862   42.0753   27.1796 C.3       1 UNK         0.0000 
     31 C31        -2.6846   52.1898   26.0806 C.2       1 UNK         0.0000 
     32 O32        -3.3085   53.1859   25.6429 O.co2     1 UNK         0.0000 
     33 H33        -0.9206   47.4432   22.2266 H         1 UNK         0.0000 
     34 H34        -1.0923   48.6388   20.9429 H         1 UNK         0.0000 
     35 H35         0.4356   48.5014   21.8091 H         1 UNK         0.0000 
     36 H36        -2.2684   50.5448   21.6093 H         1 UNK         0.0000 
     37 H37        -1.9819   52.4091   23.4656 H         1 UNK         0.0000 
     38 H38        -3.5594   51.7068   23.3626 H         1 UNK         0.0000 
     39 H39         0.4137   48.9295   24.4089 H         1 UNK         0.0000 
     40 H40        -1.1797   48.3284   24.7424 H         1 UNK         0.0000 
     41 H41         0.5166   51.5029   23.1977 H         1 UNK         0.0000 
     42 H42         2.3575   53.1106   23.2715 H         1 UNK         0.0000 
     43 H43         2.0736   53.2849   27.5439 H         1 UNK         0.0000 
     44 H44         0.2159   51.6736   27.4963 H         1 UNK         0.0000 
     45 H45        -2.4315   48.9869   27.0139 H         1 UNK         0.0000 
     46 H46        -4.4820   48.0910   27.7966 H         1 UNK         0.0000 
     47 H47        -4.2612   47.1725   24.9411 H         1 UNK         0.0000 
     48 H48        -8.0406   45.1320   26.2514 H         1 UNK         0.0000 
     49 H49        -8.5146   43.5167   25.6990 H         1 UNK         0.0000 
     50 H50        -8.6719   43.9507   27.4124 H         1 UNK         0.0000 
     51 H51        -5.5533   41.7755   27.3662 H         1 UNK         0.0000 
     52 H52        -7.1693   41.9027   28.0845 H         1 UNK         0.0000 
     53 H53        -6.9905   41.4474   26.3856 H         1 UNK         0.0000 
     54 O54        -2.2982   52.0875   27.2669 O.co2     1 UNK         0.0000 
@<TRIPOS>BOND
     1    1    2 1    
     2    1   33 1    
     3    1   34 1    
     4    1   35 1    
     5    2    8 1    
     6    2    3 2    
     7    3    4 1    
     8    3   36 1    
     9    4    5 1    
    10    4   37 1    
    11    4   38 1    
    12    5    6 1    
    13    5   16 1    
    14    5   31 1    
    15    6    7 1    
    16    6    8 1    
    17    6    9 1    
    18    8   39 1    
    19    8   40 1    
    20    9   14 ar   
    21    9   10 ar   
    22   10   11 ar   
    23   10   41 1    
    24   11   12 ar   
    25   11   42 1    
    26   12   13 ar   
    27   12   15 1    
    28   13   14 ar   
    29   13   43 1    
    30   14   44 1    
    31   16   17 2    
    32   16   18 am   BACKBONE|DICT|INTERRES
    33   18   19 1    
    34   18   45 1    
    35   19   20 1    
    36   19   46 1    
    37   20   21 2    
    38   20   47 1    
    39   21   27 1    
    40   21   22 1    
    41   22   23 2    
    42   22   24 1    
    43   24   25 1    
    44   25   26 1    
    45   25   29 1    
    46   25   30 1    
    47   26   27 1    
    48   27   28 2    
    49   29   48 1    
    50   29   49 1    
    51   29   50 1    
    52   30   51 1    
    53   30   52 1    
    54   30   53 1    
    55   31   32 2    
    56   31   54 1    
@<TRIPOS>SUBSTRUCTURE
     1 UNK         1 GROUP             0       ****    0 ROOT    
