@<TRIPOS>MOLECULE
ZINC19909371_2354
51   53    1
SMALL
USER_CHARGES


@<TRIPOS>ATOM
      1 C1         -4.6098   43.2996   20.7370 C.3       1 UNK         0.0000 
      2 C2         -3.9903   44.4206   21.5528 C.ar      1 UNK         0.0000 
      3 C3         -4.7516   45.0921   22.5092 C.ar      1 UNK         0.0000 
      4 C4         -4.1804   46.1191   23.2562 C.ar      1 UNK         0.0000 
      5 C5         -2.8395   46.4822   23.0628 C.ar      1 UNK         0.0000 
      6 C6         -2.0956   45.8184   22.0817 C.ar      1 UNK         0.0000 
      7 C7         -2.6648   44.7945   21.3280 C.ar      1 UNK         0.0000 
      8 C8         -2.1913   47.5184   23.8730 C.2       1 UNK         0.0000 
      9 N9         -2.8310   48.4115   24.5155 N.2       1 UNK         0.0000 
     10 N10        -2.0253   49.1759   25.2813 N.am      1 UNK         0.0000 
     11 C11        -2.4548   50.2516   25.9747 C.2       1 UNK         0.0000 
     12 O12        -3.6056   50.6962   25.9244 O.2       1 UNK         0.0000 
     13 C13        -1.4222   50.8967   26.8723 C.ar      1 UNK         0.0000 
     14 C14        -0.0507   50.7884   26.6018 C.ar      1 UNK         0.0000 
     15 C15         0.8785   51.3078   27.4939 C.ar      1 UNK         0.0000 
     16 C16         0.4580   51.9768   28.6491 C.ar      1 UNK         0.0000 
     17 C17        -0.8955   52.0947   28.9171 C.ar      1 UNK         0.0000 
     18 C18        -1.8316   51.5641   28.0313 C.ar      1 UNK         0.0000 
     19 N19         1.3323   52.4894   29.6201 N.am      1 UNK         0.0000 
     20 C20         2.5511   53.0405   29.4738 C.2       1 UNK         0.0000 
     21 O21         3.2102   53.2968   30.4810 O.2       1 UNK         0.0000 
     22 N22         2.9427   53.2891   28.2011 N.am      1 UNK         0.0000 
     23 C23         4.2150   53.6200   27.7093 C.ar      1 UNK         0.0000 
     24 C24         5.3762   53.5223   28.4817 C.ar      1 UNK         0.0000 
     25 C25         6.6144   53.8560   27.9515 C.ar      1 UNK         0.0000 
     26 C26         6.7049   54.2406   26.6206 C.ar      1 UNK         0.0000 
     27 C27         5.5776   54.2647   25.8009 C.ar      1 UNK         0.0000 
     28 C28         4.3219   53.9845   26.3612 C.ar      1 UNK         0.0000 
     29 C29         5.7680   54.5656   24.3184 C.3       1 UNK         0.0000 
     30 F30         4.6200   54.4968   23.6417 F         1 UNK         0.0000 
     31 F31         6.3043   55.7774   24.1899 F         1 UNK         0.0000 
     32 F32         6.6178   53.6962   23.7759 F         1 UNK         0.0000 
     33 H33        -5.6879   43.4308   20.6432 H         1 UNK         0.0000 
     34 H34        -4.2066   43.2930   19.7229 H         1 UNK         0.0000 
     35 H35        -4.4096   42.3321   21.2011 H         1 UNK         0.0000 
     36 H36        -5.7844   44.8218   22.6779 H         1 UNK         0.0000 
     37 H37        -4.7844   46.6228   23.9988 H         1 UNK         0.0000 
     38 H38        -1.0675   46.0931   21.8934 H         1 UNK         0.0000 
     39 H39        -2.0760   44.2965   20.5727 H         1 UNK         0.0000 
     40 H40        -1.1033   47.4533   23.8807 H         1 UNK         0.0000 
     41 H41        -1.0710   48.8600   25.3667 H         1 UNK         0.0000 
     42 H42         0.3143   50.2730   25.7252 H         1 UNK         0.0000 
     43 H43         1.9215   51.1586   27.2878 H         1 UNK         0.0000 
     44 H44        -1.2361   52.5665   29.8267 H         1 UNK         0.0000 
     45 H45        -2.8813   51.6357   28.2785 H         1 UNK         0.0000 
     46 H46         0.9604   52.5097   30.5587 H         1 UNK         0.0000 
     47 H47         2.2242   53.1962   27.5001 H         1 UNK         0.0000 
     48 H48         5.3280   53.1577   29.4882 H         1 UNK         0.0000 
     49 H49         7.5009   53.8030   28.5665 H         1 UNK         0.0000 
     50 H50         7.6658   54.4965   26.2076 H         1 UNK         0.0000 
     51 H51         3.4356   54.0128   25.7418 H         1 UNK         0.0000 
@<TRIPOS>BOND
     1    1    2 1    
     2    1   33 1    
     3    1   34 1    
     4    1   35 1    
     5    2    7 ar   
     6    2    3 ar   
     7    3    4 ar   
     8    3   36 1    
     9    4    5 ar   
    10    4   37 1    
    11    5    6 ar   
    12    5    8 1    
    13    6    7 ar   
    14    6   38 1    
    15    7   39 1    
    16    8    9 2    
    17    8   40 1    
    18    9   10 1    
    19   10   11 am   BACKBONE|DICT|INTERRES
    20   10   41 1    
    21   11   12 2    
    22   11   13 1    
    23   13   18 ar   
    24   13   14 ar   
    25   14   15 ar   
    26   14   42 1    
    27   15   16 ar   
    28   15   43 1    
    29   16   17 ar   
    30   16   19 1    
    31   17   18 ar   
    32   17   44 1    
    33   18   45 1    
    34   19   20 am   BACKBONE|DICT|INTERRES
    35   19   46 1    
    36   20   21 2    
    37   20   22 am   BACKBONE|DICT|INTERRES
    38   22   23 1    
    39   22   47 1    
    40   23   28 ar   
    41   23   24 ar   
    42   24   25 ar   
    43   24   48 1    
    44   25   26 ar   
    45   25   49 1    
    46   26   27 ar   
    47   26   50 1    
    48   27   28 ar   
    49   27   29 1    
    50   28   51 1    
    51   29   30 1    
    52   29   31 1    
    53   29   32 1    
@<TRIPOS>SUBSTRUCTURE
     1 UNK         1 GROUP             0       ****    0 ROOT    
