@<TRIPOS>MOLECULE
ZINC00887337_5761
75   79    1
SMALL
USER_CHARGES


@<TRIPOS>ATOM
      1 C1          6.7765   55.8861   19.4229 C.3       1 UNK         0.0000 
      2 C2          5.8278   54.8171   19.9315 C.ar      1 UNK         0.0000 
      3 C3          5.4856   54.7839   21.2828 C.ar      1 UNK         0.0000 
      4 C4          4.6041   53.8133   21.7540 C.ar      1 UNK         0.0000 
      5 C5          4.0701   52.8568   20.8810 C.ar      1 UNK         0.0000 
      6 C6          4.4219   52.8973   19.5278 C.ar      1 UNK         0.0000 
      7 C7          5.2918   53.8750   19.0528 C.ar      1 UNK         0.0000 
      8 C8          3.1622   51.7807   21.3964 C.ar      1 UNK         0.0000 
      9 N9          3.0707   50.5835   20.8350 N.2       1 UNK         0.0000 
     10 N10         2.2557   49.8356   21.6605 N.2       1 UNK         0.0000 
     11 N11         1.9313   50.6890   22.6322 N.pl3     1 UNK         0.0000 
     12 N12         2.4280   51.9225   22.4818 N.2       1 UNK         0.0000 
     13 C13         1.1051   50.3185   23.7766 C.3       1 UNK         0.0000 
     14 C14        -0.4136   50.3267   23.5072 C.2       1 UNK         0.0000 
     15 O15        -0.8000   50.0533   22.3686 O.2       1 UNK         0.0000 
     16 N16        -1.2901   50.6294   24.5126 N.am      1 UNK         0.0000 
     17 C17        -0.8448   50.7569   25.9185 C.3       1 UNK         0.0000 
     18 C18        -0.5240   52.2195   26.3014 C.3       1 UNK         0.0000 
     19 C19         0.1273   52.3531   27.6773 C.ar      1 UNK         0.0000 
     20 C20        -0.6148   51.9628   28.7976 C.ar      1 UNK         0.0000 
     21 C21        -0.0931   52.0967   30.0815 C.ar      1 UNK         0.0000 
     22 C22         1.1887   52.6079   30.2626 C.ar      1 UNK         0.0000 
     23 C23         1.9449   52.9918   29.1560 C.ar      1 UNK         0.0000 
     24 C24         1.4255   52.8738   27.8604 C.ar      1 UNK         0.0000 
     25 C25         2.2888   53.3267   26.6905 C.3       1 UNK         0.0000 
     26 C26        -2.7643   50.5165   24.2849 C.3       1 UNK         0.0000 
     27 H27        -2.9495   50.5553   23.2103 H         1 UNK         0.0000 
     28 C28        -3.4888   51.7445   24.8226 C.ar      1 UNK         0.0000 
     29 C29        -4.2320   51.7690   26.0152 C.ar      1 UNK         0.0000 
     30 C30        -4.8969   52.9414   26.3784 C.ar      1 UNK         0.0000 
     31 N31        -4.8376   54.0843   25.6495 N.ar      1 UNK         0.0000 
     32 C32        -4.0960   54.0635   24.5150 C.ar      1 UNK         0.0000 
     33 C33        -3.4073   52.9304   24.0811 C.ar      1 UNK         0.0000 
     34 C34        -3.3599   49.1103   24.6107 C.2       1 UNK         0.0000 
     35 O35        -4.4543   49.0013   25.1597 O.2       1 UNK         0.0000 
     36 N36        -2.5990   48.0562   24.2586 N.am      1 UNK         0.0000 
     37 C37        -2.7880   46.6351   24.5754 C.3       1 UNK         0.0000 
     38 C38        -2.4802   46.3047   26.0408 C.3       1 UNK         0.0000 
     39 C39        -3.8290   46.3248   26.7591 C.3       1 UNK         0.0000 
     40 C40        -4.8682   45.9182   25.6994 C.3       1 UNK         0.0000 
     41 C41        -4.1985   46.0724   24.3175 C.3       1 UNK         0.0000 
     42 H42         6.4844   56.8627   19.8123 H         1 UNK         0.0000 
     43 H43         7.7947   55.6815   19.7574 H         1 UNK         0.0000 
     44 H44         6.7636   55.9562   18.3339 H         1 UNK         0.0000 
     45 H45         5.9046   55.5053   21.9682 H         1 UNK         0.0000 
     46 H46         4.3523   53.7959   22.8045 H         1 UNK         0.0000 
     47 H47         4.0319   52.1596   18.8396 H         1 UNK         0.0000 
     48 H48         5.5533   53.8847   18.0048 H         1 UNK         0.0000 
     49 H49         1.3658   50.9962   24.5850 H         1 UNK         0.0000 
     50 H50         1.3939   49.3124   24.0842 H         1 UNK         0.0000 
     51 H51        -1.6471   50.3910   26.5624 H         1 UNK         0.0000 
     52 H52         0.0212   50.1196   26.1071 H         1 UNK         0.0000 
     53 H53         0.0872   52.6833   25.5300 H         1 UNK         0.0000 
     54 H54        -1.4424   52.8062   26.3285 H         1 UNK         0.0000 
     55 H55        -1.6078   51.5518   28.6787 H         1 UNK         0.0000 
     56 H56        -0.6833   51.7872   30.9327 H         1 UNK         0.0000 
     57 H57         1.5910   52.7021   31.2607 H         1 UNK         0.0000 
     58 H58         2.9382   53.3879   29.3092 H         1 UNK         0.0000 
     59 H59         3.2474   53.7354   27.0127 H         1 UNK         0.0000 
     60 H60         2.4882   52.4968   26.0152 H         1 UNK         0.0000 
     61 H61         1.7754   54.0965   26.1164 H         1 UNK         0.0000 
     62 H62        -4.3065   50.9015   26.6536 H         1 UNK         0.0000 
     63 H63        -5.4957   52.9742   27.2758 H         1 UNK         0.0000 
     64 H64        -4.0559   54.9813   23.9476 H         1 UNK         0.0000 
     65 H65        -2.8325   52.9646   23.1673 H         1 UNK         0.0000 
     66 H66        -1.7214   48.2830   23.8145 H         1 UNK         0.0000 
     67 H67        -2.0462   46.1653   23.9272 H         1 UNK         0.0000 
     68 H68        -1.7197   46.9500   26.4818 H         1 UNK         0.0000 
     69 H69        -2.0861   45.2968   26.1113 H         1 UNK         0.0000 
     70 H70        -4.0324   47.3292   27.1342 H         1 UNK         0.0000 
     71 H71        -3.8363   45.6580   27.6242 H         1 UNK         0.0000 
     72 H72        -5.7574   46.5453   25.7753 H         1 UNK         0.0000 
     73 H73        -5.1927   44.8886   25.8578 H         1 UNK         0.0000 
     74 H74        -4.1129   45.0833   23.8681 H         1 UNK         0.0000 
     75 H75        -4.7789   46.6748   23.6164 H         1 UNK         0.0000 
@<TRIPOS>BOND
     1    1    2 1    
     2    1   42 1    
     3    1   43 1    
     4    1   44 1    
     5    2    7 ar   
     6    2    3 ar   
     7    3    4 ar   
     8    3   45 1    
     9    4    5 ar   
    10    4   46 1    
    11    5    6 ar   
    12    5    8 1    
    13    6    7 ar   
    14    6   47 1    
    15    7   48 1    
    16    8   12 ar   
    17    8    9 ar   
    18    9   10 ar   
    19   10   11 ar   
    20   11   12 ar   
    21   11   13 1    
    22   13   14 1    
    23   13   49 1    
    24   13   50 1    
    25   14   15 2    
    26   14   16 am   BACKBONE|DICT|INTERRES
    27   16   17 1    
    28   16   26 1    
    29   17   18 1    
    30   17   51 1    
    31   17   52 1    
    32   18   19 1    
    33   18   53 1    
    34   18   54 1    
    35   19   24 ar   
    36   19   20 ar   
    37   20   21 ar   
    38   20   55 1    
    39   21   22 ar   
    40   21   56 1    
    41   22   23 ar   
    42   22   57 1    
    43   23   24 ar   
    44   23   58 1    
    45   24   25 1    
    46   25   59 1    
    47   25   60 1    
    48   25   61 1    
    49   26   27 1    
    50   26   28 1    
    51   26   34 1    
    52   28   33 ar   
    53   28   29 ar   
    54   29   30 ar   
    55   29   62 1    
    56   30   31 ar   
    57   30   63 1    
    58   31   32 ar   
    59   32   33 ar   
    60   32   64 1    
    61   33   65 1    
    62   34   35 2    
    63   34   36 am   BACKBONE|DICT|INTERRES
    64   36   37 1    
    65   36   66 1    
    66   37   41 1    
    67   37   38 1    
    68   37   67 1    
    69   38   39 1    
    70   38   68 1    
    71   38   69 1    
    72   39   40 1    
    73   39   70 1    
    74   39   71 1    
    75   40   41 1    
    76   40   72 1    
    77   40   73 1    
    78   41   74 1    
    79   41   75 1    
@<TRIPOS>SUBSTRUCTURE
     1 UNK         1 GROUP             0       ****    0 ROOT    
