@<TRIPOS>MOLECULE
ZINC01145028_3615
51   53    1
SMALL
USER_CHARGES


@<TRIPOS>ATOM
      1 C1          0.9655   49.2581   22.0813 C.3       1 UNK         0.0000 
      2 C2          0.0510   49.7525   23.2012 C.2       1 UNK         0.0000 
      3 C3          0.0853   50.9573   23.8470 C.2       1 UNK         0.0000 
      4 C4         -0.9605   51.2970   24.9639 C.3       1 UNK         0.0000 
      5 H5         -1.3781   52.2688   24.6917 H         1 UNK         0.0000 
      6 C6         -2.0990   50.2616   24.9945 C.2       1 UNK         0.0000 
      7 C7         -2.0146   49.0982   24.3114 C.2       1 UNK         0.0000 
      8 N8         -0.9567   48.8522   23.4735 N.pl3     1 UNK         0.0000 
      9 S9         -3.1596   47.7296   24.3023 S.3       1 UNK         0.0000 
     10 C10        -3.5694   47.4794   26.0611 C.3       1 UNK         0.0000 
     11 C11        -3.5358   46.0084   26.4798 C.2       1 UNK         0.0000 
     12 O12        -4.0976   45.1470   25.8078 O.2       1 UNK         0.0000 
     13 N13        -2.8747   45.6967   27.5912 N.am      1 UNK         0.0000 
     14 C14        -3.2437   50.5659   25.7930 C.1       1 UNK         0.0000 
     15 N15        -4.1700   50.8583   26.4223 N.1       1 UNK         0.0000 
     16 C16        -0.3857   51.5302   26.3683 C.ar      1 UNK         0.0000 
     17 C17         0.7044   50.7937   26.8205 C.ar      1 UNK         0.0000 
     18 C18         1.3257   51.1145   28.0268 C.ar      1 UNK         0.0000 
     19 C19         0.7965   52.1088   28.8375 C.ar      1 UNK         0.0000 
     20 C20        -0.3469   52.7885   28.4386 C.ar      1 UNK         0.0000 
     21 C21        -0.9348   52.4973   27.2073 C.ar      1 UNK         0.0000 
     22 Cl22        1.5606   52.4974   30.3360 Cl        1 UNK         0.0000 
     23 C23         1.1770   51.9449   23.5846 C.2       1 UNK         0.0000 
     24 O24         2.1863   51.6858   22.9242 O.2       1 UNK         0.0000 
     25 O25         0.9754   53.1752   24.1333 O.3       1 UNK         0.0000 
     26 C26         1.9356   54.2251   23.9489 C.3       1 UNK         0.0000 
     27 C27         3.0977   54.1423   24.9374 C.ar      1 UNK         0.0000 
     28 C28         2.8641   53.8724   26.2890 C.ar      1 UNK         0.0000 
     29 C29         3.9247   53.8488   27.1911 C.ar      1 UNK         0.0000 
     30 C30         5.2193   54.0985   26.7400 C.ar      1 UNK         0.0000 
     31 C31         5.4612   54.3701   25.3944 C.ar      1 UNK         0.0000 
     32 C32         4.3995   54.3875   24.4923 C.ar      1 UNK         0.0000 
     33 H33         1.2357   50.0579   21.3926 H         1 UNK         0.0000 
     34 H34         1.8813   48.8398   22.5004 H         1 UNK         0.0000 
     35 H35         0.4882   48.4967   21.4638 H         1 UNK         0.0000 
     36 H36        -0.9243   47.9523   23.0191 H         1 UNK         0.0000 
     37 H37        -2.8956   48.0590   26.6879 H         1 UNK         0.0000 
     38 H38        -4.5684   47.8734   26.2452 H         1 UNK         0.0000 
     39 H39        -2.3649   46.4237   28.0843 H         1 UNK         0.0000 
     40 H40        -2.8947   44.7375   27.9775 H         1 UNK         0.0000 
     41 H41         1.1042   49.9948   26.2132 H         1 UNK         0.0000 
     42 H42         2.1996   50.5668   28.3442 H         1 UNK         0.0000 
     43 H43        -0.7663   53.5484   29.0803 H         1 UNK         0.0000 
     44 H44        -1.8023   53.0553   26.8860 H         1 UNK         0.0000 
     45 H45         2.3118   54.2196   22.9238 H         1 UNK         0.0000 
     46 H46         1.4528   55.1901   24.0814 H         1 UNK         0.0000 
     47 H47         1.8592   53.6908   26.6397 H         1 UNK         0.0000 
     48 H48         3.7440   53.6364   28.2344 H         1 UNK         0.0000 
     49 H49         6.0424   54.0777   27.4395 H         1 UNK         0.0000 
     50 H50         6.4672   54.5581   25.0497 H         1 UNK         0.0000 
     51 H51         4.5899   54.5978   23.4496 H         1 UNK         0.0000 
@<TRIPOS>BOND
     1    1    2 1    
     2    1   33 1    
     3    1   34 1    
     4    1   35 1    
     5    2    8 1    
     6    2    3 2    
     7    3    4 1    
     8    3   23 1    
     9    4    5 1    
    10    4    6 1    
    11    4   16 1    
    12    6    7 2    
    13    6   14 1    
    14    7    8 1    
    15    7    9 1    
    16    8   36 1    
    17    9   10 1    
    18   10   11 1    
    19   10   37 1    
    20   10   38 1    
    21   11   12 2    
    22   11   13 am   BACKBONE|DICT|INTERRES
    23   13   39 1    
    24   13   40 1    
    25   14   15 3    
    26   16   21 ar   
    27   16   17 ar   
    28   17   18 ar   
    29   17   41 1    
    30   18   19 ar   
    31   18   42 1    
    32   19   20 ar   
    33   19   22 1    
    34   20   21 ar   
    35   20   43 1    
    36   21   44 1    
    37   23   24 2    
    38   23   25 1    
    39   25   26 1    
    40   26   27 1    
    41   26   45 1    
    42   26   46 1    
    43   27   32 ar   
    44   27   28 ar   
    45   28   29 ar   
    46   28   47 1    
    47   29   30 ar   
    48   29   48 1    
    49   30   31 ar   
    50   30   49 1    
    51   31   32 ar   
    52   31   50 1    
    53   32   51 1    
@<TRIPOS>SUBSTRUCTURE
     1 UNK         1 GROUP             0       ****    0 ROOT    
