ZINC12789683_2750
                    3D
 Schrodinger Suite 2024-2.
 44 47  0  0  1  0            999 V2000
    1.3091   55.3948   30.3347 C   0  0  0  0  0  0
    1.3467   53.9267   29.8588 C   0  0  1  0  0  0
    1.8541   53.3185   30.6115 H   0  0  0  0  0  0
   -0.0464   53.3243   29.6864 C   0  0  0  0  0  0
    0.0468   52.6551   28.3427 C   0  0  0  0  0  0
   -0.9183   51.8857   27.6832 C   0  0  0  0  0  0
   -0.6729   51.4097   26.3913 C   0  0  0  0  0  0
    0.5412   51.6968   25.7696 C   0  0  0  0  0  0
    1.5044   52.4538   26.4318 C   0  0  0  0  0  0
    1.2752   52.9226   27.7267 C   0  0  0  0  0  0
    2.0342   53.7424   28.5791 N   0  0  0  0  0  0
    3.4994   53.7458   28.7669 C   0  0  0  0  0  0
    4.3515   54.1645   27.5761 C   0  0  0  0  0  0
    3.9974   54.4245   26.3487 N   0  0  0  0  0  0
    5.1563   54.4725   25.7179 C   0  0  0  0  0  0
    6.2262   54.4304   26.4874 N   0  0  0  0  0  0
    5.6952   54.1975   27.7553 O   0  0  0  0  0  0
    5.2383   54.4967   24.2184 C   0  0  0  0  0  0
    4.1365   54.0967   23.4436 C   0  0  0  0  0  0
    4.2022   54.0957   22.0506 C   0  0  0  0  0  0
    5.3716   54.4970   21.4098 C   0  0  0  0  0  0
    6.4709   54.9066   22.1625 C   0  0  0  0  0  0
    6.4093   54.8959   23.5572 C   0  0  0  0  0  0
    8.0439   55.5174   21.2817 Br  0  0  0  0  0  0
   -1.9075   50.4649   25.5021 S   0  0  0  0  0  0
   -1.7631   50.8040   24.0824 O   0  0  0  0  0  0
   -3.1889   50.6384   26.1931 O   0  0  0  0  0  0
   -1.4217   48.8001   25.6817 N   0  0  0  0  0  0
    0.7761   55.4857   31.2819 H   0  0  0  0  0  0
    2.3044   55.8102   30.4813 H   0  0  0  0  0  0
    0.8015   56.0330   29.6113 H   0  0  0  0  0  0
   -0.8142   54.0968   29.6815 H   0  0  0  0  0  0
   -0.2642   52.6209   30.4930 H   0  0  0  0  0  0
   -1.8628   51.6665   28.1617 H   0  0  0  0  0  0
    0.7405   51.3385   24.7695 H   0  0  0  0  0  0
    2.4278   52.6350   25.9135 H   0  0  0  0  0  0
    3.7770   54.3708   29.6154 H   0  0  0  0  0  0
    3.7824   52.7294   29.0433 H   0  0  0  0  0  0
    3.2181   53.7815   23.9165 H   0  0  0  0  0  0
    3.3448   53.7912   21.4668 H   0  0  0  0  0  0
    5.4190   54.5056   20.3303 H   0  0  0  0  0  0
    7.2760   55.2141   24.1182 H   0  0  0  0  0  0
   -0.4959   48.6084   25.2969 H   0  0  0  0  0  0
   -1.4827   48.4966   26.6725 H   0  0  0  0  0  0
  1  2  1  0  0  0
  1 29  1  0  0  0
  1 30  1  0  0  0
  1 31  1  0  0  0
  2  3  1  0  0  0
  2 11  1  0  0  0
  2  4  1  0  0  0
  4  5  1  0  0  0
  4 32  1  0  0  0
  4 33  1  0  0  0
  5 10  2  0  0  0
  5  6  1  0  0  0
  6  7  2  0  0  0
  6 34  1  0  0  0
  7  8  1  0  0  0
  7 25  1  0  0  0
  8  9  2  0  0  0
  8 35  1  0  0  0
  9 10  1  0  0  0
  9 36  1  0  0  0
 10 11  1  0  0  0
 11 12  1  0  0  0
 12 13  1  0  0  0
 12 37  1  0  0  0
 12 38  1  0  0  0
 13 17  1  0  0  0
 13 14  2  0  0  0
 14 15  1  0  0  0
 15 16  2  0  0  0
 15 18  1  0  0  0
 16 17  1  0  0  0
 18 23  2  0  0  0
 18 19  1  0  0  0
 19 20  2  0  0  0
 19 39  1  0  0  0
 20 21  1  0  0  0
 20 40  1  0  0  0
 21 22  2  0  0  0
 21 41  1  0  0  0
 22 23  1  0  0  0
 22 24  1  0  0  0
 23 42  1  0  0  0
 25 26  2  0  0  0
 25 27  2  0  0  0
 25 28  1  0  0  0
 28 43  1  0  0  0
 28 44  1  0  0  0
M  END
> <i_i_glide_confnum>
2

> <i_i_glide_lignum>
2751

> <i_i_glide_posenum>
10

> <i_i_glide_rotatable_bonds>
4

> <i_m_Source_File_Index>
5558

> <b_m_subgroup_collapsed>
0

> <r_i_docking_score>
-6.92139

> <r_i_glide_ecoul>
-5.35528

> <r_i_glide_eff_state_penalty>
0

> <r_i_glide_einternal>
2.01624

> <r_i_glide_emodel>
-66.5478

> <r_i_glide_energy>
-47.5653

> <r_i_glide_erotb>
0.297784

> <r_i_glide_esite>
-0.185149

> <r_i_glide_evdw>
-42.2101

> <r_i_glide_gscore>
-6.92139

> <r_i_glide_hbond>
-0.16

> <r_i_glide_ligand_efficiency>
-0.256348

> <r_i_glide_ligand_efficiency_ln>
-1.61119

> <r_i_glide_ligand_efficiency_sa>
-0.769043

> <r_i_glide_lipo>
-2.895

> <r_i_glide_metal>
0

> <r_i_glide_rewards>
-1.06523

> <s_i_glide_gridfile>
wee1_glide-grid

> <s_m_Source_File>
wee1_decoys_glide_SP.sdf

> <s_m_Source_Path>
/Users/zhangxujun/Desktop

> <s_m_entry_id>
5833

> <s_m_entry_name>
wee1_decoys_glide_SP.5558

> <s_m_subgroup_title>
wee1_decoys_glide_SP

> <s_m_subgroupid>
wee1_decoys_glide_SP


$$$$
