@<TRIPOS>MOLECULE
ZINC62061085_1343
54   56    1
SMALL
USER_CHARGES


@<TRIPOS>ATOM
      1 C1         -5.5013   46.9291   30.9205 C.3       1 UNK         0.0000 
      2 C2         -5.5149   48.3401   30.3605 C.ar      1 UNK         0.0000 
      3 C3         -6.1600   49.3430   31.0959 C.ar      1 UNK         0.0000 
      4 C4         -6.1353   50.6685   30.6652 C.ar      1 UNK         0.0000 
      5 C5         -5.4672   51.0055   29.4914 C.ar      1 UNK         0.0000 
      6 C6         -4.8141   50.0211   28.7540 C.ar      1 UNK         0.0000 
      7 C7         -4.8388   48.6860   29.1709 C.ar      1 UNK         0.0000 
      8 N8         -4.0956   47.7948   28.3795 N.am      1 UNK         0.0000 
      9 C9         -4.5692   46.7316   27.6821 C.2       1 UNK         0.0000 
     10 O10        -5.6715   46.2174   27.9006 O.2       1 UNK         0.0000 
     11 C11        -3.7139   46.2437   26.5343 C.2       1 UNK         0.0000 
     12 O12        -4.0957   45.3281   25.7963 O.2       1 UNK         0.0000 
     13 N13        -2.5469   46.8915   26.3030 N.am      1 UNK         0.0000 
     14 C14        -1.7357   46.7528   25.0872 C.3       1 UNK         0.0000 
     15 C15        -1.1602   48.0659   24.5754 C.ar      1 UNK         0.0000 
     16 C16        -1.2998   48.4483   23.2347 C.ar      1 UNK         0.0000 
     17 C17        -0.7392   49.6523   22.7930 C.ar      1 UNK         0.0000 
     18 C18        -0.0366   50.4723   23.6911 C.ar      1 UNK         0.0000 
     19 N19         0.0572   50.0642   24.9763 N.pl3     1 UNK         0.0000 
     20 C20        -0.4584   48.9097   25.4396 C.ar      1 UNK         0.0000 
     21 N21         0.5444   51.7256   23.3041 N.pl3     1 UNK         0.0000 
     22 C22         0.9542   52.0329   21.9084 C.3       1 UNK         0.0000 
     23 C23         2.4236   52.5007   21.8588 C.3       1 UNK         0.0000 
     24 C24         2.6908   53.6872   22.7999 C.3       1 UNK         0.0000 
     25 C25         2.2527   53.2935   24.2210 C.3       1 UNK         0.0000 
     26 C26         0.7801   52.8403   24.2600 C.3       1 UNK         0.0000 
     27 C27         4.1642   54.1237   22.7561 C.3       1 UNK         0.0000 
     28 F28        -6.7422   51.6356   31.3896 F         1 UNK         0.0000 
     29 H29        -4.5136   46.4964   30.7752 H         1 UNK         0.0000 
     30 H30        -5.6957   46.9126   31.9926 H         1 UNK         0.0000 
     31 H31        -6.2473   46.3115   30.4229 H         1 UNK         0.0000 
     32 H32        -6.6672   49.1045   32.0187 H         1 UNK         0.0000 
     33 H33        -5.4468   52.0306   29.1564 H         1 UNK         0.0000 
     34 H34        -4.2837   50.3029   27.8556 H         1 UNK         0.0000 
     35 H35        -3.1307   48.0965   28.2291 H         1 UNK         0.0000 
     36 H36        -2.1806   47.5329   27.0096 H         1 UNK         0.0000 
     37 H37        -0.8953   46.0950   25.2852 H         1 UNK         0.0000 
     38 H38        -2.2963   46.2642   24.2866 H         1 UNK         0.0000 
     39 H39        -1.8382   47.8250   22.5355 H         1 UNK         0.0000 
     40 H40        -0.8697   49.9401   21.7601 H         1 UNK         0.0000 
     41 H41        -0.2783   48.6918   26.4819 H         1 UNK         0.0000 
     42 H42         0.8657   51.1377   21.2948 H         1 UNK         0.0000 
     43 H43         0.2614   52.7663   21.4946 H         1 UNK         0.0000 
     44 H44         3.0796   51.6665   22.1188 H         1 UNK         0.0000 
     45 H45         2.7062   52.7623   20.8382 H         1 UNK         0.0000 
     46 H46         2.0551   54.5160   22.4830 H         1 UNK         0.0000 
     47 H47         2.4130   54.1272   24.9067 H         1 UNK         0.0000 
     48 H48         2.8914   52.4967   24.6017 H         1 UNK         0.0000 
     49 H49         0.0877   53.6462   24.0079 H         1 UNK         0.0000 
     50 H50         0.5172   52.5337   25.2726 H         1 UNK         0.0000 
     51 H51         4.8375   53.2939   22.9727 H         1 UNK         0.0000 
     52 H52         4.4289   54.5191   21.7739 H         1 UNK         0.0000 
     53 H53         4.3682   54.8966   23.4942 H         1 UNK         0.0000 
     54 H54         0.5619   50.6531   25.6250 H         1 UNK         0.0000 
@<TRIPOS>BOND
     1    1    2 1    
     2    1   29 1    
     3    1   30 1    
     4    1   31 1    
     5    2    7 ar   
     6    2    3 ar   
     7    3    4 ar   
     8    3   32 1    
     9    4    5 ar   
    10    4   28 1    
    11    5    6 ar   
    12    5   33 1    
    13    6    7 ar   
    14    6   34 1    
    15    7    8 1    
    16    8    9 am   BACKBONE|DICT|INTERRES
    17    8   35 1    
    18    9   10 2    
    19    9   11 1    
    20   11   12 2    
    21   11   13 am   BACKBONE|DICT|INTERRES
    22   13   14 1    
    23   13   36 1    
    24   14   15 1    
    25   14   37 1    
    26   14   38 1    
    27   15   20 ar   
    28   15   16 ar   
    29   16   17 ar   
    30   16   39 1    
    31   17   18 ar   
    32   17   40 1    
    33   18   19 ar   
    34   18   21 1    
    35   19   20 ar   
    36   19   54 1    
    37   20   41 1    
    38   21   26 1    
    39   21   22 1    
    40   22   23 1    
    41   22   42 1    
    42   22   43 1    
    43   23   24 1    
    44   23   44 1    
    45   23   45 1    
    46   24   25 1    
    47   24   27 1    
    48   24   46 1    
    49   25   26 1    
    50   25   47 1    
    51   25   48 1    
    52   26   49 1    
    53   26   50 1    
    54   27   51 1    
    55   27   52 1    
    56   27   53 1    
@<TRIPOS>SUBSTRUCTURE
     1 UNK         1 GROUP             0       ****    0 ROOT    
