@<TRIPOS>MOLECULE
ZINC34969882_2975
69   71    1
SMALL
USER_CHARGES


@<TRIPOS>ATOM
      1 C1          0.7060   52.5624   31.6931 C.3       1 UNK         0.0000 
      2 C2          1.9631   52.8316   30.8525 C.3       1 UNK         0.0000 
      3 C3          1.9348   54.0914   29.9186 C.3       1 UNK         0.0000 
      4 H4          2.7518   54.7340   30.2566 H         1 UNK         0.0000 
      5 C5          0.7061   54.9962   30.1222 C.3       1 UNK         0.0000 
      6 C6          2.1807   53.7948   28.3920 C.3       1 UNK         0.0000 
      7 H7          1.8553   54.6647   27.8221 H         1 UNK         0.0000 
      8 C8          3.7181   53.5749   28.2110 C.2       1 UNK         0.0000 
      9 O9          4.2734   52.7742   28.9694 O.2       1 UNK         0.0000 
     10 N10         4.4240   54.3580   27.3481 N.am      1 UNK         0.0000 
     11 C11         3.8662   54.9570   26.1189 C.3       1 UNK         0.0000 
     12 C12         4.6165   54.3678   24.9081 C.3       1 UNK         0.0000 
     13 N13         6.0675   54.5594   25.0277 N.3       1 UNK         0.0000 
     14 C14         6.5944   53.9773   26.2689 C.3       1 UNK         0.0000 
     15 C15         5.8803   54.5044   27.5262 C.3       1 UNK         0.0000 
     16 C16         6.7333   53.9917   23.8557 C.3       1 UNK         0.0000 
     17 C17         6.6570   54.8528   22.6112 C.2       1 UNK         0.0000 
     18 C18         5.9994   54.4836   21.4955 C.2       1 UNK         0.0000 
     19 C19         5.9053   55.2316   20.2292 C.ar      1 UNK         0.0000 
     20 C20         4.8854   54.8993   19.3319 C.ar      1 UNK         0.0000 
     21 C21         4.7393   55.6112   18.1455 C.ar      1 UNK         0.0000 
     22 C22         5.6209   56.6477   17.8482 C.ar      1 UNK         0.0000 
     23 C23         6.6554   56.9706   18.7237 C.ar      1 UNK         0.0000 
     24 C24         6.8019   56.2599   19.9121 C.ar      1 UNK         0.0000 
     25 N25         1.3723   52.6436   27.9588 N.am      1 UNK         0.0000 
     26 C26         1.1043   52.2832   26.6964 C.2       1 UNK         0.0000 
     27 O27         1.4966   52.9133   25.7163 O.2       1 UNK         0.0000 
     28 N28         0.3727   51.1513   26.6361 N.am      1 UNK         0.0000 
     29 C29        -0.0764   50.4922   25.4745 C.ar      1 UNK         0.0000 
     30 C30        -0.2753   49.1131   25.5600 C.ar      1 UNK         0.0000 
     31 C31        -0.7053   48.3928   24.4473 C.ar      1 UNK         0.0000 
     32 C32        -0.9528   49.0483   23.2407 C.ar      1 UNK         0.0000 
     33 C33        -0.7815   50.4354   23.1404 C.ar      1 UNK         0.0000 
     34 C34        -0.3479   51.1477   24.2636 C.ar      1 UNK         0.0000 
     35 C35        -1.0516   51.1835   21.8356 C.3       1 UNK         0.0000 
     36 F36        -1.2814   50.3530   20.8147 F         1 UNK         0.0000 
     37 F37        -2.1234   51.9649   21.9859 F         1 UNK         0.0000 
     38 F38        -0.0068   51.9529   21.5196 F         1 UNK         0.0000 
     39 H39         0.8430   51.6825   32.3208 H         1 UNK         0.0000 
     40 H40         0.4684   53.3857   32.3668 H         1 UNK         0.0000 
     41 H41        -0.1647   52.3775   31.0604 H         1 UNK         0.0000 
     42 H42         2.1737   51.9291   30.2803 H         1 UNK         0.0000 
     43 H43         2.8189   52.8961   31.5253 H         1 UNK         0.0000 
     44 H44        -0.2178   54.4961   29.8339 H         1 UNK         0.0000 
     45 H45         0.6106   55.3144   31.1582 H         1 UNK         0.0000 
     46 H46         0.7886   55.9069   29.5275 H         1 UNK         0.0000 
     47 H47         4.0277   56.0322   26.0819 H         1 UNK         0.0000 
     48 H48         2.8032   54.7963   25.9907 H         1 UNK         0.0000 
     49 H49         4.2400   54.8415   23.9979 H         1 UNK         0.0000 
     50 H50         4.4046   53.2970   24.8661 H         1 UNK         0.0000 
     51 H51         6.4467   52.8969   26.2362 H         1 UNK         0.0000 
     52 H52         7.6456   54.2174   26.3819 H         1 UNK         0.0000 
     53 H53         6.2646   53.9888   28.4085 H         1 UNK         0.0000 
     54 H54         6.1154   55.5615   27.6576 H         1 UNK         0.0000 
     55 H55         6.4098   52.9703   23.6511 H         1 UNK         0.0000 
     56 H56         7.7989   53.9437   24.0859 H         1 UNK         0.0000 
     57 H57         7.1578   55.8080   22.6742 H         1 UNK         0.0000 
     58 H58         5.5004   53.5244   21.5017 H         1 UNK         0.0000 
     59 H59         4.1860   54.1051   19.5605 H         1 UNK         0.0000 
     60 H60         3.9431   55.3621   17.4597 H         1 UNK         0.0000 
     61 H61         5.5078   57.2010   16.9273 H         1 UNK         0.0000 
     62 H62         7.3437   57.7661   18.4747 H         1 UNK         0.0000 
     63 H63         7.6203   56.4973   20.5731 H         1 UNK         0.0000 
     64 H64         1.0000   52.0834   28.7133 H         1 UNK         0.0000 
     65 H65         0.1984   50.6578   27.4997 H         1 UNK         0.0000 
     66 H66        -0.0957   48.5801   26.4826 H         1 UNK         0.0000 
     67 H67        -0.8489   47.3243   24.5287 H         1 UNK         0.0000 
     68 H68        -1.2868   48.4735   22.3902 H         1 UNK         0.0000 
     69 H69        -0.2334   52.2187   24.1829 H         1 UNK         0.0000 
@<TRIPOS>BOND
     1    1    2 1    
     2    1   39 1    
     3    1   40 1    
     4    1   41 1    
     5    2    3 1    
     6    2   42 1    
     7    2   43 1    
     8    3    4 1    
     9    3    5 1    
    10    3    6 1    
    11    5   44 1    
    12    5   45 1    
    13    5   46 1    
    14    6    7 1    
    15    6    8 1    
    16    6   25 1    
    17    8    9 2    
    18    8   10 am   BACKBONE|DICT|INTERRES
    19   10   15 1    
    20   10   11 1    
    21   11   12 1    
    22   11   47 1    
    23   11   48 1    
    24   12   13 1    
    25   12   49 1    
    26   12   50 1    
    27   13   14 1    
    28   13   16 1    
    29   14   15 1    
    30   14   51 1    
    31   14   52 1    
    32   15   53 1    
    33   15   54 1    
    34   16   17 1    
    35   16   55 1    
    36   16   56 1    
    37   17   18 2    
    38   17   57 1    
    39   18   19 1    
    40   18   58 1    
    41   19   24 ar   
    42   19   20 ar   
    43   20   21 ar   
    44   20   59 1    
    45   21   22 ar   
    46   21   60 1    
    47   22   23 ar   
    48   22   61 1    
    49   23   24 ar   
    50   23   62 1    
    51   24   63 1    
    52   25   26 am   BACKBONE|DICT|INTERRES
    53   25   64 1    
    54   26   27 2    
    55   26   28 am   BACKBONE|DICT|INTERRES
    56   28   29 1    
    57   28   65 1    
    58   29   34 ar   
    59   29   30 ar   
    60   30   31 ar   
    61   30   66 1    
    62   31   32 ar   
    63   31   67 1    
    64   32   33 ar   
    65   32   68 1    
    66   33   34 ar   
    67   33   35 1    
    68   34   69 1    
    69   35   36 1    
    70   35   37 1    
    71   35   38 1    
@<TRIPOS>SUBSTRUCTURE
     1 UNK         1 GROUP             0       ****    0 ROOT    
