@<TRIPOS>MOLECULE
ZINC59489320_5112
59   62    1
SMALL
USER_CHARGES


@<TRIPOS>ATOM
      1 C1          4.4017   53.9764   19.3418 C.3       1 UNK         0.0000 
      2 C2          5.5912   54.4976   20.1723 C.2       1 UNK         0.0000 
      3 N3          6.7048   54.8972   19.6781 N.2       1 UNK         0.0000 
      4 N4          6.9114   54.7715   18.3338 N.pl3     1 UNK         0.0000 
      5 C5          8.0715   55.1220   17.7660 C.2       1 UNK         0.0000 
      6 N6          9.1139   55.5942   18.4489 N.pl3     1 UNK         0.0000 
      7 S7          8.2822   54.9739   16.0378 S.3       1 UNK         0.0000 
      8 C8          6.7471   54.2374   15.3629 C.3       1 UNK         0.0000 
      9 H9          5.9599   54.2124   16.1121 H         1 UNK         0.0000 
     10 C10         6.2411   54.9530   14.1404 C.3       1 UNK         0.0000 
     11 C11         6.1896   53.8925   13.0615 C.2       1 UNK         0.0000 
     12 O12         5.7890   54.1050   11.9165 O.2       1 UNK         0.0000 
     13 N13         6.6365   52.7169   13.5870 N.am      1 UNK         0.0000 
     14 C14         7.0126   52.8184   14.8927 C.2       1 UNK         0.0000 
     15 O15         7.4906   51.9378   15.6108 O.2       1 UNK         0.0000 
     16 C16         6.6840   51.5110   12.8501 C.ar      1 UNK         0.0000 
     17 C17         5.9523   50.3982   13.2815 C.ar      1 UNK         0.0000 
     18 C18         5.9549   49.2284   12.5272 C.ar      1 UNK         0.0000 
     19 C19         6.6857   49.1558   11.3295 C.ar      1 UNK         0.0000 
     20 C20         7.4305   50.2608   10.9180 C.ar      1 UNK         0.0000 
     21 C21         7.4353   51.4324   11.6709 C.ar      1 UNK         0.0000 
     22 O22         6.7177   48.0482   10.4999 O.3       1 UNK         0.0000 
     23 C23         5.9740   46.8965   10.8815 C.3       1 UNK         0.0000 
     24 C24         5.4113   54.4966   21.6532 C.ar      1 UNK         0.0000 
     25 C25         4.2164   54.0757   22.2589 C.ar      1 UNK         0.0000 
     26 C26         4.0859   54.0330   23.6440 C.ar      1 UNK         0.0000 
     27 C27         5.1385   54.4188   24.4833 C.ar      1 UNK         0.0000 
     28 C28         6.3206   54.8680   23.8865 C.ar      1 UNK         0.0000 
     29 C29         6.4574   54.8965   22.5038 C.ar      1 UNK         0.0000 
     30 C30         5.0117   54.3401   25.9713 C.ar      1 UNK         0.0000 
     31 C31         3.7677   54.4966   26.5990 C.ar      1 UNK         0.0000 
     32 C32         3.6494   54.4322   27.9849 C.ar      1 UNK         0.0000 
     33 C33         4.7820   54.2085   28.7595 C.ar      1 UNK         0.0000 
     34 C34         6.0243   54.0357   28.1593 C.ar      1 UNK         0.0000 
     35 C35         6.1356   54.0966   26.7744 C.ar      1 UNK         0.0000 
     36 H36         4.1985   52.9303   19.5722 H         1 UNK         0.0000 
     37 H37         3.5049   54.5644   19.5340 H         1 UNK         0.0000 
     38 H38         4.5511   54.0161   18.2648 H         1 UNK         0.0000 
     39 H39         6.1712   54.3670   17.7793 H         1 UNK         0.0000 
     40 H40         9.9888   55.8062   17.9895 H         1 UNK         0.0000 
     41 H41         5.2325   55.3463   14.2883 H         1 UNK         0.0000 
     42 H42         6.8811   55.7760   13.8150 H         1 UNK         0.0000 
     43 H43         5.3710   50.4377   14.1924 H         1 UNK         0.0000 
     44 H44         5.3740   48.3943   12.8888 H         1 UNK         0.0000 
     45 H45         8.0009   50.2178   10.0023 H         1 UNK         0.0000 
     46 H46         8.0097   52.2813   11.3271 H         1 UNK         0.0000 
     47 H47         6.1299   46.0921   10.1620 H         1 UNK         0.0000 
     48 H48         6.3039   46.5296   11.8534 H         1 UNK         0.0000 
     49 H49         4.9032   47.1058   10.9100 H         1 UNK         0.0000 
     50 H50         3.3670   53.7551   21.6738 H         1 UNK         0.0000 
     51 H51         3.1582   53.6675   24.0569 H         1 UNK         0.0000 
     52 H52         7.1580   55.1920   24.4851 H         1 UNK         0.0000 
     53 H53         7.4047   55.2340   22.1066 H         1 UNK         0.0000 
     54 H54         2.8784   54.6771   26.0168 H         1 UNK         0.0000 
     55 H55         2.6854   54.5614   28.4540 H         1 UNK         0.0000 
     56 H56         4.6996   54.1661   29.8343 H         1 UNK         0.0000 
     57 H57         6.8993   53.8576   28.7670 H         1 UNK         0.0000 
     58 H58         7.1054   53.9325   26.3324 H         1 UNK         0.0000 
     59 H59         9.0385   55.6785   19.4539 H         1 UNK         0.0000 
@<TRIPOS>BOND
     1    1    2 1    
     2    1   36 1    
     3    1   37 1    
     4    1   38 1    
     5    2    3 2    
     6    2   24 1    
     7    3    4 1    
     8    4    5 1    
     9    4   39 1    
    10    5    6 2    
    11    5    7 1    
    12    6   40 1    
    13    6   59 1    
    14    7    8 1    
    15    8    9 1    
    16    8   14 1    
    17    8   10 1    
    18   10   11 1    
    19   10   41 1    
    20   10   42 1    
    21   11   12 2    
    22   11   13 am   BACKBONE|DICT|INTERRES
    23   13   14 am   BACKBONE|DICT|INTERRES
    24   13   16 1    
    25   14   15 2    
    26   16   21 ar   
    27   16   17 ar   
    28   17   18 ar   
    29   17   43 1    
    30   18   19 ar   
    31   18   44 1    
    32   19   20 ar   
    33   19   22 1    
    34   20   21 ar   
    35   20   45 1    
    36   21   46 1    
    37   22   23 1    
    38   23   47 1    
    39   23   48 1    
    40   23   49 1    
    41   24   29 ar   
    42   24   25 ar   
    43   25   26 ar   
    44   25   50 1    
    45   26   27 ar   
    46   26   51 1    
    47   27   28 ar   
    48   27   30 1    
    49   28   29 ar   
    50   28   52 1    
    51   29   53 1    
    52   30   35 ar   
    53   30   31 ar   
    54   31   32 ar   
    55   31   54 1    
    56   32   33 ar   
    57   32   55 1    
    58   33   34 ar   
    59   33   56 1    
    60   34   35 ar   
    61   34   57 1    
    62   35   58 1    
@<TRIPOS>SUBSTRUCTURE
     1 UNK         1 GROUP             0       ****    0 ROOT    
