@<TRIPOS>MOLECULE
ZINC16568918_5985
57   60    1
SMALL
USER_CHARGES


@<TRIPOS>ATOM
      1 C1          6.0163   56.7356   15.4354 C.3       1 UNK         0.0000 
      2 C2          5.4546   55.8659   16.5443 C.ar      1 UNK         0.0000 
      3 C3          6.2944   55.0053   17.2544 C.ar      1 UNK         0.0000 
      4 C4          5.7753   54.2152   18.2757 C.ar      1 UNK         0.0000 
      5 C5          4.4132   54.2843   18.5831 C.ar      1 UNK         0.0000 
      6 C6          3.5672   55.1264   17.8555 C.ar      1 UNK         0.0000 
      7 C7          4.0916   55.9206   16.8396 C.ar      1 UNK         0.0000 
      8 N8          3.9044   53.5113   19.6487 N.pl3     1 UNK         0.0000 
      9 C9          2.9711   52.4894   19.6072 C.ar      1 UNK         0.0000 
     10 N10         2.8228   51.9478   20.7920 N.2       1 UNK         0.0000 
     11 N11         3.7071   52.5826   21.6485 N.2       1 UNK         0.0000 
     12 C12         4.3257   53.5152   20.9666 C.ar      1 UNK         0.0000 
     13 S13         5.5074   54.6477   21.6448 S.3       1 UNK         0.0000 
     14 C14         6.1474   53.6966   23.0572 C.3       1 UNK         0.0000 
     15 C15         5.5685   54.0968   24.4145 C.ar      1 UNK         0.0000 
     16 C16         4.1879   54.0968   24.6429 C.ar      1 UNK         0.0000 
     17 C17         3.6934   54.2898   25.9310 C.ar      1 UNK         0.0000 
     18 C18         4.5753   54.4967   26.9879 C.ar      1 UNK         0.0000 
     19 C19         5.9479   54.5496   26.7630 C.ar      1 UNK         0.0000 
     20 C20         6.4410   54.3547   25.4755 C.ar      1 UNK         0.0000 
     21 F21         4.0951   54.6579   28.2416 F         1 UNK         0.0000 
     22 C22         2.2179   52.0433   18.3571 C.3       1 UNK         0.0000 
     23 H23         2.7562   52.4299   17.4919 H         1 UNK         0.0000 
     24 C24         0.7853   52.6172   18.2901 C.3       1 UNK         0.0000 
     25 N25         2.3042   50.5913   18.1525 N.am      1 UNK         0.0000 
     26 C26         1.5489   49.6182   18.6851 C.2       1 UNK         0.0000 
     27 O27         0.6786   49.7976   19.5376 O.2       1 UNK         0.0000 
     28 N28         1.8358   48.4511   18.0818 N.am      1 UNK         0.0000 
     29 C29         1.1642   47.2220   18.1812 C.ar      1 UNK         0.0000 
     30 C30         1.3555   46.3261   17.1251 C.ar      1 UNK         0.0000 
     31 C31         0.7121   45.0886   17.1240 C.ar      1 UNK         0.0000 
     32 C32        -0.1120   44.7292   18.1897 C.ar      1 UNK         0.0000 
     33 C33        -0.2961   45.6071   19.2582 C.ar      1 UNK         0.0000 
     34 C34         0.3362   46.8519   19.2550 C.ar      1 UNK         0.0000 
     35 Cl35       -1.2976   45.1462   20.5857 Cl        1 UNK         0.0000 
     36 H36         6.9804   56.3690   15.0837 H         1 UNK         0.0000 
     37 H37         5.3439   56.7407   14.5766 H         1 UNK         0.0000 
     38 H38         6.1266   57.7654   15.7761 H         1 UNK         0.0000 
     39 H39         7.3495   54.9517   17.0254 H         1 UNK         0.0000 
     40 H40         6.4322   53.5556   18.8260 H         1 UNK         0.0000 
     41 H41         2.5133   55.1871   18.0815 H         1 UNK         0.0000 
     42 H42         3.4398   56.5850   16.2905 H         1 UNK         0.0000 
     43 H43         6.0009   52.6305   22.8828 H         1 UNK         0.0000 
     44 H44         7.2296   53.8357   23.0586 H         1 UNK         0.0000 
     45 H45         3.4921   53.9053   23.8421 H         1 UNK         0.0000 
     46 H46         2.6302   54.2575   26.1140 H         1 UNK         0.0000 
     47 H47         6.6235   54.7215   27.5899 H         1 UNK         0.0000 
     48 H48         7.5043   54.3601   25.3092 H         1 UNK         0.0000 
     49 H49         0.7905   53.7039   18.2201 H         1 UNK         0.0000 
     50 H50         0.2470   52.2366   17.4217 H         1 UNK         0.0000 
     51 H51         0.2101   52.3554   19.1784 H         1 UNK         0.0000 
     52 H52         3.0498   50.2841   17.5313 H         1 UNK         0.0000 
     53 H53         2.5809   48.4936   17.3944 H         1 UNK         0.0000 
     54 H54         1.9973   46.5901   16.2953 H         1 UNK         0.0000 
     55 H55         0.8566   44.4076   16.2980 H         1 UNK         0.0000 
     56 H56        -0.6049   43.7687   18.1862 H         1 UNK         0.0000 
     57 H57         0.1816   47.5112   20.0956 H         1 UNK         0.0000 
@<TRIPOS>BOND
     1    1    2 1    
     2    1   36 1    
     3    1   37 1    
     4    1   38 1    
     5    2    7 ar   
     6    2    3 ar   
     7    3    4 ar   
     8    3   39 1    
     9    4    5 ar   
    10    4   40 1    
    11    5    6 ar   
    12    5    8 1    
    13    6    7 ar   
    14    6   41 1    
    15    7   42 1    
    16    8   12 ar   
    17    8    9 ar   
    18    9   10 ar   
    19    9   22 1    
    20   10   11 ar   
    21   11   12 ar   
    22   12   13 1    
    23   13   14 1    
    24   14   15 1    
    25   14   43 1    
    26   14   44 1    
    27   15   20 ar   
    28   15   16 ar   
    29   16   17 ar   
    30   16   45 1    
    31   17   18 ar   
    32   17   46 1    
    33   18   19 ar   
    34   18   21 1    
    35   19   20 ar   
    36   19   47 1    
    37   20   48 1    
    38   22   23 1    
    39   22   24 1    
    40   22   25 1    
    41   24   49 1    
    42   24   50 1    
    43   24   51 1    
    44   25   26 am   BACKBONE|DICT|INTERRES
    45   25   52 1    
    46   26   27 2    
    47   26   28 am   BACKBONE|DICT|INTERRES
    48   28   29 1    
    49   28   53 1    
    50   29   34 ar   
    51   29   30 ar   
    52   30   31 ar   
    53   30   54 1    
    54   31   32 ar   
    55   31   55 1    
    56   32   33 ar   
    57   32   56 1    
    58   33   34 ar   
    59   33   35 1    
    60   34   57 1    
@<TRIPOS>SUBSTRUCTURE
     1 UNK         1 GROUP             0       ****    0 ROOT    
