@<TRIPOS>MOLECULE
ZINC38687934_2417
49   53    1
SMALL
USER_CHARGES


@<TRIPOS>ATOM
      1 C1          6.7064   53.6793   15.2626 C.ar      1 UNK         0.0000 
      2 C2          7.2825   54.9526   15.2739 C.ar      1 UNK         0.0000 
      3 C3          7.2662   55.7205   16.4404 C.ar      1 UNK         0.0000 
      4 C4          6.6711   55.2087   17.5934 C.ar      1 UNK         0.0000 
      5 C5          6.0867   53.9390   17.5799 C.ar      1 UNK         0.0000 
      6 C6          6.1067   53.1688   16.4155 C.ar      1 UNK         0.0000 
      7 C7          5.4871   53.4736   18.8271 C.2       1 UNK         0.0000 
      8 C8          5.5008   54.2150   19.9586 C.2       1 UNK         0.0000 
      9 C9          6.1558   55.5537   19.9455 C.2       1 UNK         0.0000 
     10 O10         6.3046   56.3366   20.8838 O.2       1 UNK         0.0000 
     11 O11         6.6821   55.9946   18.7361 O.3       1 UNK         0.0000 
     12 C12         4.9047   53.6168   21.1594 C.2       1 UNK         0.0000 
     13 O13         5.1027   52.4408   21.4841 O.2       1 UNK         0.0000 
     14 O14         4.1326   54.4901   21.8608 O.3       1 UNK         0.0000 
     15 C15         3.8099   54.2229   23.1720 C.ar      1 UNK         0.0000 
     16 C16         2.4906   53.9482   23.5345 C.ar      1 UNK         0.0000 
     17 C17         2.1469   53.7890   24.8801 C.ar      1 UNK         0.0000 
     18 C18         3.1050   53.9129   25.9021 C.ar      1 UNK         0.0000 
     19 C19         4.4294   54.1876   25.5011 C.ar      1 UNK         0.0000 
     20 C20         4.7820   54.3397   24.1657 C.ar      1 UNK         0.0000 
     21 O21         5.4520   54.3371   26.4119 O.3       1 UNK         0.0000 
     22 C22         5.2949   53.7532   27.6195 C.2       1 UNK         0.0000 
     23 C23         4.0962   53.4366   28.1530 C.2       1 UNK         0.0000 
     24 C24         2.8040   53.8580   27.4259 C.3       1 UNK         0.0000 
     25 H25         2.6127   54.9076   27.6596 H         1 UNK         0.0000 
     26 C26         1.5531   53.1046   27.9230 C.ar      1 UNK         0.0000 
     27 C27         0.9874   52.0348   27.2150 C.ar      1 UNK         0.0000 
     28 C28        -0.1062   51.3386   27.7298 C.ar      1 UNK         0.0000 
     29 C29        -0.6456   51.6969   28.9634 C.ar      1 UNK         0.0000 
     30 C30        -0.0922   52.7530   29.6826 C.ar      1 UNK         0.0000 
     31 C31         0.9966   53.4548   29.1659 C.ar      1 UNK         0.0000 
     32 F32         1.5203   54.4748   29.8867 F         1 UNK         0.0000 
     33 C33         4.0182   52.7030   29.3790 C.1       1 UNK         0.0000 
     34 N34         3.9046   52.0968   30.3599 N.1       1 UNK         0.0000 
     35 N35         6.5398   53.4732   28.1025 N.pl3     1 UNK         0.0000 
     36 H36         6.7254   53.0858   14.3603 H         1 UNK         0.0000 
     37 H37         7.7448   55.3426   14.3792 H         1 UNK         0.0000 
     38 H38         7.7143   56.7036   16.4495 H         1 UNK         0.0000 
     39 H39         5.6663   52.1802   16.4050 H         1 UNK         0.0000 
     40 H40         5.0227   52.4966   18.8242 H         1 UNK         0.0000 
     41 H41         1.7289   53.8894   22.7703 H         1 UNK         0.0000 
     42 H42         1.1060   53.6296   25.1205 H         1 UNK         0.0000 
     43 H43         5.8031   54.5735   23.9014 H         1 UNK         0.0000 
     44 H44         1.4184   51.6967   26.2857 H         1 UNK         0.0000 
     45 H45        -0.5208   50.4965   27.1927 H         1 UNK         0.0000 
     46 H46        -1.4752   51.1355   29.3719 H         1 UNK         0.0000 
     47 H47        -0.4948   53.0164   30.6500 H         1 UNK         0.0000 
     48 H48         6.6708   53.1670   29.0552 H         1 UNK         0.0000 
     49 H49         7.3220   53.3926   27.4714 H         1 UNK         0.0000 
@<TRIPOS>BOND
     1    1    6 ar   
     2    1    2 ar   
     3    1   36 1    
     4    2    3 ar   
     5    2   37 1    
     6    3    4 ar   
     7    3   38 1    
     8    4   11 1    
     9    4    5 ar   
    10    5    6 ar   
    11    5    7 1    
    12    6   39 1    
    13    7    8 2    
    14    7   40 1    
    15    8    9 1    
    16    8   12 1    
    17    9   10 2    
    18    9   11 1    
    19   12   13 2    
    20   12   14 1    
    21   14   15 1    
    22   15   20 ar   
    23   15   16 ar   
    24   16   17 ar   
    25   16   41 1    
    26   17   18 ar   
    27   17   42 1    
    28   18   24 1    
    29   18   19 ar   
    30   19   20 ar   
    31   19   21 1    
    32   20   43 1    
    33   21   22 1    
    34   22   23 2    
    35   22   35 1    
    36   23   24 1    
    37   23   33 1    
    38   24   25 1    
    39   24   26 1    
    40   26   31 ar   
    41   26   27 ar   
    42   27   28 ar   
    43   27   44 1    
    44   28   29 ar   
    45   28   45 1    
    46   29   30 ar   
    47   29   46 1    
    48   30   31 ar   
    49   30   47 1    
    50   31   32 1    
    51   33   34 3    
    52   35   48 1    
    53   35   49 1    
@<TRIPOS>SUBSTRUCTURE
     1 UNK         1 GROUP             0       ****    0 ROOT    
