@<TRIPOS>MOLECULE
ZINC01797646_509
49   51    1
SMALL
USER_CHARGES


@<TRIPOS>ATOM
      1 C1          6.8083   55.1455   22.1503 C.3       1 UNK         0.0000 
      2 C2          6.1766   54.8563   23.4977 C.ar      1 UNK         0.0000 
      3 C3          5.0602   54.0257   23.5866 C.ar      1 UNK         0.0000 
      4 C4          4.5212   53.7197   24.8350 C.ar      1 UNK         0.0000 
      5 C5          5.0782   54.2569   26.0031 C.ar      1 UNK         0.0000 
      6 C6          6.1635   55.1309   25.8914 C.ar      1 UNK         0.0000 
      7 C7          6.7043   55.4330   24.6478 C.ar      1 UNK         0.0000 
      8 C8          4.6517   53.9031   27.3807 C.2       1 UNK         0.0000 
      9 C9          3.4780   53.5539   27.9619 C.2       1 UNK         0.0000 
     10 C10         2.1701   53.4639   27.3371 C.2       1 UNK         0.0000 
     11 O11         1.9038   53.6966   26.1596 O.2       1 UNK         0.0000 
     12 N12         1.2363   53.1103   28.2601 N.am      1 UNK         0.0000 
     13 C13         1.6108   53.0547   29.5719 C.2       1 UNK         0.0000 
     14 S14         0.7043   52.8966   30.9599 S.2       1 UNK         0.0000 
     15 S15         3.3363   53.1952   29.6779 S.3       1 UNK         0.0000 
     16 C16        -0.1804   52.8932   27.8752 C.3       1 UNK         0.0000 
     17 C17        -0.6434   51.4130   27.8796 C.3       1 UNK         0.0000 
     18 C18         0.0311   50.4985   26.8330 C.3       1 UNK         0.0000 
     19 C19        -0.5438   50.6168   25.4144 C.2       1 UNK         0.0000 
     20 O20        -0.6260   51.7294   24.8945 O.2       1 UNK         0.0000 
     21 N21        -0.9201   49.4494   24.8396 N.am      1 UNK         0.0000 
     22 C22        -1.4633   49.1818   23.5563 C.ar      1 UNK         0.0000 
     23 C23        -1.6533   50.1749   22.5767 C.ar      1 UNK         0.0000 
     24 C24        -2.1998   49.8716   21.3206 C.ar      1 UNK         0.0000 
     25 C25        -2.5478   48.5440   21.0446 C.ar      1 UNK         0.0000 
     26 C26        -2.3598   47.5459   21.9964 C.ar      1 UNK         0.0000 
     27 C27        -1.8269   47.8520   23.2480 C.ar      1 UNK         0.0000 
     28 N28        -2.4098   50.9330   20.3055 N.pl3     1 UNK         0.0000 
     29 O29        -2.9077   50.6257   19.2260 O.co2     1 UNK         0.0000 
     30 O30        -2.0958   52.0895   20.5814 O.co2     1 UNK         0.0000 
     31 H31         7.1501   56.1791   22.0875 H         1 UNK         0.0000 
     32 H32         7.6745   54.4970   22.0065 H         1 UNK         0.0000 
     33 H33         6.1008   54.9932   21.3310 H         1 UNK         0.0000 
     34 H34         4.6371   53.5795   22.6960 H         1 UNK         0.0000 
     35 H35         3.7162   53.0050   24.8702 H         1 UNK         0.0000 
     36 H36         6.6119   55.5643   26.7742 H         1 UNK         0.0000 
     37 H37         7.5516   56.0974   24.5742 H         1 UNK         0.0000 
     38 H38         5.4823   53.9106   28.0735 H         1 UNK         0.0000 
     39 H39        -0.3552   53.2952   26.8809 H         1 UNK         0.0000 
     40 H40        -0.8228   53.4878   28.5221 H         1 UNK         0.0000 
     41 H41        -1.7268   51.3790   27.7422 H         1 UNK         0.0000 
     42 H42        -0.4876   50.9855   28.8704 H         1 UNK         0.0000 
     43 H43        -0.0956   49.4686   27.1564 H         1 UNK         0.0000 
     44 H44         1.1046   50.6644   26.8020 H         1 UNK         0.0000 
     45 H45        -0.8364   48.6212   25.4166 H         1 UNK         0.0000 
     46 H46        -1.3843   51.1996   22.7691 H         1 UNK         0.0000 
     47 H47        -2.9704   48.2747   20.0862 H         1 UNK         0.0000 
     48 H48        -2.6347   46.5298   21.7594 H         1 UNK         0.0000 
     49 O49        -1.6933   46.8908   24.0797 O.co2     1 UNK         0.0000 
@<TRIPOS>BOND
     1    1    2 1    
     2    1   31 1    
     3    1   32 1    
     4    1   33 1    
     5    2    7 ar   
     6    2    3 ar   
     7    3    4 ar   
     8    3   34 1    
     9    4    5 ar   
    10    4   35 1    
    11    5    6 ar   
    12    5    8 1    
    13    6    7 ar   
    14    6   36 1    
    15    7   37 1    
    16    8    9 2    
    17    8   38 1    
    18    9   15 1    
    19    9   10 1    
    20   10   11 2    
    21   10   12 am   BACKBONE|DICT|INTERRES
    22   12   13 am   BACKBONE|DICT|INTERRES
    23   12   16 1    
    24   13   14 2    
    25   13   15 1    
    26   16   17 1    
    27   16   39 1    
    28   16   40 1    
    29   17   18 1    
    30   17   41 1    
    31   17   42 1    
    32   18   19 1    
    33   18   43 1    
    34   18   44 1    
    35   19   20 2    
    36   19   21 am   BACKBONE|DICT|INTERRES
    37   21   22 1    
    38   21   45 1    
    39   22   27 ar   
    40   22   23 ar   
    41   23   24 ar   
    42   23   46 1    
    43   24   25 ar   
    44   24   28 1    
    45   25   26 ar   
    46   25   47 1    
    47   26   27 ar   
    48   26   48 1    
    49   27   49 1    
    50   28   29 2    
    51   28   30 1    
@<TRIPOS>SUBSTRUCTURE
     1 UNK         1 GROUP             0       ****    0 ROOT    
