ZINC35778885_4847
                    3D
 Schrodinger Suite 2024-2.
 75 77  0  0  1  0            999 V2000
   -0.4904   48.5650   24.0981 C   0  0  0  0  0  0
   -0.6318   48.6636   25.6290 C   0  0  0  0  0  0
   -1.7339   49.6716   26.0817 N   0  3  2  0  0  0
   -3.1509   49.1602   25.6983 C   0  0  0  0  0  0
   -4.2726   49.7086   26.6122 C   0  0  2  0  0  0
   -4.3705   50.7905   26.5135 H   0  0  0  0  0  0
   -4.1555   49.3102   28.1010 C   0  0  0  0  0  0
   -5.3334   49.7319   28.7960 O   0  0  0  0  0  0
   -5.4648   49.4175   30.1892 C   0  0  0  0  0  0
   -4.4680   50.2486   31.0194 C   0  0  0  0  0  0
   -5.2964   47.9057   30.4614 C   0  0  0  0  0  0
   -6.9035   49.8429   30.5281 C   0  0  0  0  0  0
   -5.4712   49.1463   26.1175 O   0  0  0  0  0  0
   -1.5284   51.1050   25.6326 C   0  0  0  0  0  0
   -0.1071   51.6117   25.9795 C   0  0  0  0  0  0
    0.7046   51.6011   25.0526 O   0  0  0  0  0  0
    0.2320   52.0286   27.2338 N   0  0  0  0  0  0
   -0.7951   52.4547   28.2125 C   0  0  0  0  0  0
   -0.4392   51.9496   29.6302 C   0  0  0  0  0  0
    1.0261   52.1628   29.9322 C   0  0  0  0  0  0
    1.9939   52.3410   28.9514 C   0  0  0  0  0  0
    3.2862   52.3993   29.5000 C   0  0  0  0  0  0
    3.3024   52.2784   30.8816 C   0  0  0  0  0  0
    1.7048   52.0967   31.5292 S   0  0  0  0  0  0
    1.6391   52.4674   27.4706 C   0  0  2  0  0  0
    2.2904   51.7611   26.9528 H   0  0  0  0  0  0
    1.9578   53.8949   26.9601 C   0  0  0  0  0  0
    3.3652   54.1441   27.0251 O   0  0  0  0  0  0
    4.1553   54.2105   25.8890 C   0  0  0  0  0  0
    3.6927   53.9771   24.5806 C   0  0  0  0  0  0
    4.5515   54.0984   23.4876 C   0  0  0  0  0  0
    5.8796   54.4854   23.6790 C   0  0  0  0  0  0
    6.3586   54.6778   24.9726 C   0  0  0  0  0  0
    5.5126   54.5275   26.0757 C   0  0  0  0  0  0
    6.0832   54.7335   27.4719 C   0  0  0  0  0  0
    6.8030   54.7151   22.4974 C   0  0  0  0  0  0
    0.2839   47.8404   23.8497 H   0  0  0  0  0  0
   -1.4123   48.2352   23.6190 H   0  0  0  0  0  0
   -0.1881   49.5108   23.6475 H   0  0  0  0  0  0
    0.2963   48.9678   26.1169 H   0  0  0  0  0  0
   -0.9030   47.7057   26.0783 H   0  0  0  0  0  0
   -3.1046   48.0748   25.8014 H   0  0  0  0  0  0
   -3.2957   49.4082   24.6457 H   0  0  0  0  0  0
   -3.2862   49.7842   28.5441 H   0  0  0  0  0  0
   -4.0230   48.2306   28.1761 H   0  0  0  0  0  0
   -4.6070   50.0958   32.0902 H   0  0  0  0  0  0
   -4.5953   51.3078   30.8191 H   0  0  0  0  0  0
   -3.4303   50.0057   30.7960 H   0  0  0  0  0  0
   -5.8857   47.3134   29.7614 H   0  0  0  0  0  0
   -4.2549   47.5932   30.3694 H   0  0  0  0  0  0
   -5.6306   47.6433   31.4652 H   0  0  0  0  0  0
   -7.6316   49.2869   29.9363 H   0  0  0  0  0  0
   -7.1357   49.6757   31.5802 H   0  0  0  0  0  0
   -7.0656   50.9006   30.3178 H   0  0  0  0  0  0
   -6.1503   49.2968   26.7825 H   0  0  0  0  0  0
   -1.6680   51.0953   24.5508 H   0  0  0  0  0  0
   -2.3228   51.7067   26.0697 H   0  0  0  0  0  0
   -0.8611   53.5432   28.2088 H   0  0  0  0  0  0
   -1.7793   52.0414   28.0058 H   0  0  0  0  0  0
   -1.0596   52.4326   30.3827 H   0  0  0  0  0  0
   -0.6871   50.8964   29.6954 H   0  0  0  0  0  0
    4.1773   52.5292   28.9005 H   0  0  0  0  0  0
    4.1608   52.2986   31.5393 H   0  0  0  0  0  0
    1.5063   54.0946   25.9920 H   0  0  0  0  0  0
    1.4794   54.6191   27.6218 H   0  0  0  0  0  0
    2.6768   53.6811   24.3731 H   0  0  0  0  0  0
    4.1705   53.9266   22.4911 H   0  0  0  0  0  0
    7.3941   54.9517   25.1122 H   0  0  0  0  0  0
    7.0141   55.2968   27.4521 H   0  0  0  0  0  0
    5.3920   55.2966   28.0985 H   0  0  0  0  0  0
    6.2614   53.7711   27.9510 H   0  0  0  0  0  0
    7.6936   54.0967   22.5910 H   0  0  0  0  0  0
    6.3244   54.4966   21.5428 H   0  0  0  0  0  0
    7.1417   55.7513   22.4850 H   0  0  0  0  0  0
   -1.6848   49.5735   27.0997 H   0  0  0  0  0  0
  1  2  1  0  0  0
  1 37  1  0  0  0
  1 38  1  0  0  0
  1 39  1  0  0  0
  2  3  1  0  0  0
  2 40  1  0  0  0
  2 41  1  0  0  0
  3  4  1  0  0  0
  3 14  1  0  0  0
  3 75  1  0  0  0
  4  5  1  0  0  0
  4 42  1  0  0  0
  4 43  1  0  0  0
  5  6  1  0  0  0
  5  7  1  0  0  0
  5 13  1  0  0  0
  7  8  1  0  0  0
  7 44  1  0  0  0
  7 45  1  0  0  0
  8  9  1  0  0  0
  9 10  1  0  0  0
  9 11  1  0  0  0
  9 12  1  0  0  0
 10 46  1  0  0  0
 10 47  1  0  0  0
 10 48  1  0  0  0
 11 49  1  0  0  0
 11 50  1  0  0  0
 11 51  1  0  0  0
 12 52  1  0  0  0
 12 53  1  0  0  0
 12 54  1  0  0  0
 13 55  1  0  0  0
 14 15  1  0  0  0
 14 56  1  0  0  0
 14 57  1  0  0  0
 15 16  2  0  0  0
 15 17  1  0  0  0
 17 25  1  0  0  0
 17 18  1  0  0  0
 18 19  1  0  0  0
 18 58  1  0  0  0
 18 59  1  0  0  0
 19 20  1  0  0  0
 19 60  1  0  0  0
 19 61  1  0  0  0
 20 24  1  0  0  0
 20 21  2  0  0  0
 21 22  1  0  0  0
 21 25  1  0  0  0
 22 23  2  0  0  0
 22 62  1  0  0  0
 23 24  1  0  0  0
 23 63  1  0  0  0
 25 26  1  0  0  0
 25 27  1  0  0  0
 27 28  1  0  0  0
 27 64  1  0  0  0
 27 65  1  0  0  0
 28 29  1  0  0  0
 29 34  2  0  0  0
 29 30  1  0  0  0
 30 31  2  0  0  0
 30 66  1  0  0  0
 31 32  1  0  0  0
 31 67  1  0  0  0
 32 33  2  0  0  0
 32 36  1  0  0  0
 33 34  1  0  0  0
 33 68  1  0  0  0
 34 35  1  0  0  0
 35 69  1  0  0  0
 35 70  1  0  0  0
 35 71  1  0  0  0
 36 72  1  0  0  0
 36 73  1  0  0  0
 36 74  1  0  0  0
M  CHG  1   3   1
M  END
> <i_i_glide_confnum>
430

> <i_i_glide_lignum>
4848

> <i_i_glide_posenum>
188

> <i_i_glide_rotatable_bonds>
13

> <i_m_Source_File_Index>
5518

> <b_m_subgroup_collapsed>
0

> <r_i_docking_score>
-5.35844

> <r_i_glide_ecoul>
-5.6553

> <r_i_glide_eff_state_penalty>
0

> <r_i_glide_einternal>
13.2141

> <r_i_glide_emodel>
-62.7538

> <r_i_glide_energy>
-48.2813

> <r_i_glide_erotb>
0.848435

> <r_i_glide_esite>
-0.108067

> <r_i_glide_evdw>
-42.626

> <r_i_glide_gscore>
-5.35844

> <r_i_glide_hbond>
-0.168893

> <r_i_glide_ligand_efficiency>
-0.157601

> <r_i_glide_ligand_efficiency_ln>
-1.18383

> <r_i_glide_ligand_efficiency_sa>
-0.510567

> <r_i_glide_lipo>
-2.8127

> <r_i_glide_metal>
0

> <r_i_glide_rewards>
-0.137626

> <s_i_glide_gridfile>
wee1_glide-grid

> <s_m_Source_File>
wee1_decoys_glide_SP.sdf

> <s_m_Source_Path>
/Users/zhangxujun/Desktop

> <s_m_entry_id>
5793

> <s_m_entry_name>
wee1_decoys_glide_SP.5518

> <s_m_subgroup_title>
wee1_decoys_glide_SP

> <s_m_subgroupid>
wee1_decoys_glide_SP


$$$$
