@<TRIPOS>MOLECULE
ZINC67081126_1461
54   57    1
SMALL
USER_CHARGES


@<TRIPOS>ATOM
      1 C1          0.2893   49.4947   26.4097 C.3       1 UNK         0.0000 
      2 C2          0.4603   49.4735   24.8874 C.3       1 UNK         0.0000 
      3 H3          1.3463   48.8940   24.6504 H         1 UNK         0.0000 
      4 C4         -0.7665   48.8861   24.1622 C.2       1 UNK         0.0000 
      5 O5         -1.4731   49.5884   23.4316 O.2       1 UNK         0.0000 
      6 N6         -0.9940   47.5829   24.3825 N.am      1 UNK         0.0000 
      7 C7         -2.1164   46.8372   23.8148 C.3       1 UNK         0.0000 
      8 C8         -3.0444   46.3588   24.9090 C.2       1 UNK         0.0000 
      9 C9         -3.0174   46.4174   26.2952 C.2       1 UNK         0.0000 
     10 C10        -4.1432   45.7419   26.7581 C.2       1 UNK         0.0000 
     11 C11        -4.8376   45.3285   25.6334 C.2       1 UNK         0.0000 
     12 O12        -4.1642   45.6970   24.5129 O.3       1 UNK         0.0000 
     13 N13         0.7777   50.8271   24.4623 N.am      1 UNK         0.0000 
     14 C14         1.5045   51.1270   23.3791 C.2       1 UNK         0.0000 
     15 O15         1.7904   50.2913   22.5185 O.2       1 UNK         0.0000 
     16 N16         1.9754   52.3979   23.3554 N.am      1 UNK         0.0000 
     17 C17         2.7758   52.8451   22.2051 C.3       1 UNK         0.0000 
     18 C18         3.1012   54.2943   22.5236 C.3       1 UNK         0.0000 
     19 C19         1.9878   54.7220   23.4641 C.3       1 UNK         0.0000 
     20 C20         1.6317   53.4872   24.2959 C.3       1 UNK         0.0000 
     21 H21         0.5573   53.5037   24.4859 H         1 UNK         0.0000 
     22 C22         2.2710   53.3950   25.7039 C.ar      1 UNK         0.0000 
     23 C23         3.5863   53.8351   25.9264 C.ar      1 UNK         0.0000 
     24 C24         4.1492   53.8264   27.2047 C.ar      1 UNK         0.0000 
     25 C25         3.4006   53.3980   28.2971 C.ar      1 UNK         0.0000 
     26 C26         2.0899   52.9708   28.1068 C.ar      1 UNK         0.0000 
     27 C27         1.5185   52.9742   26.8199 C.ar      1 UNK         0.0000 
     28 O28         0.2319   52.5108   26.6196 O.3       1 UNK         0.0000 
     29 C29        -0.5984   52.5480   27.7842 C.3       1 UNK         0.0000 
     30 C30         0.1435   51.9613   29.0084 C.3       1 UNK         0.0000 
     31 O31         1.3756   52.6510   29.2456 O.3       1 UNK         0.0000 
     32 H32         0.3048   48.4965   26.8305 H         1 UNK         0.0000 
     33 H33         1.1038   50.0395   26.8824 H         1 UNK         0.0000 
     34 H34        -0.6539   49.9520   26.7034 H         1 UNK         0.0000 
     35 H35        -0.4150   47.1123   25.0675 H         1 UNK         0.0000 
     36 H36        -1.6990   45.9840   23.2791 H         1 UNK         0.0000 
     37 H37        -2.6743   47.4203   23.0780 H         1 UNK         0.0000 
     38 H38        -2.2508   46.8937   26.8916 H         1 UNK         0.0000 
     39 H39        -4.4151   45.5827   27.7923 H         1 UNK         0.0000 
     40 H40        -5.7594   44.7865   25.4863 H         1 UNK         0.0000 
     41 H41         0.4995   51.5637   25.0983 H         1 UNK         0.0000 
     42 H42         3.6825   52.2543   22.0736 H         1 UNK         0.0000 
     43 H43         2.1721   52.8068   21.2963 H         1 UNK         0.0000 
     44 H44         4.0750   54.3625   23.0042 H         1 UNK         0.0000 
     45 H45         3.1559   54.8918   21.6194 H         1 UNK         0.0000 
     46 H46         2.3009   55.5598   24.0821 H         1 UNK         0.0000 
     47 H47         1.1047   55.0583   22.9199 H         1 UNK         0.0000 
     48 H48         4.1966   54.1848   25.1127 H         1 UNK         0.0000 
     49 H49         5.1664   54.1604   27.3486 H         1 UNK         0.0000 
     50 H50         3.8323   53.4070   29.2867 H         1 UNK         0.0000 
     51 H51        -1.5145   51.9901   27.5901 H         1 UNK         0.0000 
     52 H52        -0.8820   53.5788   27.9880 H         1 UNK         0.0000 
     53 H53         0.3420   50.8981   28.8560 H         1 UNK         0.0000 
     54 H54        -0.4815   52.0389   29.8977 H         1 UNK         0.0000 
@<TRIPOS>BOND
     1    1    2 1    
     2    1   32 1    
     3    1   33 1    
     4    1   34 1    
     5    2    3 1    
     6    2    4 1    
     7    2   13 1    
     8    4    5 2    
     9    4    6 am   BACKBONE|DICT|INTERRES
    10    6    7 1    
    11    6   35 1    
    12    7    8 1    
    13    7   36 1    
    14    7   37 1    
    15    8   12 1    
    16    8    9 2    
    17    9   10 1    
    18    9   38 1    
    19   10   11 2    
    20   10   39 1    
    21   11   12 1    
    22   11   40 1    
    23   13   14 am   BACKBONE|DICT|INTERRES
    24   13   41 1    
    25   14   15 2    
    26   14   16 am   BACKBONE|DICT|INTERRES
    27   16   20 1    
    28   16   17 1    
    29   17   18 1    
    30   17   42 1    
    31   17   43 1    
    32   18   19 1    
    33   18   44 1    
    34   18   45 1    
    35   19   20 1    
    36   19   46 1    
    37   19   47 1    
    38   20   21 1    
    39   20   22 1    
    40   22   27 ar   
    41   22   23 ar   
    42   23   24 ar   
    43   23   48 1    
    44   24   25 ar   
    45   24   49 1    
    46   25   26 ar   
    47   25   50 1    
    48   26   31 1    
    49   26   27 ar   
    50   27   28 1    
    51   28   29 1    
    52   29   30 1    
    53   29   51 1    
    54   29   52 1    
    55   30   31 1    
    56   30   53 1    
    57   30   54 1    
@<TRIPOS>SUBSTRUCTURE
     1 UNK         1 GROUP             0       ****    0 ROOT    
