@<TRIPOS>MOLECULE
ZINC39666155_4900
74   76    1
SMALL
USER_CHARGES


@<TRIPOS>ATOM
      1 C1          6.3233   53.6639   28.2603 C.3       1 UNK         0.0000 
      2 C2          6.8233   54.6630   27.2124 C.3       1 UNK         0.0000 
      3 C3          6.4901   54.2897   25.7572 C.3       1 UNK         0.0000 
      4 C4          4.9804   54.2993   25.4495 C.3       1 UNK         0.0000 
      5 C5          4.6578   54.0573   23.9609 C.3       1 UNK         0.0000 
      6 C6          3.1755   54.2454   23.5502 C.3       1 UNK         0.0000 
      7 C7          2.1166   53.4431   24.3431 C.2       1 UNK         0.0000 
      8 O8          1.9656   53.6924   25.5410 O.2       1 UNK         0.0000 
      9 N9          1.3235   52.5452   23.7106 N.am      1 UNK         0.0000 
     10 C10         1.5003   52.0713   22.3379 C.3       1 UNK         0.0000 
     11 C11         0.3068   51.1117   22.1440 C.3       1 UNK         0.0000 
     12 H12        -0.5317   51.6874   21.7484 H         1 UNK         0.0000 
     13 C13        -0.0412   50.5835   23.5673 C.3       1 UNK         0.0000 
     14 C14         0.2361   51.8521   24.4081 C.3       1 UNK         0.0000 
     15 C15        -1.4916   50.0467   23.6732 C.3       1 UNK         0.0000 
     16 C16        -1.8802   49.7410   25.1361 C.3       1 UNK         0.0000 
     17 N17        -0.9168   48.6618   25.6817 N.4       1 UNK         0.0000 
     18 C18         0.5823   48.9994   25.5117 C.3       1 UNK         0.0000 
     19 C19         0.8511   49.3940   24.0439 C.3       1 UNK         0.0000 
     20 C20         0.6897   50.0256   21.1087 C.2       1 UNK         0.0000 
     21 O21         1.8211   49.5398   21.0711 O.2       1 UNK         0.0000 
     22 N22        -0.2629   49.7166   20.2139 N.am      1 UNK         0.0000 
     23 C23        -0.1353   48.7297   19.1392 C.3       1 UNK         0.0000 
     24 C24        -0.0249   47.2581   19.6282 C.3       1 UNK         0.0000 
     25 H25         0.9672   47.1690   20.0749 H         1 UNK         0.0000 
     26 C26        -0.0457   46.2136   18.4966 C.3       1 UNK         0.0000 
     27 O27        -0.8971   46.8939   20.7092 O.3       1 UNK         0.0000 
     28 C28        -2.2720   47.0282   20.6841 C.ar      1 UNK         0.0000 
     29 C29        -3.0438   47.3488   19.5586 C.ar      1 UNK         0.0000 
     30 C30        -4.4256   47.4888   19.6720 C.ar      1 UNK         0.0000 
     31 C31        -5.0483   47.2968   20.9051 C.ar      1 UNK         0.0000 
     32 C32        -4.2893   46.9660   22.0263 C.ar      1 UNK         0.0000 
     33 C33        -2.9084   46.8260   21.9085 C.ar      1 UNK         0.0000 
     34 C34        -6.5495   47.4756   21.0284 C.3       1 UNK         0.0000 
     35 H35         6.6602   53.9720   29.2493 H         1 UNK         0.0000 
     36 H36         6.7110   52.6624   28.0765 H         1 UNK         0.0000 
     37 H37         5.2365   53.6081   28.2864 H         1 UNK         0.0000 
     38 H38         6.4294   55.6545   27.4403 H         1 UNK         0.0000 
     39 H39         7.9032   54.7391   27.3217 H         1 UNK         0.0000 
     40 H40         6.9975   54.9917   25.0938 H         1 UNK         0.0000 
     41 H41         6.9067   53.3075   25.5270 H         1 UNK         0.0000 
     42 H42         4.4965   53.5319   26.0538 H         1 UNK         0.0000 
     43 H43         4.5506   55.2535   25.7584 H         1 UNK         0.0000 
     44 H44         5.2504   54.7553   23.3655 H         1 UNK         0.0000 
     45 H45         5.0112   53.0737   23.6552 H         1 UNK         0.0000 
     46 H46         2.9254   55.2946   23.6916 H         1 UNK         0.0000 
     47 H47         3.0866   54.0838   22.4778 H         1 UNK         0.0000 
     48 H48         1.4910   52.8722   21.5965 H         1 UNK         0.0000 
     49 H49         2.4511   51.5333   22.3329 H         1 UNK         0.0000 
     50 H50         0.3920   51.6580   25.4684 H         1 UNK         0.0000 
     51 H51        -0.6446   52.4923   24.3291 H         1 UNK         0.0000 
     52 H52        -2.1840   50.8090   23.3118 H         1 UNK         0.0000 
     53 H53        -1.6482   49.1840   23.0211 H         1 UNK         0.0000 
     54 H54        -1.7944   50.6010   25.8044 H         1 UNK         0.0000 
     55 H55        -2.8838   49.3234   25.2270 H         1 UNK         0.0000 
     56 H56        -1.1140   48.4979   26.6751 H         1 UNK         0.0000 
     57 H57         0.8159   49.7711   26.2455 H         1 UNK         0.0000 
     58 H58         1.1277   48.0969   25.7764 H         1 UNK         0.0000 
     59 H59         0.7461   48.5202   23.3981 H         1 UNK         0.0000 
     60 H60         1.9039   49.6768   23.9682 H         1 UNK         0.0000 
     61 H61        -1.1632   50.1619   20.2997 H         1 UNK         0.0000 
     62 H62        -0.9888   48.8618   18.4802 H         1 UNK         0.0000 
     63 H63         0.7293   48.9730   18.5174 H         1 UNK         0.0000 
     64 H64         0.6762   46.4668   17.7157 H         1 UNK         0.0000 
     65 H65         0.2246   45.2281   18.8770 H         1 UNK         0.0000 
     66 H66        -1.0191   46.1206   18.0179 H         1 UNK         0.0000 
     67 H67        -2.6039   47.4910   18.5867 H         1 UNK         0.0000 
     68 H68        -5.0098   47.7458   18.7993 H         1 UNK         0.0000 
     69 H69        -4.7657   46.8239   22.9862 H         1 UNK         0.0000 
     70 H70        -2.3197   46.5768   22.7784 H         1 UNK         0.0000 
     71 H71        -6.8883   48.3216   20.4251 H         1 UNK         0.0000 
     72 H72        -7.0736   46.5846   20.6856 H         1 UNK         0.0000 
     73 H73        -6.8421   47.6895   22.0558 H         1 UNK         0.0000 
     74 H74        -1.1030   47.7834   25.2203 H         1 UNK         0.0000 
@<TRIPOS>BOND
     1    1    2 1    
     2    1   35 1    
     3    1   36 1    
     4    1   37 1    
     5    2    3 1    
     6    2   38 1    
     7    2   39 1    
     8    3    4 1    
     9    3   40 1    
    10    3   41 1    
    11    4    5 1    
    12    4   42 1    
    13    4   43 1    
    14    5    6 1    
    15    5   44 1    
    16    5   45 1    
    17    6    7 1    
    18    6   46 1    
    19    6   47 1    
    20    7    8 2    
    21    7    9 am   BACKBONE|DICT|INTERRES
    22    9   14 1    
    23    9   10 1    
    24   10   11 1    
    25   10   48 1    
    26   10   49 1    
    27   11   12 1    
    28   11   13 1    
    29   11   20 1    
    30   13   19 1    
    31   13   14 1    
    32   13   15 1    
    33   14   50 1    
    34   14   51 1    
    35   15   16 1    
    36   15   52 1    
    37   15   53 1    
    38   16   17 1    
    39   16   54 1    
    40   16   55 1    
    41   17   18 1    
    42   17   56 1    
    43   17   74 1    
    44   18   19 1    
    45   18   57 1    
    46   18   58 1    
    47   19   59 1    
    48   19   60 1    
    49   20   21 2    
    50   20   22 am   BACKBONE|DICT|INTERRES
    51   22   23 1    
    52   22   61 1    
    53   23   24 1    
    54   23   62 1    
    55   23   63 1    
    56   24   25 1    
    57   24   26 1    
    58   24   27 1    
    59   26   64 1    
    60   26   65 1    
    61   26   66 1    
    62   27   28 1    
    63   28   33 ar   
    64   28   29 ar   
    65   29   30 ar   
    66   29   67 1    
    67   30   31 ar   
    68   30   68 1    
    69   31   32 ar   
    70   31   34 1    
    71   32   33 ar   
    72   32   69 1    
    73   33   70 1    
    74   34   71 1    
    75   34   72 1    
    76   34   73 1    
@<TRIPOS>SUBSTRUCTURE
     1 UNK         1 GROUP             0       ****    0 ROOT    
