@<TRIPOS>MOLECULE
ZINC50367438_4799
35   36    1
SMALL
USER_CHARGES


@<TRIPOS>ATOM
      1 C1          2.6276   53.3740   22.9531 C.3       1 UNK         0.0000 
      2 O2          3.2571   53.3783   24.2304 O.3       1 UNK         0.0000 
      3 C3          4.2723   54.3760   24.4031 C.3       1 UNK         0.0000 
      4 H4          3.8791   55.2967   23.9847 H         1 UNK         0.0000 
      5 C5          5.5689   53.9411   23.6867 C.3       1 UNK         0.0000 
      6 C6          6.7048   54.1138   24.6970 C.3       1 UNK         0.0000 
      7 C7          6.0398   53.9535   26.0633 C.3       1 UNK         0.0000 
      8 C8          4.6467   54.5831   25.9021 C.3       1 UNK         0.0000 
      9 H9          4.7203   55.6627   26.0556 H         1 UNK         0.0000 
     10 N10         3.6395   53.9852   26.7723 N.am      1 UNK         0.0000 
     11 C11         3.5547   54.0396   28.1118 C.2       1 UNK         0.0000 
     12 O12         4.4011   54.5829   28.8212 O.2       1 UNK         0.0000 
     13 C13         2.3294   53.3832   28.7107 C.ar      1 UNK         0.0000 
     14 C14         2.2800   53.0813   30.0808 C.ar      1 UNK         0.0000 
     15 C15         1.1436   52.4966   30.6476 C.ar      1 UNK         0.0000 
     16 C16         0.0607   52.1473   29.8269 C.ar      1 UNK         0.0000 
     17 C17         0.0922   52.4536   28.4634 C.ar      1 UNK         0.0000 
     18 C18         1.2105   53.0742   27.9191 C.ar      1 UNK         0.0000 
     19 Cl19       -1.2320   52.0793   27.4143 Cl        1 UNK         0.0000 
     20 Cl20       -1.2956   51.2967   30.4811 Cl        1 UNK         0.0000 
     21 N21         1.1044   52.2344   32.0222 N.pl3     1 UNK         0.0000 
     22 H22         1.8784   52.5831   22.9195 H         1 UNK         0.0000 
     23 H23         2.1203   54.3197   22.7561 H         1 UNK         0.0000 
     24 H24         3.3406   53.1884   22.1492 H         1 UNK         0.0000 
     25 H25         5.5095   52.8969   23.3795 H         1 UNK         0.0000 
     26 H26         5.7479   54.5289   22.7851 H         1 UNK         0.0000 
     27 H27         7.5042   53.3895   24.5359 H         1 UNK         0.0000 
     28 H28         7.1400   55.1108   24.6055 H         1 UNK         0.0000 
     29 H29         6.6037   54.4047   26.8812 H         1 UNK         0.0000 
     30 H30         5.9471   52.8971   26.3168 H         1 UNK         0.0000 
     31 H31         2.9766   53.4071   26.2756 H         1 UNK         0.0000 
     32 H32         3.1352   53.2961   30.7050 H         1 UNK         0.0000 
     33 H33         1.1878   53.3029   26.8633 H         1 UNK         0.0000 
     34 H34         1.8652   52.4959   32.6341 H         1 UNK         0.0000 
     35 H35         0.1852   52.0327   32.4229 H         1 UNK         0.0000 
@<TRIPOS>BOND
     1    1    2 1    
     2    1   22 1    
     3    1   23 1    
     4    1   24 1    
     5    2    3 1    
     6    3    4 1    
     7    3    8 1    
     8    3    5 1    
     9    5    6 1    
    10    5   25 1    
    11    5   26 1    
    12    6    7 1    
    13    6   27 1    
    14    6   28 1    
    15    7    8 1    
    16    7   29 1    
    17    7   30 1    
    18    8    9 1    
    19    8   10 1    
    20   10   11 am   BACKBONE|DICT|INTERRES
    21   10   31 1    
    22   11   12 2    
    23   11   13 1    
    24   13   18 ar   
    25   13   14 ar   
    26   14   15 ar   
    27   14   32 1    
    28   15   16 ar   
    29   15   21 1    
    30   16   17 ar   
    31   16   20 1    
    32   17   18 ar   
    33   17   19 1    
    34   18   33 1    
    35   21   34 1    
    36   21   35 1    
@<TRIPOS>SUBSTRUCTURE
     1 UNK         1 GROUP             0       ****    0 ROOT    
