@<TRIPOS>MOLECULE
ZINC20528648_5588
62   65    1
SMALL
USER_CHARGES


@<TRIPOS>ATOM
      1 C1         -1.4351   51.2975   28.6019 C.ar      1 UNK         0.0000 
      2 C2         -0.7123   51.8014   29.6808 C.ar      1 UNK         0.0000 
      3 C3          0.5498   52.3502   29.4731 C.ar      1 UNK         0.0000 
      4 C4          1.1033   52.3645   28.1866 C.ar      1 UNK         0.0000 
      5 C5          0.3696   51.8540   27.1108 C.ar      1 UNK         0.0000 
      6 C6         -0.8996   51.3226   27.3176 C.ar      1 UNK         0.0000 
      7 C7          2.4455   52.9077   27.9280 C.2       1 UNK         0.0000 
      8 C8          3.0597   53.8852   28.6287 C.2       1 UNK         0.0000 
      9 C9          4.3969   54.3444   28.3288 C.2       1 UNK         0.0000 
     10 O10         5.1737   54.4990   29.2659 O.2       1 UNK         0.0000 
     11 N11         4.7465   54.5997   27.0345 N.am      1 UNK         0.0000 
     12 C12         6.1491   54.8464   26.6615 C.3       1 UNK         0.0000 
     13 C13         6.4592   54.0971   25.3420 C.3       1 UNK         0.0000 
     14 N14         5.4604   54.2254   24.2627 N.pl3     1 UNK         0.0000 
     15 C15         4.0775   54.0756   24.7350 C.3       1 UNK         0.0000 
     16 C16         3.7613   54.8961   25.9836 C.3       1 UNK         0.0000 
     17 C17         5.7518   54.4967   22.9284 C.ar      1 UNK         0.0000 
     18 C18         6.8472   55.2963   22.5921 C.ar      1 UNK         0.0000 
     19 C19         7.0671   55.7003   21.2812 C.ar      1 UNK         0.0000 
     20 C20         6.1626   55.3330   20.2768 C.ar      1 UNK         0.0000 
     21 C21         5.1062   54.4754   20.5857 C.ar      1 UNK         0.0000 
     22 C22         4.9111   54.0538   21.8975 C.ar      1 UNK         0.0000 
     23 N23         6.1903   55.8315   18.9626 N.am      1 UNK         0.0000 
     24 C24         7.1076   56.6212   18.3587 C.2       1 UNK         0.0000 
     25 O25         8.1784   56.9705   18.8473 O.2       1 UNK         0.0000 
     26 C26         6.7387   57.0406   17.0302 C.2       1 UNK         0.0000 
     27 C27         5.5272   57.5602   16.7254 C.2       1 UNK         0.0000 
     28 C28         5.0826   57.9918   15.3869 C.ar      1 UNK         0.0000 
     29 C29         5.7040   57.5397   14.2164 C.ar      1 UNK         0.0000 
     30 C30         5.2701   57.9811   12.9681 C.ar      1 UNK         0.0000 
     31 C31         4.2095   58.8797   12.8751 C.ar      1 UNK         0.0000 
     32 C32         3.5651   59.3486   14.0296 C.ar      1 UNK         0.0000 
     33 C33         4.0180   58.8963   15.2803 C.ar      1 UNK         0.0000 
     34 N34         2.4393   60.3073   13.9307 N.pl3     1 UNK         0.0000 
     35 O35         1.7461   60.5109   14.9248 O.co2     1 UNK         0.0000 
     36 O36         2.2212   60.8393   12.8452 O.co2     1 UNK         0.0000 
     37 H37        -2.3991   50.8422   28.7719 H         1 UNK         0.0000 
     38 H38        -1.1232   51.7439   30.6803 H         1 UNK         0.0000 
     39 H39         1.1029   52.7280   30.3222 H         1 UNK         0.0000 
     40 H40         0.7794   51.8604   26.1102 H         1 UNK         0.0000 
     41 H41        -1.4599   50.9111   26.4913 H         1 UNK         0.0000 
     42 H42         2.9735   52.4558   27.0993 H         1 UNK         0.0000 
     43 H43         2.5862   54.3658   29.4708 H         1 UNK         0.0000 
     44 H44         6.8546   54.5360   27.4363 H         1 UNK         0.0000 
     45 H45         6.2968   55.9118   26.4811 H         1 UNK         0.0000 
     46 H46         6.4875   53.0385   25.5816 H         1 UNK         0.0000 
     47 H47         7.4610   54.3494   24.9981 H         1 UNK         0.0000 
     48 H48         3.3692   54.3654   23.9623 H         1 UNK         0.0000 
     49 H49         3.9070   53.0189   24.9327 H         1 UNK         0.0000 
     50 H50         3.8511   55.9442   25.7075 H         1 UNK         0.0000 
     51 H51         2.7237   54.7631   26.2825 H         1 UNK         0.0000 
     52 H52         7.5045   55.6762   23.3554 H         1 UNK         0.0000 
     53 H53         7.9124   56.3427   21.0974 H         1 UNK         0.0000 
     54 H54         4.4020   54.1688   19.8258 H         1 UNK         0.0000 
     55 H55         4.0668   53.4152   22.1088 H         1 UNK         0.0000 
     56 H56         5.4117   55.5508   18.3881 H         1 UNK         0.0000 
     57 H57         7.5172   56.9253   16.2916 H         1 UNK         0.0000 
     58 H58         4.7904   57.6744   17.5107 H         1 UNK         0.0000 
     59 H59         6.5252   56.8396   14.2642 H         1 UNK         0.0000 
     60 H60         5.7588   57.6261   12.0719 H         1 UNK         0.0000 
     61 H61         3.8896   59.2094   11.8970 H         1 UNK         0.0000 
     62 H62         3.5501   59.2774   16.1785 H         1 UNK         0.0000 
@<TRIPOS>BOND
     1    1    6 ar   
     2    1    2 ar   
     3    1   37 1    
     4    2    3 ar   
     5    2   38 1    
     6    3    4 ar   
     7    3   39 1    
     8    4    5 ar   
     9    4    7 1    
    10    5    6 ar   
    11    5   40 1    
    12    6   41 1    
    13    7    8 2    
    14    7   42 1    
    15    8    9 1    
    16    8   43 1    
    17    9   10 2    
    18    9   11 am   BACKBONE|DICT|INTERRES
    19   11   16 1    
    20   11   12 1    
    21   12   13 1    
    22   12   44 1    
    23   12   45 1    
    24   13   14 1    
    25   13   46 1    
    26   13   47 1    
    27   14   15 1    
    28   14   17 1    
    29   15   16 1    
    30   15   48 1    
    31   15   49 1    
    32   16   50 1    
    33   16   51 1    
    34   17   22 ar   
    35   17   18 ar   
    36   18   19 ar   
    37   18   52 1    
    38   19   20 ar   
    39   19   53 1    
    40   20   21 ar   
    41   20   23 1    
    42   21   22 ar   
    43   21   54 1    
    44   22   55 1    
    45   23   24 am   BACKBONE|DICT|INTERRES
    46   23   56 1    
    47   24   25 2    
    48   24   26 1    
    49   26   27 2    
    50   26   57 1    
    51   27   28 1    
    52   27   58 1    
    53   28   33 ar   
    54   28   29 ar   
    55   29   30 ar   
    56   29   59 1    
    57   30   31 ar   
    58   30   60 1    
    59   31   32 ar   
    60   31   61 1    
    61   32   33 ar   
    62   32   34 1    
    63   33   62 1    
    64   34   35 2    
    65   34   36 1    
@<TRIPOS>SUBSTRUCTURE
     1 UNK         1 GROUP             0       ****    0 ROOT    
