@<TRIPOS>MOLECULE
ZINC58849419_1058
67   71    1
SMALL
USER_CHARGES


@<TRIPOS>ATOM
      1 C1          9.6847   57.8651   18.4824 C.3       1 UNK         0.0000 
      2 O2          8.6273   56.9448   18.7303 O.3       1 UNK         0.0000 
      3 C3          7.3856   57.1831   18.1771 C.ar      1 UNK         0.0000 
      4 C4          7.0256   58.3569   17.5048 C.ar      1 UNK         0.0000 
      5 C5          5.7487   58.4986   16.9791 C.ar      1 UNK         0.0000 
      6 C6          4.7893   57.4883   17.1101 C.ar      1 UNK         0.0000 
      7 C7          5.1535   56.2944   17.7495 C.ar      1 UNK         0.0000 
      8 C8          6.4390   56.1713   18.2960 C.ar      1 UNK         0.0000 
      9 N9          4.2046   55.2589   17.7629 N.pl3     1 UNK         0.0000 
     10 S10         4.5159   53.5504   18.1014 S.o2      1 UNK         0.0000 
     11 O11         3.4993   52.8220   17.3388 O.2       1 UNK         0.0000 
     12 O12         5.9477   53.2968   17.9070 O.2       1 UNK         0.0000 
     13 C13         4.1286   53.3715   19.8366 C.ar      1 UNK         0.0000 
     14 C14         4.9806   53.8845   20.8122 C.ar      1 UNK         0.0000 
     15 C15         4.6067   53.8363   22.1497 C.ar      1 UNK         0.0000 
     16 C16         3.3912   53.2584   22.5215 C.ar      1 UNK         0.0000 
     17 C17         2.5205   52.7276   21.5575 C.ar      1 UNK         0.0000 
     18 C18         2.9236   52.7833   20.2167 C.ar      1 UNK         0.0000 
     19 C19         1.1645   52.1333   21.9358 C.3       1 UNK         0.0000 
     20 H20         0.4079   52.7402   21.4369 H         1 UNK         0.0000 
     21 C21         1.0424   50.6765   21.5279 C.2       1 UNK         0.0000 
     22 C22         0.9851   49.8590   22.5906 C.2       1 UNK         0.0000 
     23 C23         1.0046   50.6247   23.8899 C.3       1 UNK         0.0000 
     24 C24         0.8890   52.0935   23.4543 C.3       1 UNK         0.0000 
     25 H25        -0.1694   52.3407   23.5553 H         1 UNK         0.0000 
     26 C26         1.6525   53.1531   24.3154 C.3       1 UNK         0.0000 
     27 H27         1.1928   54.1232   24.1216 H         1 UNK         0.0000 
     28 N28         3.0422   53.2971   23.8751 N.pl3     1 UNK         0.0000 
     29 C29         1.5044   52.9712   25.8433 C.ar      1 UNK         0.0000 
     30 C30         0.3142   52.4967   26.4035 C.ar      1 UNK         0.0000 
     31 C31         0.1813   52.3430   27.7794 C.ar      1 UNK         0.0000 
     32 C32         1.2439   52.6521   28.6432 C.ar      1 UNK         0.0000 
     33 C33         2.4481   53.1277   28.1068 C.ar      1 UNK         0.0000 
     34 C34         2.5541   53.2972   26.7168 C.ar      1 UNK         0.0000 
     35 O35         3.4818   53.4132   28.9881 O.3       1 UNK         0.0000 
     36 C36         4.7390   53.8466   28.4689 C.3       1 UNK         0.0000 
     37 O37         1.1740   52.5100   30.0183 O.3       1 UNK         0.0000 
     38 C38        -0.0701   52.1693   30.6182 C.3       1 UNK         0.0000 
     39 O39         3.4920   57.6100   16.6373 O.3       1 UNK         0.0000 
     40 C40         3.0033   58.8966   16.2769 C.3       1 UNK         0.0000 
     41 H41        10.5895   57.5136   18.9778 H         1 UNK         0.0000 
     42 H42         9.4610   58.8601   18.8695 H         1 UNK         0.0000 
     43 H43         9.9014   57.9423   17.4157 H         1 UNK         0.0000 
     44 H44         7.7145   59.1774   17.3860 H         1 UNK         0.0000 
     45 H45         5.5114   59.4281   16.4799 H         1 UNK         0.0000 
     46 H46         6.7550   55.2764   18.8026 H         1 UNK         0.0000 
     47 H47         3.2774   55.4945   17.4421 H         1 UNK         0.0000 
     48 H48         5.9158   54.3445   20.5414 H         1 UNK         0.0000 
     49 H49         5.2643   54.2567   22.8966 H         1 UNK         0.0000 
     50 H50         2.2560   52.3980   19.4562 H         1 UNK         0.0000 
     51 H51         1.0405   50.3695   20.4925 H         1 UNK         0.0000 
     52 H52         0.9258   48.7800   22.5662 H         1 UNK         0.0000 
     53 H53         1.9044   50.4178   24.4625 H         1 UNK         0.0000 
     54 H54         0.1596   50.3270   24.5129 H         1 UNK         0.0000 
     55 H55         3.6392   53.7890   24.5216 H         1 UNK         0.0000 
     56 H56        -0.5307   52.2505   25.7815 H         1 UNK         0.0000 
     57 H57        -0.7609   51.9737   28.1532 H         1 UNK         0.0000 
     58 H58         3.4734   53.6785   26.3087 H         1 UNK         0.0000 
     59 H59         5.4461   53.9994   29.2816 H         1 UNK         0.0000 
     60 H60         5.1739   53.1008   27.8004 H         1 UNK         0.0000 
     61 H61         4.6477   54.7975   27.9411 H         1 UNK         0.0000 
     62 H62         0.0859   52.0183   31.6835 H         1 UNK         0.0000 
     63 H63        -0.7972   52.9714   30.4945 H         1 UNK         0.0000 
     64 H64        -0.4963   51.2517   30.2150 H         1 UNK         0.0000 
     65 H65         1.9437   58.8284   16.0332 H         1 UNK         0.0000 
     66 H66         3.1045   59.6049   17.1003 H         1 UNK         0.0000 
     67 H67         3.5177   59.2935   15.4014 H         1 UNK         0.0000 
@<TRIPOS>BOND
     1    1    2 1    
     2    1   41 1    
     3    1   42 1    
     4    1   43 1    
     5    2    3 1    
     6    3    8 ar   
     7    3    4 ar   
     8    4    5 ar   
     9    4   44 1    
    10    5    6 ar   
    11    5   45 1    
    12    6    7 ar   
    13    6   39 1    
    14    7    8 ar   
    15    7    9 1    
    16    8   46 1    
    17    9   10 1    
    18    9   47 1    
    19   10   11 2    
    20   10   12 2    
    21   10   13 1    
    22   13   18 ar   
    23   13   14 ar   
    24   14   15 ar   
    25   14   48 1    
    26   15   16 ar   
    27   15   49 1    
    28   16   28 1    
    29   16   17 ar   
    30   17   18 ar   
    31   17   19 1    
    32   18   50 1    
    33   19   20 1    
    34   19   24 1    
    35   19   21 1    
    36   21   22 2    
    37   21   51 1    
    38   22   23 1    
    39   22   52 1    
    40   23   24 1    
    41   23   53 1    
    42   23   54 1    
    43   24   25 1    
    44   24   26 1    
    45   26   27 1    
    46   26   28 1    
    47   26   29 1    
    48   28   55 1    
    49   29   34 ar   
    50   29   30 ar   
    51   30   31 ar   
    52   30   56 1    
    53   31   32 ar   
    54   31   57 1    
    55   32   33 ar   
    56   32   37 1    
    57   33   34 ar   
    58   33   35 1    
    59   34   58 1    
    60   35   36 1    
    61   36   59 1    
    62   36   60 1    
    63   36   61 1    
    64   37   38 1    
    65   38   62 1    
    66   38   63 1    
    67   38   64 1    
    68   39   40 1    
    69   40   65 1    
    70   40   66 1    
    71   40   67 1    
@<TRIPOS>SUBSTRUCTURE
     1 UNK         1 GROUP             0       ****    0 ROOT    
