ZINC39673844_1290
                    3D
 Schrodinger Suite 2024-2.
 65 68  0  0  1  0            999 V2000
    3.6735   52.3320   30.1266 C   0  0  0  0  0  0
    3.6134   53.5268   29.1599 C   0  0  0  0  0  0
    2.8320   53.2551   27.8526 C   0  0  0  0  0  0
    1.3585   52.8062   28.0136 C   0  0  1  0  0  0
    1.3612   51.8723   28.5824 H   0  0  0  0  0  0
    0.5057   53.8381   28.7829 C   0  0  0  0  0  0
    0.7733   52.4969   26.7036 N   0  0  0  0  0  0
   -0.3551   51.7891   26.5008 C   0  0  0  0  0  0
   -0.9978   51.3019   27.4268 O   0  0  0  0  0  0
   -0.8609   51.5804   25.0467 C   0  0  1  0  0  0
   -1.9427   51.5065   25.1264 H   0  0  0  0  0  0
   -0.5318   52.7611   24.1176 C   0  0  0  0  0  0
    0.7346   52.3659   23.4897 N   0  0  0  0  0  0
    1.0432   50.9451   23.7162 C   0  0  0  0  0  0
   -0.2412   50.3455   24.3175 C   0  0  0  0  0  0
    0.0370   49.0491   25.1238 C   0  0  0  0  0  0
   -1.2746   48.4611   25.6815 C   0  0  0  0  0  0
   -2.2279   48.1265   24.5150 N   0  3  0  0  0  0
   -2.4720   49.3018   23.5436 C   0  0  0  0  0  0
   -1.1027   49.8601   23.1086 C   0  0  0  0  0  0
    1.6123   53.3023   23.0517 C   0  0  0  0  0  0
    1.5034   54.4957   23.3358 O   0  0  0  0  0  0
    2.6547   52.8954   22.1456 C   0  0  0  0  0  0
    2.7764   51.8447   21.2378 C   0  0  0  0  0  0
    3.9142   52.0967   20.4791 C   0  0  0  0  0  0
    4.4011   53.3297   20.8801 C   0  0  0  0  0  0
    3.6409   53.7976   21.9010 O   0  0  0  0  0  0
    5.5046   54.1971   20.4108 C   0  0  0  0  0  0
    5.9510   54.1029   19.0894 C   0  0  0  0  0  0
    7.0194   54.8868   18.6628 C   0  0  0  0  0  0
    7.6489   55.7471   19.5585 C   0  0  0  0  0  0
    7.2093   55.8402   20.8776 C   0  0  0  0  0  0
    6.1300   55.0735   21.3012 C   0  0  0  0  0  0
    8.6955   56.4965   19.1488 F   0  0  0  0  0  0
    4.3034   52.5534   30.9888 H   0  0  0  0  0  0
    4.0867   51.4518   29.6340 H   0  0  0  0  0  0
    2.6837   52.0775   30.5099 H   0  0  0  0  0  0
    3.1985   54.3930   29.6763 H   0  0  0  0  0  0
    4.6349   53.8124   28.8975 H   0  0  0  0  0  0
    2.8667   54.1508   27.2297 H   0  0  0  0  0  0
    3.3749   52.4973   27.2870 H   0  0  0  0  0  0
    0.9408   54.0765   29.7518 H   0  0  0  0  0  0
    0.4237   54.7764   28.2334 H   0  0  0  0  0  0
   -0.4955   53.4610   28.9850 H   0  0  0  0  0  0
    1.2713   52.8451   25.8965 H   0  0  0  0  0  0
   -1.3213   52.7958   23.3660 H   0  0  0  0  0  0
   -0.5154   53.6965   24.6741 H   0  0  0  0  0  0
    1.8189   50.9066   24.4815 H   0  0  0  0  0  0
    1.4366   50.3595   22.8897 H   0  0  0  0  0  0
    0.5688   48.3063   24.5246 H   0  0  0  0  0  0
    0.7067   49.2511   25.9607 H   0  0  0  0  0  0
   -1.1145   47.5327   26.2289 H   0  0  0  0  0  0
   -1.8140   49.1525   26.3309 H   0  0  0  0  0  0
   -1.8337   47.3547   23.9985 H   0  0  0  0  0  0
   -3.0401   48.8956   22.7057 H   0  0  0  0  0  0
   -3.1010   50.0214   24.0677 H   0  0  0  0  0  0
   -1.2821   50.6848   22.4169 H   0  0  0  0  0  0
   -0.5633   49.1214   22.5118 H   0  0  0  0  0  0
    2.1102   51.0098   21.0922 H   0  0  0  0  0  0
    4.3028   51.4807   19.6821 H   0  0  0  0  0  0
    5.4772   53.4207   18.3966 H   0  0  0  0  0  0
    7.3707   54.8177   17.6443 H   0  0  0  0  0  0
    7.7122   56.4953   21.5718 H   0  0  0  0  0  0
    5.8013   55.1386   22.3281 H   0  0  0  0  0  0
   -3.1082   47.8075   24.8969 H   0  0  0  0  0  0
  1  2  1  0  0  0
  1 35  1  0  0  0
  1 36  1  0  0  0
  1 37  1  0  0  0
  2  3  1  0  0  0
  2 38  1  0  0  0
  2 39  1  0  0  0
  3  4  1  0  0  0
  3 40  1  0  0  0
  3 41  1  0  0  0
  4  5  1  0  0  0
  4  6  1  0  0  0
  4  7  1  0  0  0
  6 42  1  0  0  0
  6 43  1  0  0  0
  6 44  1  0  0  0
  7  8  1  0  0  0
  7 45  1  0  0  0
  8  9  2  0  0  0
  8 10  1  0  0  0
 10 11  1  0  0  0
 10 15  1  0  0  0
 10 12  1  0  0  0
 12 13  1  0  0  0
 12 46  1  0  0  0
 12 47  1  0  0  0
 13 14  1  0  0  0
 13 21  1  0  0  0
 14 15  1  0  0  0
 14 48  1  0  0  0
 14 49  1  0  0  0
 15 20  1  0  0  0
 15 16  1  0  0  0
 16 17  1  0  0  0
 16 50  1  0  0  0
 16 51  1  0  0  0
 17 18  1  0  0  0
 17 52  1  0  0  0
 17 53  1  0  0  0
 18 19  1  0  0  0
 18 54  1  0  0  0
 18 65  1  0  0  0
 19 20  1  0  0  0
 19 55  1  0  0  0
 19 56  1  0  0  0
 20 57  1  0  0  0
 20 58  1  0  0  0
 21 22  2  0  0  0
 21 23  1  0  0  0
 23 27  1  0  0  0
 23 24  2  0  0  0
 24 25  1  0  0  0
 24 59  1  0  0  0
 25 26  2  0  0  0
 25 60  1  0  0  0
 26 27  1  0  0  0
 26 28  1  0  0  0
 28 33  2  0  0  0
 28 29  1  0  0  0
 29 30  2  0  0  0
 29 61  1  0  0  0
 30 31  1  0  0  0
 30 62  1  0  0  0
 31 32  2  0  0  0
 31 34  1  0  0  0
 32 33  1  0  0  0
 32 63  1  0  0  0
 33 64  1  0  0  0
M  CHG  1  18   1
M  END
> <i_i_glide_confnum>
301

> <i_i_glide_lignum>
1291

> <i_i_glide_posenum>
89

> <i_i_glide_rotatable_bonds>
8

> <i_m_Source_File_Index>
4555

> <b_m_subgroup_collapsed>
0

> <r_i_docking_score>
-4.14507

> <r_i_glide_ecoul>
-1.38379

> <r_i_glide_eff_state_penalty>
0

> <r_i_glide_einternal>
9.33709

> <r_i_glide_emodel>
-44.8678

> <r_i_glide_energy>
-40.0008

> <r_i_glide_erotb>
0.71428

> <r_i_glide_esite>
-0.0598739

> <r_i_glide_evdw>
-38.617

> <r_i_glide_gscore>
-4.14507

> <r_i_glide_hbond>
0

> <r_i_glide_ligand_efficiency>
-0.129533

> <r_i_glide_ligand_efficiency_ln>
-0.928194

> <r_i_glide_ligand_efficiency_sa>
-0.411243

> <r_i_glide_lipo>
-2.00621

> <r_i_glide_metal>
0

> <r_i_glide_rewards>
-0.654843

> <s_i_glide_gridfile>
wee1_glide-grid

> <s_m_Source_File>
wee1_decoys_glide_SP.sdf

> <s_m_Source_Path>
/Users/zhangxujun/Desktop

> <s_m_entry_id>
4830

> <s_m_entry_name>
wee1_decoys_glide_SP.4555

> <s_m_subgroup_title>
wee1_decoys_glide_SP

> <s_m_subgroupid>
wee1_decoys_glide_SP


$$$$
