@<TRIPOS>MOLECULE
ZINC02502492_1482
46   49    1
SMALL
USER_CHARGES


@<TRIPOS>ATOM
      1 C1          3.1356   52.5126   20.8492 C.3       1 UNK         0.0000 
      2 O2          2.3092   51.3618   20.9810 O.3       1 UNK         0.0000 
      3 C3          1.6891   51.0954   22.1879 C.ar      1 UNK         0.0000 
      4 C4          1.6090   52.0301   23.2341 C.ar      1 UNK         0.0000 
      5 C5          0.9689   51.7182   24.4365 C.ar      1 UNK         0.0000 
      6 C6          0.4246   50.4417   24.5882 C.ar      1 UNK         0.0000 
      7 C7          0.4639   49.4946   23.5581 C.ar      1 UNK         0.0000 
      8 C8          1.0885   49.8328   22.3502 C.ar      1 UNK         0.0000 
      9 O9          1.0484   48.9163   21.3196 O.3       1 UNK         0.0000 
     10 C10         2.3042   48.4179   20.8811 C.3       1 UNK         0.0000 
     11 O11        -0.0968   48.2339   23.6721 O.3       1 UNK         0.0000 
     12 C12        -0.7630   47.8767   24.8816 C.3       1 UNK         0.0000 
     13 C13         0.7659   52.7948   25.5159 C.3       1 UNK         0.0000 
     14 H14         0.4945   53.6769   24.9305 H         1 UNK         0.0000 
     15 C15         2.0399   53.1143   26.3264 C.ar      1 UNK         0.0000 
     16 C16         3.1072   53.8625   25.7898 C.ar      1 UNK         0.0000 
     17 C17         4.2165   54.1211   26.5910 C.ar      1 UNK         0.0000 
     18 C18         4.2843   53.6934   27.8855 C.ar      1 UNK         0.0000 
     19 C19         3.2504   52.9817   28.4762 C.ar      1 UNK         0.0000 
     20 C20         2.1293   52.7045   27.6849 C.ar      1 UNK         0.0000 
     21 O21         1.0984   52.0435   28.3186 O.3       1 UNK         0.0000 
     22 C22        -0.1350   52.1145   27.7662 C.2       1 UNK         0.0000 
     23 C23        -0.3851   52.4965   26.4961 C.2       1 UNK         0.0000 
     24 C24        -1.7235   52.4965   25.9971 C.1       1 UNK         0.0000 
     25 N25        -2.8009   52.5024   25.5772 N.1       1 UNK         0.0000 
     26 N26        -1.0421   51.6963   28.7008 N.pl3     1 UNK         0.0000 
     27 O27         5.4525   54.1069   28.4404 O.3       1 UNK         0.0000 
     28 C28         6.2097   54.6240   27.3797 C.3       1 UNK         0.0000 
     29 O29         5.3417   54.8243   26.2933 O.3       1 UNK         0.0000 
     30 H30         3.5902   52.5176   19.8579 H         1 UNK         0.0000 
     31 H31         2.5625   53.4321   20.9535 H         1 UNK         0.0000 
     32 H32         3.9429   52.5099   21.5838 H         1 UNK         0.0000 
     33 H33         2.0161   53.0205   23.1085 H         1 UNK         0.0000 
     34 H34        -0.0664   50.2001   25.5162 H         1 UNK         0.0000 
     35 H35         2.1585   47.4574   20.3895 H         1 UNK         0.0000 
     36 H36         2.7601   49.0833   20.1492 H         1 UNK         0.0000 
     37 H37         2.9984   48.2640   21.7081 H         1 UNK         0.0000 
     38 H38        -0.9856   46.8100   24.8781 H         1 UNK         0.0000 
     39 H39        -0.1530   48.0865   25.7618 H         1 UNK         0.0000 
     40 H40        -1.7059   48.4160   24.9803 H         1 UNK         0.0000 
     41 H41         3.0699   54.2253   24.7740 H         1 UNK         0.0000 
     42 H42         3.2950   52.6624   29.5060 H         1 UNK         0.0000 
     43 H43        -2.0002   51.5453   28.4204 H         1 UNK         0.0000 
     44 H44        -0.7291   51.1250   29.4728 H         1 UNK         0.0000 
     45 H45         6.9762   53.8968   27.1012 H         1 UNK         0.0000 
     46 H46         6.6830   55.5591   27.6800 H         1 UNK         0.0000 
@<TRIPOS>BOND
     1    1    2 1    
     2    1   30 1    
     3    1   31 1    
     4    1   32 1    
     5    2    3 1    
     6    3    8 ar   
     7    3    4 ar   
     8    4    5 ar   
     9    4   33 1    
    10    5    6 ar   
    11    5   13 1    
    12    6    7 ar   
    13    6   34 1    
    14    7    8 ar   
    15    7   11 1    
    16    8    9 1    
    17    9   10 1    
    18   10   35 1    
    19   10   36 1    
    20   10   37 1    
    21   11   12 1    
    22   12   38 1    
    23   12   39 1    
    24   12   40 1    
    25   13   14 1    
    26   13   23 1    
    27   13   15 1    
    28   15   20 ar   
    29   15   16 ar   
    30   16   17 ar   
    31   16   41 1    
    32   17   29 1    
    33   17   18 ar   
    34   18   19 ar   
    35   18   27 1    
    36   19   20 ar   
    37   19   42 1    
    38   20   21 1    
    39   21   22 1    
    40   22   23 2    
    41   22   26 1    
    42   23   24 1    
    43   24   25 3    
    44   26   43 1    
    45   26   44 1    
    46   27   28 1    
    47   28   29 1    
    48   28   45 1    
    49   28   46 1    
@<TRIPOS>SUBSTRUCTURE
     1 UNK         1 GROUP             0       ****    0 ROOT    
