@<TRIPOS>MOLECULE
ZINC17102482_2611
56   59    1
SMALL
USER_CHARGES


@<TRIPOS>ATOM
      1 C1          6.9936   54.0893   27.8285 C.3       1 UNK         0.0000 
      2 C2          6.1212   54.2000   26.5957 C.ar      1 UNK         0.0000 
      3 C3          6.7045   54.4133   25.3464 C.ar      1 UNK         0.0000 
      4 C4          5.9151   54.4969   24.2083 C.ar      1 UNK         0.0000 
      5 C5          4.5294   54.3828   24.3181 C.ar      1 UNK         0.0000 
      6 C6          3.9404   54.2091   25.5766 C.ar      1 UNK         0.0000 
      7 C7          4.7357   54.1045   26.7122 C.ar      1 UNK         0.0000 
      8 C8          3.6740   54.5305   23.0655 C.3       1 UNK         0.0000 
      9 N9          3.0105   53.3112   22.6287 N.am      1 UNK         0.0000 
     10 C10         1.8607   52.8484   23.1427 C.2       1 UNK         0.0000 
     11 O11         1.2434   53.4369   24.0286 O.2       1 UNK         0.0000 
     12 C12         1.4033   51.5998   22.5759 C.2       1 UNK         0.0000 
     13 C13         1.6843   51.1583   21.2581 C.2       1 UNK         0.0000 
     14 C14         1.1030   49.9534   20.9399 C.2       1 UNK         0.0000 
     15 S15         0.1720   49.2961   22.2283 S.3       1 UNK         0.0000 
     16 C16         0.5551   50.6691   23.2172 C.2       1 UNK         0.0000 
     17 N17         0.0657   50.6198   24.5097 N.am      1 UNK         0.0000 
     18 C18        -0.8953   51.4305   24.9914 C.2       1 UNK         0.0000 
     19 O19        -1.4149   52.3469   24.3446 O.2       1 UNK         0.0000 
     20 C20        -1.3879   51.0946   26.4226 C.3       1 UNK         0.0000 
     21 H21        -1.0213   50.0994   26.6865 H         1 UNK         0.0000 
     22 C22        -2.9486   51.0387   26.3626 C.3       1 UNK         0.0000 
     23 C23        -3.5398   50.8960   27.7547 C.2       1 UNK         0.0000 
     24 C24        -2.8533   51.1443   28.8818 C.2       1 UNK         0.0000 
     25 C25        -1.4250   51.6837   28.9247 C.3       1 UNK         0.0000 
     26 C26        -0.9399   52.1328   27.5148 C.3       1 UNK         0.0000 
     27 H27        -1.3537   53.1055   27.2456 H         1 UNK         0.0000 
     28 C28         0.5975   52.3226   27.6052 C.2       1 UNK         0.0000 
     29 O29         1.0211   53.4697   27.8668 O.co2     1 UNK         0.0000 
     30 C30         1.4009   49.5021   19.5368 C.3       1 UNK         0.0000 
     31 C31         1.9509   50.7975   18.9225 C.3       1 UNK         0.0000 
     32 C32         2.5013   51.6457   20.0805 C.3       1 UNK         0.0000 
     33 H33         7.8989   54.6798   27.7058 H         1 UNK         0.0000 
     34 H34         6.4777   54.4788   28.7065 H         1 UNK         0.0000 
     35 H35         7.2668   53.0504   28.0166 H         1 UNK         0.0000 
     36 H36         7.7736   54.4980   25.2418 H         1 UNK         0.0000 
     37 H37         6.3849   54.6505   23.2486 H         1 UNK         0.0000 
     38 H38         2.8688   54.1457   25.6940 H         1 UNK         0.0000 
     39 H39         4.2679   53.9479   27.6750 H         1 UNK         0.0000 
     40 H40         2.9285   55.2962   23.2753 H         1 UNK         0.0000 
     41 H41         4.2745   54.8968   22.2330 H         1 UNK         0.0000 
     42 H42         3.4800   52.7569   21.9273 H         1 UNK         0.0000 
     43 H43         0.3720   49.8543   25.0934 H         1 UNK         0.0000 
     44 H44        -3.3755   51.9512   25.9420 H         1 UNK         0.0000 
     45 H45        -3.2788   50.2221   25.7191 H         1 UNK         0.0000 
     46 H46        -4.5476   50.5167   27.8496 H         1 UNK         0.0000 
     47 H47        -3.3489   50.9189   29.8157 H         1 UNK         0.0000 
     48 H48        -0.7895   50.8964   29.3276 H         1 UNK         0.0000 
     49 H49        -1.3230   52.4971   29.6414 H         1 UNK         0.0000 
     50 H50         2.1380   48.6986   19.5118 H         1 UNK         0.0000 
     51 H51         0.5195   49.1627   18.9925 H         1 UNK         0.0000 
     52 H52         2.7013   50.6043   18.1530 H         1 UNK         0.0000 
     53 H53         1.1374   51.3399   18.4372 H         1 UNK         0.0000 
     54 H54         2.3986   52.7112   19.8808 H         1 UNK         0.0000 
     55 H55         3.5638   51.4352   20.2136 H         1 UNK         0.0000 
     56 O56         1.3110   51.2969   27.5655 O.co2     1 UNK         0.0000 
@<TRIPOS>BOND
     1    1    2 1    
     2    1   33 1    
     3    1   34 1    
     4    1   35 1    
     5    2    7 ar   
     6    2    3 ar   
     7    3    4 ar   
     8    3   36 1    
     9    4    5 ar   
    10    4   37 1    
    11    5    6 ar   
    12    5    8 1    
    13    6    7 ar   
    14    6   38 1    
    15    7   39 1    
    16    8    9 1    
    17    8   40 1    
    18    8   41 1    
    19    9   10 am   BACKBONE|DICT|INTERRES
    20    9   42 1    
    21   10   11 2    
    22   10   12 1    
    23   12   16 2    
    24   12   13 1    
    25   13   32 1    
    26   13   14 2    
    27   14   15 1    
    28   14   30 1    
    29   15   16 1    
    30   16   17 am   BACKBONE|DICT|INTERRES
    31   17   18 am   BACKBONE|DICT|INTERRES
    32   17   43 1    
    33   18   19 2    
    34   18   20 1    
    35   20   21 1    
    36   20   26 1    
    37   20   22 1    
    38   22   23 1    
    39   22   44 1    
    40   22   45 1    
    41   23   24 2    
    42   23   46 1    
    43   24   25 1    
    44   24   47 1    
    45   25   26 1    
    46   25   48 1    
    47   25   49 1    
    48   26   27 1    
    49   26   28 1    
    50   28   29 2    
    51   28   56 1    
    52   30   31 1    
    53   30   50 1    
    54   30   51 1    
    55   31   32 1    
    56   31   52 1    
    57   31   53 1    
    58   32   54 1    
    59   32   55 1    
@<TRIPOS>SUBSTRUCTURE
     1 UNK         1 GROUP             0       ****    0 ROOT    
