@<TRIPOS>MOLECULE
ZINC66385436_1402
43   45    1
SMALL
USER_CHARGES


@<TRIPOS>ATOM
      1 C1          5.1357   56.5350   18.4325 C.3       1 UNK         0.0000 
      2 C2          5.4647   55.0241   18.4015 C.3       1 UNK         0.0000 
      3 H3          4.9824   54.6691   17.4891 H         1 UNK         0.0000 
      4 C4          6.9457   54.7151   18.2037 C.2       1 UNK         0.0000 
      5 C5          7.5077   53.7030   17.4221 C.2       1 UNK         0.0000 
      6 C6          8.9042   53.6963   17.3880 C.2       1 UNK         0.0000 
      7 C7          9.4516   54.7103   18.1486 C.2       1 UNK         0.0000 
      8 S8          8.2304   55.6627   18.9202 S.3       1 UNK         0.0000 
      9 N9          4.8657   54.2456   19.5134 N.am      1 UNK         0.0000 
     10 C10         4.0821   53.0998   19.0116 C.3       1 UNK         0.0000 
     11 C11         5.1044   54.4956   20.8367 C.2       1 UNK         0.0000 
     12 O12         5.8871   55.3730   21.2194 O.2       1 UNK         0.0000 
     13 N13         4.3375   53.7846   21.6940 N.am      1 UNK         0.0000 
     14 N14         4.6401   53.8130   23.0540 N.am      1 UNK         0.0000 
     15 C15         3.6396   54.1346   23.9037 C.2       1 UNK         0.0000 
     16 O16         2.5057   54.4963   23.5711 O.2       1 UNK         0.0000 
     17 C17         4.0011   54.0445   25.2929 C.2       1 UNK         0.0000 
     18 N18         5.1679   54.1946   25.8830 N.2       1 UNK         0.0000 
     19 N19         4.9601   53.9526   27.2378 N.2       1 UNK         0.0000 
     20 C20         3.6787   53.7010   27.3711 C.2       1 UNK         0.0000 
     21 O21         3.0149   53.7745   26.1885 O.3       1 UNK         0.0000 
     22 C22         2.9274   53.2983   28.5987 C.ar      1 UNK         0.0000 
     23 C23         3.6228   52.8944   29.7428 C.ar      1 UNK         0.0000 
     24 C24         2.9273   52.4957   30.8817 C.ar      1 UNK         0.0000 
     25 C25         1.5343   52.4971   30.8784 C.ar      1 UNK         0.0000 
     26 C26         0.8316   52.8963   29.7441 C.ar      1 UNK         0.0000 
     27 C27         1.5276   53.2961   28.6047 C.ar      1 UNK         0.0000 
     28 H28         5.4926   57.0309   17.5291 H         1 UNK         0.0000 
     29 H29         4.0594   56.6973   18.4813 H         1 UNK         0.0000 
     30 H30         5.5885   57.0468   19.2817 H         1 UNK         0.0000 
     31 H31         6.9073   52.9824   16.8851 H         1 UNK         0.0000 
     32 H32         9.4894   52.9739   16.8368 H         1 UNK         0.0000 
     33 H33        10.4974   54.9285   18.3122 H         1 UNK         0.0000 
     34 H34         3.7062   52.4293   19.7849 H         1 UNK         0.0000 
     35 H35         3.2238   53.4590   18.4443 H         1 UNK         0.0000 
     36 H36         4.6963   52.4967   18.3429 H         1 UNK         0.0000 
     37 H37         3.8897   52.9253   21.4123 H         1 UNK         0.0000 
     38 H38         5.3785   53.1733   23.3102 H         1 UNK         0.0000 
     39 H39         4.7038   52.8811   29.7437 H         1 UNK         0.0000 
     40 H40         3.4644   52.1811   31.7665 H         1 UNK         0.0000 
     41 H41         0.9890   52.1862   31.7593 H         1 UNK         0.0000 
     42 H42        -0.2492   52.8878   29.7484 H         1 UNK         0.0000 
     43 H43         0.9753   53.5971   27.7260 H         1 UNK         0.0000 
@<TRIPOS>BOND
     1    1    2 1    
     2    1   28 1    
     3    1   29 1    
     4    1   30 1    
     5    2    3 1    
     6    2    4 1    
     7    2    9 1    
     8    4    8 1    
     9    4    5 2    
    10    5    6 1    
    11    5   31 1    
    12    6    7 2    
    13    6   32 1    
    14    7    8 1    
    15    7   33 1    
    16    9   10 1    
    17    9   11 am   BACKBONE|DICT|INTERRES
    18   10   34 1    
    19   10   35 1    
    20   10   36 1    
    21   11   12 2    
    22   11   13 am   BACKBONE|DICT|INTERRES
    23   13   14 1    
    24   13   37 1    
    25   14   15 am   BACKBONE|DICT|INTERRES
    26   14   38 1    
    27   15   16 2    
    28   15   17 1    
    29   17   21 1    
    30   17   18 2    
    31   18   19 1    
    32   19   20 2    
    33   20   21 1    
    34   20   22 1    
    35   22   27 ar   
    36   22   23 ar   
    37   23   24 ar   
    38   23   39 1    
    39   24   25 ar   
    40   24   40 1    
    41   25   26 ar   
    42   25   41 1    
    43   26   27 ar   
    44   26   42 1    
    45   27   43 1    
@<TRIPOS>SUBSTRUCTURE
     1 UNK         1 GROUP             0       ****    0 ROOT    
