@<TRIPOS>MOLECULE
ZINC12293395_1318
57   61    1
SMALL
USER_CHARGES


@<TRIPOS>ATOM
      1 C1         -2.5848   47.8673   22.7408 C.ar      1 UNK         0.0000 
      2 C2         -3.4556   48.2264   21.7096 C.ar      1 UNK         0.0000 
      3 C3         -4.6738   48.8310   22.0158 C.ar      1 UNK         0.0000 
      4 C4         -5.0224   49.0768   23.3526 C.ar      1 UNK         0.0000 
      5 C5         -4.1552   48.7122   24.3815 C.ar      1 UNK         0.0000 
      6 C6         -2.9216   48.1185   24.0832 C.ar      1 UNK         0.0000 
      7 C7         -1.9523   47.8136   25.2322 C.3       1 UNK         0.0000 
      8 H8         -2.5101   47.2850   26.0078 H         1 UNK         0.0000 
      9 C9         -1.3486   49.0957   25.8423 C.3       1 UNK         0.0000 
     10 C10        -1.3596   51.5013   24.9638 C.3       1 UNK         0.0000 
     11 C11        -0.7796   52.4130   23.8613 C.3       1 UNK         0.0000 
     12 C12         0.7651   52.4435   23.8941 C.3       1 UNK         0.0000 
     13 C13         1.2233   50.9856   23.6263 C.3       1 UNK         0.0000 
     14 C14         0.7338   50.0191   24.7141 C.3       1 UNK         0.0000 
     15 C15         1.3347   53.4677   22.8777 C.3       1 UNK         0.0000 
     16 C16         2.8620   53.5378   22.9660 C.3       1 UNK         0.0000 
     17 H17         3.3055   52.6014   22.6272 H         1 UNK         0.0000 
     18 C18         3.2545   53.7718   24.4215 C.ar      1 UNK         0.0000 
     19 C19         4.5109   54.2805   24.7850 C.ar      1 UNK         0.0000 
     20 C20         4.8915   54.3815   26.1214 C.ar      1 UNK         0.0000 
     21 C21         4.0265   53.9496   27.1236 C.ar      1 UNK         0.0000 
     22 C22         2.7865   53.4050   26.7882 C.ar      1 UNK         0.0000 
     23 C23         2.4128   53.2989   25.4484 C.ar      1 UNK         0.0000 
     24 O24         1.1238   52.8422   25.2297 O.3       1 UNK         0.0000 
     25 F25         6.1021   54.8918   26.4430 F         1 UNK         0.0000 
     26 O26         3.3902   54.4966   22.0783 O.3       1 UNK         0.0000 
     27 O27        -0.8955   46.9372   24.8816 O.3       1 UNK         0.0000 
     28 O28        -6.2352   49.6326   23.7071 O.3       1 UNK         0.0000 
     29 C29        -6.8805   50.3378   22.6411 C.3       1 UNK         0.0000 
     30 C30        -6.8250   49.5162   21.3304 C.3       1 UNK         0.0000 
     31 O31        -5.4710   49.2361   20.9630 O.3       1 UNK         0.0000 
     32 H32        -1.6384   47.4096   22.4898 H         1 UNK         0.0000 
     33 H33        -3.1822   48.0507   20.6778 H         1 UNK         0.0000 
     34 H34        -4.4355   48.9051   25.4087 H         1 UNK         0.0000 
     35 H35        -2.0785   49.6209   26.4643 H         1 UNK         0.0000 
     36 H36        -0.5041   48.8527   26.4823 H         1 UNK         0.0000 
     37 H37        -2.4465   51.4286   24.8745 H         1 UNK         0.0000 
     38 H38        -1.0859   51.8205   25.9718 H         1 UNK         0.0000 
     39 H39        -1.1417   52.0970   22.8818 H         1 UNK         0.0000 
     40 H40        -1.1643   53.4223   24.0121 H         1 UNK         0.0000 
     41 H41         2.3058   50.9232   23.6114 H         1 UNK         0.0000 
     42 H42         0.8948   50.6467   22.6420 H         1 UNK         0.0000 
     43 H43         1.1032   50.2832   25.7080 H         1 UNK         0.0000 
     44 H44         1.0173   48.9921   24.4702 H         1 UNK         0.0000 
     45 H45         1.0173   53.2423   21.8582 H         1 UNK         0.0000 
     46 H46         0.9499   54.4653   23.0905 H         1 UNK         0.0000 
     47 H47         5.2013   54.6021   24.0212 H         1 UNK         0.0000 
     48 H48         4.3234   54.0339   28.1566 H         1 UNK         0.0000 
     49 H49         2.1115   53.0783   27.5652 H         1 UNK         0.0000 
     50 H50         2.9461   54.4144   21.2276 H         1 UNK         0.0000 
     51 H51        -0.3248   46.8271   25.6606 H         1 UNK         0.0000 
     52 H52        -7.9139   50.5458   22.9176 H         1 UNK         0.0000 
     53 H53        -6.3763   51.2951   22.4927 H         1 UNK         0.0000 
     54 H54        -7.3605   48.5752   21.4722 H         1 UNK         0.0000 
     55 H55        -7.3139   50.0575   20.5185 H         1 UNK         0.0000 
     56 N56        -0.8111   50.0673   24.7579 N.4       1 UNK         0.0000 
     57 H57        -1.1481   49.7388   23.8617 H         1 UNK         0.0000 
@<TRIPOS>BOND
     1    1    6 ar   
     2    1    2 ar   
     3    1   32 1    
     4    2    3 ar   
     5    2   33 1    
     6    3   31 1    
     7    3    4 ar   
     8    4    5 ar   
     9    4   28 1    
    10    5    6 ar   
    11    5   34 1    
    12    6    7 1    
    13    7    8 1    
    14    7    9 1    
    15    7   27 1    
    16    9   35 1    
    17    9   36 1    
    18    9   56 1    
    19   10   11 1    
    20   10   37 1    
    21   10   38 1    
    22   10   56 1    
    23   11   12 1    
    24   11   39 1    
    25   11   40 1    
    26   12   24 1    
    27   12   13 1    
    28   12   15 1    
    29   13   14 1    
    30   13   41 1    
    31   13   42 1    
    32   14   43 1    
    33   14   44 1    
    34   14   56 1    
    35   15   16 1    
    36   15   45 1    
    37   15   46 1    
    38   16   17 1    
    39   16   18 1    
    40   16   26 1    
    41   18   23 ar   
    42   18   19 ar   
    43   19   20 ar   
    44   19   47 1    
    45   20   21 ar   
    46   20   25 1    
    47   21   22 ar   
    48   21   48 1    
    49   22   23 ar   
    50   22   49 1    
    51   23   24 1    
    52   26   50 1    
    53   27   51 1    
    54   28   29 1    
    55   29   30 1    
    56   29   52 1    
    57   29   53 1    
    58   30   31 1    
    59   30   54 1    
    60   30   55 1    
    61   56   57 1    
@<TRIPOS>SUBSTRUCTURE
     1 UNK         1 GROUP             0       ****    0 ROOT    
