@<TRIPOS>MOLECULE
ZINC27534100_5850
60   63    1
SMALL
USER_CHARGES


@<TRIPOS>ATOM
      1 C1          2.5451   54.3674   29.0630 C.3       1 UNK         0.0000 
      2 C2          2.5113   52.9546   29.6946 C.3       1 UNK         0.0000 
      3 C3          1.9143   51.8852   28.7431 C.3       1 UNK         0.0000 
      4 C4          0.4109   52.0902   28.4406 C.3       1 UNK         0.0000 
      5 H5          0.2887   53.0502   27.9364 H         1 UNK         0.0000 
      6 C6         -0.3463   52.2467   29.7705 C.3       1 UNK         0.0000 
      7 C7          0.3195   53.2437   30.7380 C.3       1 UNK         0.0000 
      8 O8          1.7145   52.9481   30.8820 O.3       1 UNK         0.0000 
      9 N9         -0.1695   51.0761   27.5527 N.am      1 UNK         0.0000 
     10 C10         0.1271   50.9142   26.2532 C.2       1 UNK         0.0000 
     11 O11         0.3055   49.7931   25.7834 O.2       1 UNK         0.0000 
     12 N12         0.2090   52.0600   25.5385 N.am      1 UNK         0.0000 
     13 C13         0.7933   52.1729   24.3035 C.2       1 UNK         0.0000 
     14 C14         0.2535   51.5635   23.2101 C.2       1 UNK         0.0000 
     15 C15         0.9784   51.5638   21.8418 C.3       1 UNK         0.0000 
     16 C16        -0.0410   51.5092   20.6569 C.3       1 UNK         0.0000 
     17 C17         0.6233   51.3574   19.2719 C.3       1 UNK         0.0000 
     18 C18         1.5466   50.1276   19.2189 C.3       1 UNK         0.0000 
     19 C19         2.5599   50.1126   20.3767 C.3       1 UNK         0.0000 
     20 C20         1.8852   50.2992   21.7546 C.3       1 UNK         0.0000 
     21 C21         1.8120   52.8800   21.7420 C.3       1 UNK         0.0000 
     22 C22         2.6182   53.2301   22.9806 C.ar      1 UNK         0.0000 
     23 C23         2.0497   52.9756   24.2378 C.ar      1 UNK         0.0000 
     24 C24         2.7046   53.4607   25.3807 C.ar      1 UNK         0.0000 
     25 C25         3.9371   54.1041   25.2851 C.ar      1 UNK         0.0000 
     26 C26         4.5292   54.2827   24.0401 C.ar      1 UNK         0.0000 
     27 C27         3.8623   53.8634   22.8930 C.ar      1 UNK         0.0000 
     28 C28        -0.9898   50.8522   23.3036 C.1       1 UNK         0.0000 
     29 N29        -2.0139   50.3113   23.3329 N.1       1 UNK         0.0000 
     30 C30         3.9035   52.4948   30.1565 C.3       1 UNK         0.0000 
     31 H31         3.2715   54.4123   28.2527 H         1 UNK         0.0000 
     32 H32         1.5872   54.6880   28.6554 H         1 UNK         0.0000 
     33 H33         2.8439   55.1152   29.7978 H         1 UNK         0.0000 
     34 H34         2.0043   50.9054   29.2146 H         1 UNK         0.0000 
     35 H35         2.5053   51.8142   27.8323 H         1 UNK         0.0000 
     36 H36        -1.3843   52.4999   29.5922 H         1 UNK         0.0000 
     37 H37        -0.3783   51.2965   30.2905 H         1 UNK         0.0000 
     38 H38         0.1743   54.2629   30.3770 H         1 UNK         0.0000 
     39 H39        -0.1524   53.1934   31.7205 H         1 UNK         0.0000 
     40 H40        -0.5172   50.2426   28.0136 H         1 UNK         0.0000 
     41 H41        -0.0163   52.9203   26.0129 H         1 UNK         0.0000 
     42 H42        -0.6780   52.3945   20.6649 H         1 UNK         0.0000 
     43 H43        -0.7148   50.6592   20.7798 H         1 UNK         0.0000 
     44 H44         1.1905   52.2553   19.0270 H         1 UNK         0.0000 
     45 H45        -0.1440   51.2732   18.5014 H         1 UNK         0.0000 
     46 H46         2.0764   50.0959   18.2649 H         1 UNK         0.0000 
     47 H47         0.9427   49.2200   19.2590 H         1 UNK         0.0000 
     48 H48         3.3117   50.8853   20.2144 H         1 UNK         0.0000 
     49 H49         3.1036   49.1710   20.3617 H         1 UNK         0.0000 
     50 H50         1.2906   49.4091   21.9695 H         1 UNK         0.0000 
     51 H51         2.6531   50.3284   22.5309 H         1 UNK         0.0000 
     52 H52         2.4355   52.9125   20.8476 H         1 UNK         0.0000 
     53 H53         1.1048   53.6965   21.6463 H         1 UNK         0.0000 
     54 H54         2.2735   53.3304   26.3563 H         1 UNK         0.0000 
     55 H55         4.4401   54.4489   26.1759 H         1 UNK         0.0000 
     56 H56         5.4867   54.7766   23.9601 H         1 UNK         0.0000 
     57 H57         4.3026   54.0509   21.9240 H         1 UNK         0.0000 
     58 H58         4.6083   52.4483   29.3250 H         1 UNK         0.0000 
     59 H59         4.3044   53.1866   30.8971 H         1 UNK         0.0000 
     60 H60         3.8777   51.5129   30.6274 H         1 UNK         0.0000 
@<TRIPOS>BOND
     1    1    2 1    
     2    1   31 1    
     3    1   32 1    
     4    1   33 1    
     5    2    8 1    
     6    2    3 1    
     7    2   30 1    
     8    3    4 1    
     9    3   34 1    
    10    3   35 1    
    11    4    5 1    
    12    4    6 1    
    13    4    9 1    
    14    6    7 1    
    15    6   36 1    
    16    6   37 1    
    17    7    8 1    
    18    7   38 1    
    19    7   39 1    
    20    9   10 am   BACKBONE|DICT|INTERRES
    21    9   40 1    
    22   10   11 2    
    23   10   12 am   BACKBONE|DICT|INTERRES
    24   12   13 1    
    25   12   41 1    
    26   13   23 1    
    27   13   14 2    
    28   14   15 1    
    29   14   28 1    
    30   15   20 1    
    31   15   16 1    
    32   15   21 1    
    33   16   17 1    
    34   16   42 1    
    35   16   43 1    
    36   17   18 1    
    37   17   44 1    
    38   17   45 1    
    39   18   19 1    
    40   18   46 1    
    41   18   47 1    
    42   19   20 1    
    43   19   48 1    
    44   19   49 1    
    45   20   50 1    
    46   20   51 1    
    47   21   22 1    
    48   21   52 1    
    49   21   53 1    
    50   22   27 ar   
    51   22   23 ar   
    52   23   24 ar   
    53   24   25 ar   
    54   24   54 1    
    55   25   26 ar   
    56   25   55 1    
    57   26   27 ar   
    58   26   56 1    
    59   27   57 1    
    60   28   29 3    
    61   30   58 1    
    62   30   59 1    
    63   30   60 1    
@<TRIPOS>SUBSTRUCTURE
     1 UNK         1 GROUP             0       ****    0 ROOT    
