ZINC37551626_1737
                    3D
 Schrodinger Suite 2024-2.
 39 39  0  0  1  0            999 V2000
    5.7843   54.2576   26.1283 C   0  0  0  0  0  0
    4.5995   54.0965   25.1785 C   0  0  0  0  0  0
    4.8317   54.1682   23.7990 C   0  0  0  0  0  0
    3.7781   54.0216   22.8819 C   0  0  0  0  0  0
    2.4896   53.7848   23.3608 C   0  0  0  0  0  0
    2.2492   53.6970   24.7292 C   0  0  0  0  0  0
    3.2928   53.8500   25.6452 C   0  0  0  0  0  0
    2.9800   53.7123   27.0640 C   0  0  0  0  0  0
    2.7037   53.5362   28.2405 C   0  0  0  0  0  0
    2.3705   53.2655   29.6442 C   0  0  0  0  0  0
    3.5050   53.2601   30.4817 O   0  0  0  0  0  0
    3.9039   54.0967   21.4843 N   0  0  0  0  0  0
    4.9446   54.4967   20.7328 C   0  0  0  0  0  0
    6.0572   54.8089   21.1539 O   0  0  0  0  0  0
    4.5795   54.5448   19.4386 N   0  0  0  0  0  0
    5.4214   54.6392   18.2370 C   0  0  0  0  0  0
    6.1435   53.2968   18.0005 C   0  0  0  0  0  0
    6.4517   55.7948   18.3139 C   0  0  0  0  0  0
    4.4844   54.9149   17.0414 C   0  0  0  0  0  0
    6.7226   54.4333   25.6003 H   0  0  0  0  0  0
    5.6125   55.0937   26.8075 H   0  0  0  0  0  0
    5.9019   53.3588   26.7359 H   0  0  0  0  0  0
    5.8407   54.3391   23.4604 H   0  0  0  0  0  0
    1.6621   53.6661   22.6755 H   0  0  0  0  0  0
    1.2415   53.5033   25.0695 H   0  0  0  0  0  0
    1.8652   52.3005   29.6989 H   0  0  0  0  0  0
    1.6671   54.0262   29.9850 H   0  0  0  0  0  0
    4.1262   52.6158   30.1328 H   0  0  0  0  0  0
    3.0491   53.9049   20.9829 H   0  0  0  0  0  0
    3.5915   54.4807   19.2451 H   0  0  0  0  0  0
    5.4348   52.4973   17.7768 H   0  0  0  0  0  0
    6.8415   53.3513   17.1644 H   0  0  0  0  0  0
    6.7044   52.9862   18.8815 H   0  0  0  0  0  0
    5.9740   56.7408   18.5752 H   0  0  0  0  0  0
    7.2286   55.6027   19.0551 H   0  0  0  0  0  0
    6.9619   55.9416   17.3605 H   0  0  0  0  0  0
    3.9447   55.8557   17.1636 H   0  0  0  0  0  0
    5.0396   54.9797   16.1046 H   0  0  0  0  0  0
    3.7393   54.1255   16.9197 H   0  0  0  0  0  0
  1  2  1  0  0  0
  1 20  1  0  0  0
  1 21  1  0  0  0
  1 22  1  0  0  0
  2  7  2  0  0  0
  2  3  1  0  0  0
  3  4  2  0  0  0
  3 23  1  0  0  0
  4  5  1  0  0  0
  4 12  1  0  0  0
  5  6  2  0  0  0
  5 24  1  0  0  0
  6  7  1  0  0  0
  6 25  1  0  0  0
  7  8  1  0  0  0
  8  9  3  0  0  0
  9 10  1  0  0  0
 10 11  1  0  0  0
 10 26  1  0  0  0
 10 27  1  0  0  0
 11 28  1  0  0  0
 12 13  1  0  0  0
 12 29  1  0  0  0
 13 14  2  0  0  0
 13 15  1  0  0  0
 15 16  1  0  0  0
 15 30  1  0  0  0
 16 17  1  0  0  0
 16 18  1  0  0  0
 16 19  1  0  0  0
 17 31  1  0  0  0
 17 32  1  0  0  0
 17 33  1  0  0  0
 18 34  1  0  0  0
 18 35  1  0  0  0
 18 36  1  0  0  0
 19 37  1  0  0  0
 19 38  1  0  0  0
 19 39  1  0  0  0
M  END
> <i_i_glide_confnum>
1

> <i_i_glide_lignum>
1738

> <i_i_glide_posenum>
382

> <i_i_glide_rotatable_bonds>
7

> <i_m_Source_File_Index>
3734

> <b_m_subgroup_collapsed>
0

> <r_i_docking_score>
-5.02497

> <r_i_glide_ecoul>
-5.73976

> <r_i_glide_eff_state_penalty>
0

> <r_i_glide_einternal>
2.7165

> <r_i_glide_emodel>
-41.4247

> <r_i_glide_energy>
-30.5793

> <r_i_glide_erotb>
1.30589

> <r_i_glide_esite>
0

> <r_i_glide_evdw>
-24.8396

> <r_i_glide_gscore>
-5.02497

> <r_i_glide_hbond>
-0.392354

> <r_i_glide_ligand_efficiency>
-0.264472

> <r_i_glide_ligand_efficiency_ln>
-1.27394

> <r_i_glide_ligand_efficiency_sa>
-0.705717

> <r_i_glide_lipo>
-2.14358

> <r_i_glide_metal>
0

> <r_i_glide_rewards>
-1.69198

> <s_i_glide_gridfile>
wee1_glide-grid

> <s_m_Source_File>
wee1_decoys_glide_SP.sdf

> <s_m_Source_Path>
/Users/zhangxujun/Desktop

> <s_m_entry_id>
4009

> <s_m_entry_name>
wee1_decoys_glide_SP.3734

> <s_m_subgroup_title>
wee1_decoys_glide_SP

> <s_m_subgroupid>
wee1_decoys_glide_SP


$$$$
