@<TRIPOS>MOLECULE
ZINC36534616_5204
72   75    1
SMALL
USER_CHARGES


@<TRIPOS>ATOM
      1 C1          5.8772   53.4046   22.2131 C.3       1 UNK         0.0000 
      2 C2          4.5485   53.9329   22.8196 C.3       1 UNK         0.0000 
      3 H3          4.3407   54.9013   22.3658 H         1 UNK         0.0000 
      4 C4          4.8239   54.2627   24.3176 C.ar      1 UNK         0.0000 
      5 C5          4.1192   53.6929   25.3780 C.ar      1 UNK         0.0000 
      6 C6          4.4769   53.9171   26.7058 C.ar      1 UNK         0.0000 
      7 C7          5.5782   54.7077   26.9936 C.ar      1 UNK         0.0000 
      8 C8          6.2905   55.2991   25.9609 C.ar      1 UNK         0.0000 
      9 C9          5.8930   55.1144   24.6418 C.ar      1 UNK         0.0000 
     10 C10         3.3522   52.9460   22.4032 C.3       1 UNK         0.0000 
     11 H11         3.7634   51.9438   22.4816 H         1 UNK         0.0000 
     12 C12         3.1225   52.8947   20.8604 C.2       1 UNK         0.0000 
     13 O13         3.6878   53.6937   20.1130 O.2       1 UNK         0.0000 
     14 N14         2.3205   51.9115   20.4145 N.am      1 UNK         0.0000 
     15 C15         1.9911   51.6392   19.0168 C.3       1 UNK         0.0000 
     16 C16         1.4212   50.2132   18.8159 C.3       1 UNK         0.0000 
     17 C17         1.0075   49.9032   17.3630 C.3       1 UNK         0.0000 
     18 C18         0.0885   50.9880   16.7753 C.3       1 UNK         0.0000 
     19 C19         0.7395   52.3769   16.8702 C.3       1 UNK         0.0000 
     20 C20         1.1442   52.7352   18.3151 C.3       1 UNK         0.0000 
     21 N21         2.0327   53.0454   23.1371 N.am      1 UNK         0.0000 
     22 C22         1.5508   54.4227   23.3120 C.3       1 UNK         0.0000 
     23 C23         1.3558   51.8999   23.5208 C.2       1 UNK         0.0000 
     24 O24         1.9072   50.8159   23.3130 O.2       1 UNK         0.0000 
     25 C25        -0.0978   51.8234   24.1909 C.3       1 UNK         0.0000 
     26 C26        -0.7343   50.4424   23.7962 C.ar      1 UNK         0.0000 
     27 C27        -1.7467   50.3411   22.8271 C.ar      1 UNK         0.0000 
     28 C28        -2.2925   49.1035   22.4917 C.ar      1 UNK         0.0000 
     29 C29        -1.8391   47.9504   23.1273 C.ar      1 UNK         0.0000 
     30 C30        -0.8369   48.0236   24.0902 C.ar      1 UNK         0.0000 
     31 C31        -0.2772   49.2572   24.4042 C.ar      1 UNK         0.0000 
     32 C32        -0.0572   52.0001   25.7452 C.ar      1 UNK         0.0000 
     33 C33        -0.9997   51.3459   26.5632 C.ar      1 UNK         0.0000 
     34 C34        -0.9710   51.4742   27.9487 C.ar      1 UNK         0.0000 
     35 C35        -0.0278   52.3014   28.5462 C.ar      1 UNK         0.0000 
     36 C36         0.8743   53.0133   27.7639 C.ar      1 UNK         0.0000 
     37 C37         0.8464   52.8713   26.3784 C.ar      1 UNK         0.0000 
     38 O38        -0.9085   52.8741   23.6841 O.3       1 UNK         0.0000 
     39 H39         6.7495   53.9896   22.4957 H         1 UNK         0.0000 
     40 H40         6.0675   52.3829   22.5417 H         1 UNK         0.0000 
     41 H41         5.9032   53.4140   21.1260 H         1 UNK         0.0000 
     42 H42         3.3739   52.9457   25.1904 H         1 UNK         0.0000 
     43 H43         3.9386   53.4293   27.5027 H         1 UNK         0.0000 
     44 H44         5.8781   54.8703   28.0200 H         1 UNK         0.0000 
     45 H45         7.1186   55.9513   26.1845 H         1 UNK         0.0000 
     46 H46         6.4530   55.6169   23.8672 H         1 UNK         0.0000 
     47 H47         1.9017   51.2979   21.1007 H         1 UNK         0.0000 
     48 H48         2.9402   51.6307   18.4715 H         1 UNK         0.0000 
     49 H49         0.5387   50.0953   19.4445 H         1 UNK         0.0000 
     50 H50         2.1503   49.4731   19.1462 H         1 UNK         0.0000 
     51 H51         0.5141   48.9303   17.3169 H         1 UNK         0.0000 
     52 H52         1.9017   49.8126   16.7411 H         1 UNK         0.0000 
     53 H53        -0.8628   50.9881   17.3110 H         1 UNK         0.0000 
     54 H54        -0.1421   50.7555   15.7338 H         1 UNK         0.0000 
     55 H55         0.0610   53.1354   16.4754 H         1 UNK         0.0000 
     56 H56         1.6264   52.4030   16.2314 H         1 UNK         0.0000 
     57 H57         1.6757   53.6868   18.3078 H         1 UNK         0.0000 
     58 H58         0.2326   52.8903   18.8915 H         1 UNK         0.0000 
     59 H59         2.2859   55.0201   23.8543 H         1 UNK         0.0000 
     60 H60         1.4197   54.8883   22.3386 H         1 UNK         0.0000 
     61 H61         0.6127   54.5252   23.8501 H         1 UNK         0.0000 
     62 H62        -2.1131   51.2195   22.3166 H         1 UNK         0.0000 
     63 H63        -3.0706   49.0356   21.7451 H         1 UNK         0.0000 
     64 H64        -2.2690   46.9932   22.8723 H         1 UNK         0.0000 
     65 H65        -0.4865   47.1331   24.5908 H         1 UNK         0.0000 
     66 H66         0.5122   49.2909   25.1412 H         1 UNK         0.0000 
     67 H67        -1.7559   50.6990   26.1422 H         1 UNK         0.0000 
     68 H68        -1.6723   50.9148   28.5544 H         1 UNK         0.0000 
     69 H69        -0.0067   52.3973   29.6226 H         1 UNK         0.0000 
     70 H70         1.5840   53.6823   28.2284 H         1 UNK         0.0000 
     71 H71         1.5116   53.4856   25.8069 H         1 UNK         0.0000 
     72 H72        -0.7458   53.6521   24.2225 H         1 UNK         0.0000 
@<TRIPOS>BOND
     1    1    2 1    
     2    1   39 1    
     3    1   40 1    
     4    1   41 1    
     5    2    3 1    
     6    2    4 1    
     7    2   10 1    
     8    4    9 ar   
     9    4    5 ar   
    10    5    6 ar   
    11    5   42 1    
    12    6    7 ar   
    13    6   43 1    
    14    7    8 ar   
    15    7   44 1    
    16    8    9 ar   
    17    8   45 1    
    18    9   46 1    
    19   10   11 1    
    20   10   12 1    
    21   10   21 1    
    22   12   13 2    
    23   12   14 am   BACKBONE|DICT|INTERRES
    24   14   15 1    
    25   14   47 1    
    26   15   20 1    
    27   15   16 1    
    28   15   48 1    
    29   16   17 1    
    30   16   49 1    
    31   16   50 1    
    32   17   18 1    
    33   17   51 1    
    34   17   52 1    
    35   18   19 1    
    36   18   53 1    
    37   18   54 1    
    38   19   20 1    
    39   19   55 1    
    40   19   56 1    
    41   20   57 1    
    42   20   58 1    
    43   21   22 1    
    44   21   23 am   BACKBONE|DICT|INTERRES
    45   22   59 1    
    46   22   60 1    
    47   22   61 1    
    48   23   24 2    
    49   23   25 1    
    50   25   26 1    
    51   25   32 1    
    52   25   38 1    
    53   26   31 ar   
    54   26   27 ar   
    55   27   28 ar   
    56   27   62 1    
    57   28   29 ar   
    58   28   63 1    
    59   29   30 ar   
    60   29   64 1    
    61   30   31 ar   
    62   30   65 1    
    63   31   66 1    
    64   32   37 ar   
    65   32   33 ar   
    66   33   34 ar   
    67   33   67 1    
    68   34   35 ar   
    69   34   68 1    
    70   35   36 ar   
    71   35   69 1    
    72   36   37 ar   
    73   36   70 1    
    74   37   71 1    
    75   38   72 1    
@<TRIPOS>SUBSTRUCTURE
     1 UNK         1 GROUP             0       ****    0 ROOT    
