@<TRIPOS>MOLECULE
ZINC12559781_4832
57   59    1
SMALL
USER_CHARGES


@<TRIPOS>ATOM
      1 C1         -2.3919   53.2833   23.8559 C.3       1 UNK         0.0000 
      2 C2         -2.0881   51.8451   23.3859 C.3       1 UNK         0.0000 
      3 C3         -3.2811   50.9437   23.7859 C.3       1 UNK         0.0000 
      4 C4         -1.9515   51.7941   21.8473 C.3       1 UNK         0.0000 
      5 P5         -0.4597   51.2930   24.1770 P.3       1 UNK         0.0000 
      6 N6          0.6768   52.2165   23.5183 N.am      1 UNK         0.0000 
      7 C7          1.4715   51.8687   22.4351 C.2       1 UNK         0.0000 
      8 O8          1.1778   50.9512   21.6640 O.2       1 UNK         0.0000 
      9 C9          2.7281   52.6900   22.2335 C.ar      1 UNK         0.0000 
     10 C10         3.2095   53.5479   23.2326 C.ar      1 UNK         0.0000 
     11 C11         4.3907   54.2551   23.0445 C.ar      1 UNK         0.0000 
     12 C12         5.0890   54.1724   21.8353 C.ar      1 UNK         0.0000 
     13 C13         4.6113   53.3176   20.8325 C.ar      1 UNK         0.0000 
     14 C14         3.4537   52.5733   21.0374 C.ar      1 UNK         0.0000 
     15 N15         6.3023   54.9945   21.6181 N.pl3     1 UNK         0.0000 
     16 O16         6.8704   55.4624   22.5987 O.co2     1 UNK         0.0000 
     17 O17         6.6783   55.1903   20.4667 O.co2     1 UNK         0.0000 
     18 C18        -0.3584   51.5540   25.9924 C.ar      1 UNK         0.0000 
     19 C19         0.7519   52.1992   26.5600 C.ar      1 UNK         0.0000 
     20 C20         0.8299   52.3682   27.9462 C.ar      1 UNK         0.0000 
     21 N21        -0.1697   51.9083   28.7251 N.pl3     1 UNK         0.0000 
     22 C22        -1.2618   51.2967   28.2269 C.ar      1 UNK         0.0000 
     23 C23        -1.3776   51.1120   26.8483 C.ar      1 UNK         0.0000 
     24 N24        -0.0698   49.6738   23.7930 N.pl3     1 UNK         0.0000 
     25 C25        -0.9131   48.5609   23.9333 C.ar      1 UNK         0.0000 
     26 C26        -1.3940   48.1721   25.1829 C.ar      1 UNK         0.0000 
     27 C27        -2.3273   47.1456   25.2846 C.ar      1 UNK         0.0000 
     28 C28        -2.7698   46.4955   24.1338 C.ar      1 UNK         0.0000 
     29 C29        -2.2389   46.8244   22.8799 C.ar      1 UNK         0.0000 
     30 C30        -1.3023   47.8618   22.7904 C.ar      1 UNK         0.0000 
     31 C31        -2.6844   46.0539   21.6380 C.3       1 UNK         0.0000 
     32 F32        -1.8406   46.2198   20.6153 F         1 UNK         0.0000 
     33 F33        -2.7606   44.7475   21.9036 F         1 UNK         0.0000 
     34 F34        -3.8879   46.4882   21.2652 F         1 UNK         0.0000 
     35 H35        -1.5544   53.9576   23.6816 H         1 UNK         0.0000 
     36 H36        -3.2652   53.6974   23.3479 H         1 UNK         0.0000 
     37 H37        -2.6017   53.3003   24.9257 H         1 UNK         0.0000 
     38 H38        -3.1376   49.9042   23.4989 H         1 UNK         0.0000 
     39 H39        -3.4963   50.9738   24.8496 H         1 UNK         0.0000 
     40 H40        -4.1979   51.2682   23.2909 H         1 UNK         0.0000 
     41 H41        -1.6611   50.8013   21.5021 H         1 UNK         0.0000 
     42 H42        -2.8909   52.0455   21.3526 H         1 UNK         0.0000 
     43 H43        -1.2033   52.4954   21.4805 H         1 UNK         0.0000 
     44 H44         2.6871   53.6641   24.1711 H         1 UNK         0.0000 
     45 H45         4.7428   54.8967   23.8399 H         1 UNK         0.0000 
     46 H46         5.1333   53.2234   19.8897 H         1 UNK         0.0000 
     47 H47         3.1202   51.9177   20.2444 H         1 UNK         0.0000 
     48 H48         1.5558   52.5547   25.9307 H         1 UNK         0.0000 
     49 H49         1.6578   52.8407   28.4558 H         1 UNK         0.0000 
     50 H50        -1.9785   50.9245   28.9495 H         1 UNK         0.0000 
     51 H51        -2.2312   50.5737   26.4714 H         1 UNK         0.0000 
     52 H52         0.5487   49.6174   22.9826 H         1 UNK         0.0000 
     53 H53        -1.0492   48.6544   26.0813 H         1 UNK         0.0000 
     54 H54        -2.7085   46.8712   26.2596 H         1 UNK         0.0000 
     55 H55        -3.5212   45.7239   24.2206 H         1 UNK         0.0000 
     56 H56        -0.9131   48.1563   21.8254 H         1 UNK         0.0000 
     57 H57        -0.0919   52.0050   29.7289 H         1 UNK         0.0000 
@<TRIPOS>BOND
     1    1    2 1    
     2    1   35 1    
     3    1   36 1    
     4    1   37 1    
     5    2    3 1    
     6    2    4 1    
     7    2    5 1    
     8    3   38 1    
     9    3   39 1    
    10    3   40 1    
    11    4   41 1    
    12    4   42 1    
    13    4   43 1    
    14    5    6 2    
    15    5   18 1    
    16    5   24 1    
    17    6    7 am   BACKBONE|DICT|INTERRES
    18    7    8 2    
    19    7    9 1    
    20    9   14 ar   
    21    9   10 ar   
    22   10   11 ar   
    23   10   44 1    
    24   11   12 ar   
    25   11   45 1    
    26   12   13 ar   
    27   12   15 1    
    28   13   14 ar   
    29   13   46 1    
    30   14   47 1    
    31   15   16 2    
    32   15   17 1    
    33   18   23 ar   
    34   18   19 ar   
    35   19   20 ar   
    36   19   48 1    
    37   20   21 ar   
    38   20   49 1    
    39   21   22 ar   
    40   21   57 1    
    41   22   23 ar   
    42   22   50 1    
    43   23   51 1    
    44   24   25 1    
    45   24   52 1    
    46   25   30 ar   
    47   25   26 ar   
    48   26   27 ar   
    49   26   53 1    
    50   27   28 ar   
    51   27   54 1    
    52   28   29 ar   
    53   28   55 1    
    54   29   30 ar   
    55   29   31 1    
    56   30   56 1    
    57   31   32 1    
    58   31   33 1    
    59   31   34 1    
@<TRIPOS>SUBSTRUCTURE
     1 UNK         1 GROUP             0       ****    0 ROOT    
