@<TRIPOS>MOLECULE
ZINC09611938_1071
73   76    1
SMALL
USER_CHARGES


@<TRIPOS>ATOM
      1 C1          2.3409   49.0984   20.1714 C.3       1 UNK         0.0000 
      2 C2          1.3537   49.8997   21.0341 C.3       1 UNK         0.0000 
      3 H3          1.8761   50.0347   21.9820 H         1 UNK         0.0000 
      4 C4          0.9373   51.3063   20.4717 C.3       1 UNK         0.0000 
      5 H5         -0.0678   51.5218   20.8355 H         1 UNK         0.0000 
      6 C6          0.9177   51.5046   18.9566 C.2       1 UNK         0.0000 
      7 C7          1.9015   51.2998   17.9776 C.2       1 UNK         0.0000 
      8 C8          1.5015   51.5979   16.6741 C.2       1 UNK         0.0000 
      9 C9          0.1990   52.0465   16.6119 C.2       1 UNK         0.0000 
     10 S10        -0.5292   52.0963   18.1787 S.3       1 UNK         0.0000 
     11 C11         1.2878   52.7509   22.5925 C.3       1 UNK         0.0000 
     12 C12         1.9636   54.0484   23.0813 C.3       1 UNK         0.0000 
     13 N13         3.4328   54.0270   22.9607 N.pl3     1 UNK         0.0000 
     14 C14         3.8456   53.7072   21.5782 C.3       1 UNK         0.0000 
     15 C15         3.2347   52.4055   21.0241 C.3       1 UNK         0.0000 
     16 C16         4.3200   54.1600   24.0338 C.ar      1 UNK         0.0000 
     17 C17         3.8957   53.9819   25.3603 C.ar      1 UNK         0.0000 
     18 C18         4.7879   54.0977   26.4230 C.ar      1 UNK         0.0000 
     19 C19         6.1341   54.4022   26.1858 C.ar      1 UNK         0.0000 
     20 C20         6.5535   54.6217   24.8784 C.ar      1 UNK         0.0000 
     21 C21         5.6644   54.4969   23.8169 C.ar      1 UNK         0.0000 
     22 O22         7.0986   54.4964   27.1684 O.3       1 UNK         0.0000 
     23 C23         6.7686   54.0530   28.4810 C.3       1 UNK         0.0000 
     24 N24         0.1986   49.0458   21.3151 N.am      1 UNK         0.0000 
     25 C25        -0.5772   49.1074   22.4144 C.2       1 UNK         0.0000 
     26 O26        -0.4379   49.9739   23.2785 O.2       1 UNK         0.0000 
     27 C27        -1.5997   48.0023   22.5650 C.ar      1 UNK         0.0000 
     28 C28        -2.1794   47.3861   21.4470 C.ar      1 UNK         0.0000 
     29 C29        -3.1131   46.3490   21.5913 C.ar      1 UNK         0.0000 
     30 C30        -3.4726   45.9300   22.8784 C.ar      1 UNK         0.0000 
     31 C31        -2.9016   46.5219   24.0146 C.ar      1 UNK         0.0000 
     32 C32        -1.9752   47.5634   23.8412 C.ar      1 UNK         0.0000 
     33 O33        -3.2915   46.0330   25.2485 O.3       1 UNK         0.0000 
     34 C34        -2.7747   46.6283   26.4353 C.3       1 UNK         0.0000 
     35 O35        -4.3747   44.8981   23.0111 O.3       1 UNK         0.0000 
     36 C36        -5.6930   45.3124   23.3564 C.3       1 UNK         0.0000 
     37 O37        -3.7138   45.6992   20.5269 O.3       1 UNK         0.0000 
     38 C38        -3.4123   46.0993   19.1942 C.3       1 UNK         0.0000 
     39 H39         3.2213   49.6966   19.9404 H         1 UNK         0.0000 
     40 H40         2.7040   48.2106   20.6912 H         1 UNK         0.0000 
     41 H41         1.9061   48.7933   19.2188 H         1 UNK         0.0000 
     42 H42         2.8990   50.9353   18.1805 H         1 UNK         0.0000 
     43 H43         2.1470   51.4801   15.8158 H         1 UNK         0.0000 
     44 H44        -0.3589   52.3456   15.7376 H         1 UNK         0.0000 
     45 H45         0.2061   52.8916   22.5930 H         1 UNK         0.0000 
     46 H46         1.5509   51.8810   23.1962 H         1 UNK         0.0000 
     47 H47         1.6335   54.8965   22.4820 H         1 UNK         0.0000 
     48 H48         1.6239   54.2778   24.0891 H         1 UNK         0.0000 
     49 H49         4.9271   53.6394   21.4653 H         1 UNK         0.0000 
     50 H50         3.5215   54.5543   20.9703 H         1 UNK         0.0000 
     51 H51         3.5730   51.5175   21.5590 H         1 UNK         0.0000 
     52 H52         3.4714   52.3243   19.9642 H         1 UNK         0.0000 
     53 H53         2.8800   53.7084   25.5982 H         1 UNK         0.0000 
     54 H54         4.4160   53.9263   27.4223 H         1 UNK         0.0000 
     55 H55         7.5812   54.8751   24.6770 H         1 UNK         0.0000 
     56 H56         6.0449   54.6872   22.8251 H         1 UNK         0.0000 
     57 H57         7.6570   54.0966   29.1099 H         1 UNK         0.0000 
     58 H58         6.0047   54.6848   28.9372 H         1 UNK         0.0000 
     59 H59         6.4188   53.0189   28.4790 H         1 UNK         0.0000 
     60 H60         0.0424   48.2865   20.6711 H         1 UNK         0.0000 
     61 H61        -1.9081   47.7245   20.4592 H         1 UNK         0.0000 
     62 H62        -1.5218   48.0333   24.7026 H         1 UNK         0.0000 
     63 H63        -3.2196   46.1550   27.3099 H         1 UNK         0.0000 
     64 H64        -1.6958   46.4998   26.5099 H         1 UNK         0.0000 
     65 H65        -3.0079   47.6920   26.4823 H         1 UNK         0.0000 
     66 H66        -6.3821   44.4792   23.2062 H         1 UNK         0.0000 
     67 H67        -5.7488   45.6074   24.4083 H         1 UNK         0.0000 
     68 H68        -6.0409   46.1499   22.7444 H         1 UNK         0.0000 
     69 H69        -3.9817   45.4850   18.4973 H         1 UNK         0.0000 
     70 H70        -2.3538   45.9658   18.9652 H         1 UNK         0.0000 
     71 H71        -3.6889   47.1406   19.0186 H         1 UNK         0.0000 
     72 N72         1.6988   52.4967   21.1235 N.4       1 UNK         0.0000 
     73 H73         1.4327   53.3289   20.6041 H         1 UNK         0.0000 
@<TRIPOS>BOND
     1    1    2 1    
     2    1   39 1    
     3    1   40 1    
     4    1   41 1    
     5    2    3 1    
     6    2    4 1    
     7    2   24 1    
     8    4    5 1    
     9    4    6 1    
    10    4   72 1    
    11    6   10 1    
    12    6    7 2    
    13    7    8 1    
    14    7   42 1    
    15    8    9 2    
    16    8   43 1    
    17    9   10 1    
    18    9   44 1    
    19   11   12 1    
    20   11   45 1    
    21   11   46 1    
    22   11   72 1    
    23   12   13 1    
    24   12   47 1    
    25   12   48 1    
    26   13   14 1    
    27   13   16 1    
    28   14   15 1    
    29   14   49 1    
    30   14   50 1    
    31   15   51 1    
    32   15   52 1    
    33   15   72 1    
    34   16   21 ar   
    35   16   17 ar   
    36   17   18 ar   
    37   17   53 1    
    38   18   19 ar   
    39   18   54 1    
    40   19   20 ar   
    41   19   22 1    
    42   20   21 ar   
    43   20   55 1    
    44   21   56 1    
    45   22   23 1    
    46   23   57 1    
    47   23   58 1    
    48   23   59 1    
    49   24   25 am   BACKBONE|DICT|INTERRES
    50   24   60 1    
    51   25   26 2    
    52   25   27 1    
    53   27   32 ar   
    54   27   28 ar   
    55   28   29 ar   
    56   28   61 1    
    57   29   30 ar   
    58   29   37 1    
    59   30   31 ar   
    60   30   35 1    
    61   31   32 ar   
    62   31   33 1    
    63   32   62 1    
    64   33   34 1    
    65   34   63 1    
    66   34   64 1    
    67   34   65 1    
    68   35   36 1    
    69   36   66 1    
    70   36   67 1    
    71   36   68 1    
    72   37   38 1    
    73   38   69 1    
    74   38   70 1    
    75   38   71 1    
    76   72   73 1    
@<TRIPOS>SUBSTRUCTURE
     1 UNK         1 GROUP             0       ****    0 ROOT    
