@<TRIPOS>MOLECULE
ZINC64416857_911
67   71    1
SMALL
USER_CHARGES


@<TRIPOS>ATOM
      1 C1          4.8474   55.6177   25.4052 C.3       1 UNK         0.0000 
      2 C2          5.6215   54.4434   26.0334 C.3       1 UNK         0.0000 
      3 C3          6.3839   54.9167   27.2824 C.3       1 UNK         0.0000 
      4 C4          4.6663   53.3112   26.4471 C.3       1 UNK         0.0000 
      5 O5          6.6748   53.9697   25.1786 O.3       1 UNK         0.0000 
      6 C6          6.6610   53.6968   23.8333 C.2       1 UNK         0.0000 
      7 O7          7.6738   53.2967   23.2817 O.2       1 UNK         0.0000 
      8 N8          5.4240   53.8708   23.2122 N.am      1 UNK         0.0000 
      9 C9          5.2207   53.8552   21.7454 C.3       1 UNK         0.0000 
     10 H10         5.5070   52.8700   21.3721 H         1 UNK         0.0000 
     11 C11         3.7190   54.0518   21.3926 C.3       1 UNK         0.0000 
     12 C12         2.8712   52.8928   21.8901 C.2       1 UNK         0.0000 
     13 C13         2.6169   51.7006   21.3248 C.2       1 UNK         0.0000 
     14 C14         3.0958   51.1201   20.0634 C.2       1 UNK         0.0000 
     15 C15         2.7044   49.8890   19.6817 C.2       1 UNK         0.0000 
     16 C16         1.8223   49.1438   20.5676 C.2       1 UNK         0.0000 
     17 C17         1.3760   49.6635   21.7423 C.2       1 UNK         0.0000 
     18 C18         1.7539   50.9549   22.1326 C.2       1 UNK         0.0000 
     19 N19         1.4176   51.6396   23.1991 N.pl3     1 UNK         0.0000 
     20 C20         2.0439   52.9736   23.1576 C.3       1 UNK         0.0000 
     21 C21         6.0455   54.9612   21.0654 C.2       1 UNK         0.0000 
     22 O22         6.6464   55.8559   21.6752 O.2       1 UNK         0.0000 
     23 O23         6.0397   54.8193   19.7084 O.3       1 UNK         0.0000 
     24 C24         6.7951   55.6862   18.9515 C.ar      1 UNK         0.0000 
     25 C25         6.3052   56.9541   18.6167 C.ar      1 UNK         0.0000 
     26 C26         7.0880   57.8389   17.8759 C.ar      1 UNK         0.0000 
     27 C27         8.3559   57.4489   17.4431 C.ar      1 UNK         0.0000 
     28 C28         8.8677   56.1873   17.7945 C.ar      1 UNK         0.0000 
     29 C29         8.0664   55.2969   18.5198 C.ar      1 UNK         0.0000 
     30 C30        10.2091   55.7076   17.2820 C.2       1 UNK         0.0000 
     31 O31        10.5760   54.5307   17.2803 O.2       1 UNK         0.0000 
     32 N32        10.9729   56.7037   16.7572 N.am      1 UNK         0.0000 
     33 C33        12.2733   56.5147   16.1092 C.3       1 UNK         0.0000 
     34 C34        12.7520   57.9523   15.8751 C.3       1 UNK         0.0000 
     35 C35        11.4808   58.7929   15.8540 C.3       1 UNK         0.0000 
     36 C36        10.6100   58.1307   16.9198 C.3       1 UNK         0.0000 
     37 H37        10.9409   58.4579   17.9092 H         1 UNK         0.0000 
     38 N38         9.1714   58.3587   16.7513 N.pl3     1 UNK         0.0000 
     39 H39         5.5223   56.3722   24.9997 H         1 UNK         0.0000 
     40 H40         4.1656   55.2967   24.6228 H         1 UNK         0.0000 
     41 H41         4.1693   56.0967   26.0817 H         1 UNK         0.0000 
     42 H42         5.7107   55.2968   28.0505 H         1 UNK         0.0000 
     43 H43         6.9537   54.1031   27.7348 H         1 UNK         0.0000 
     44 H44         7.1025   55.6967   27.0424 H         1 UNK         0.0000 
     45 H45         4.1277   52.8970   25.6014 H         1 UNK         0.0000 
     46 H46         5.2148   52.4969   26.9188 H         1 UNK         0.0000 
     47 H47         3.9230   53.6586   27.1655 H         1 UNK         0.0000 
     48 H48         4.6114   53.7454   23.7920 H         1 UNK         0.0000 
     49 H49         3.3222   54.9824   21.7982 H         1 UNK         0.0000 
     50 H50         3.5756   54.1055   20.3109 H         1 UNK         0.0000 
     51 H51         3.7686   51.6539   19.4038 H         1 UNK         0.0000 
     52 H52         3.0643   49.4628   18.7528 H         1 UNK         0.0000 
     53 H53         1.5272   48.1442   20.2826 H         1 UNK         0.0000 
     54 H54         0.7300   49.0618   22.3653 H         1 UNK         0.0000 
     55 H55         2.6207   53.1037   24.0695 H         1 UNK         0.0000 
     56 H56         1.2511   53.7218   23.1106 H         1 UNK         0.0000 
     57 H57         5.3217   57.2581   18.9431 H         1 UNK         0.0000 
     58 H58         6.7044   58.8223   17.6385 H         1 UNK         0.0000 
     59 H59         8.4296   54.3092   18.7725 H         1 UNK         0.0000 
     60 H60        12.9789   55.9815   16.7487 H         1 UNK         0.0000 
     61 H61        12.1492   56.0037   15.1533 H         1 UNK         0.0000 
     62 H62        13.3806   58.2666   16.7103 H         1 UNK         0.0000 
     63 H63        13.3516   58.0500   14.9694 H         1 UNK         0.0000 
     64 H64        11.6690   59.8465   16.0632 H         1 UNK         0.0000 
     65 H65        11.0100   58.7282   14.8706 H         1 UNK         0.0000 
     66 H66         8.8407   59.2837   16.5169 H         1 UNK         0.0000 
     67 H67         0.8007   51.3142   23.9395 H         1 UNK         0.0000 
@<TRIPOS>BOND
     1    1    2 1    
     2    1   39 1    
     3    1   40 1    
     4    1   41 1    
     5    2    3 1    
     6    2    4 1    
     7    2    5 1    
     8    3   42 1    
     9    3   43 1    
    10    3   44 1    
    11    4   45 1    
    12    4   46 1    
    13    4   47 1    
    14    5    6 1    
    15    6    7 2    
    16    6    8 am   BACKBONE|DICT|INTERRES
    17    8    9 1    
    18    8   48 1    
    19    9   10 1    
    20    9   11 1    
    21    9   21 1    
    22   11   12 1    
    23   11   49 1    
    24   11   50 1    
    25   12   20 1    
    26   12   13 2    
    27   13   18 1    
    28   13   14 1    
    29   14   15 2    
    30   14   51 1    
    31   15   16 1    
    32   15   52 1    
    33   16   17 2    
    34   16   53 1    
    35   17   18 1    
    36   17   54 1    
    37   18   19 2    
    38   19   20 1    
    39   19   67 1    
    40   20   55 1    
    41   20   56 1    
    42   21   22 2    
    43   21   23 1    
    44   23   24 1    
    45   24   29 ar   
    46   24   25 ar   
    47   25   26 ar   
    48   25   57 1    
    49   26   27 ar   
    50   26   58 1    
    51   27   38 1    
    52   27   28 ar   
    53   28   29 ar   
    54   28   30 1    
    55   29   59 1    
    56   30   31 2    
    57   30   32 am   BACKBONE|DICT|INTERRES
    58   32   36 1    
    59   32   33 1    
    60   33   34 1    
    61   33   60 1    
    62   33   61 1    
    63   34   35 1    
    64   34   62 1    
    65   34   63 1    
    66   35   36 1    
    67   35   64 1    
    68   35   65 1    
    69   36   37 1    
    70   36   38 1    
    71   38   66 1    
@<TRIPOS>SUBSTRUCTURE
     1 UNK         1 GROUP             0       ****    0 ROOT    
