@<TRIPOS>MOLECULE
ZINC11325235_3372
49   52    1
SMALL
USER_CHARGES


@<TRIPOS>ATOM
      1 C1          3.1044   54.0228   22.1568 C.ar      1 UNK         0.0000 
      2 C2          4.0125   54.3745   23.1536 C.ar      1 UNK         0.0000 
      3 C3          5.2091   53.6679   23.2817 C.ar      1 UNK         0.0000 
      4 C4          5.5044   52.6729   22.3593 C.ar      1 UNK         0.0000 
      5 C5          4.6203   52.3224   21.3531 C.ar      1 UNK         0.0000 
      6 C6          3.3924   52.9749   21.2802 C.ar      1 UNK         0.0000 
      7 N7          2.4443   52.6266   20.3141 N.am      1 UNK         0.0000 
      8 C8          2.1086   51.3738   19.9468 C.2       1 UNK         0.0000 
      9 O9          2.5309   50.3402   20.4684 O.2       1 UNK         0.0000 
     10 C10         1.1687   51.3091   18.7777 C.ar      1 UNK         0.0000 
     11 C11         1.7533   51.0548   17.5297 C.ar      1 UNK         0.0000 
     12 C12         0.9831   50.9950   16.3747 C.ar      1 UNK         0.0000 
     13 C13        -0.3885   51.1994   16.4499 C.ar      1 UNK         0.0000 
     14 C14        -0.9852   51.4578   17.6815 C.ar      1 UNK         0.0000 
     15 C15        -0.2371   51.5150   18.8737 C.ar      1 UNK         0.0000 
     16 N16        -0.9676   51.7917   20.1505 N.pl3     1 UNK         0.0000 
     17 O17        -2.1565   52.0967   20.0817 O.co2     1 UNK         0.0000 
     18 O18        -0.3914   51.7317   21.2301 O.co2     1 UNK         0.0000 
     19 Cl19       -1.3521   51.1313   15.0199 Cl        1 UNK         0.0000 
     20 N20         6.1291   53.7986   24.3318 N.pl3     1 UNK         0.0000 
     21 S21         5.9469   54.7960   25.7647 S.o2      1 UNK         0.0000 
     22 O22         7.2134   54.6850   26.4799 O.2       1 UNK         0.0000 
     23 O23         5.5044   56.0967   25.2817 O.2       1 UNK         0.0000 
     24 C24         4.7231   54.0600   26.8639 C.ar      1 UNK         0.0000 
     25 C25         5.1602   53.5046   28.0773 C.ar      1 UNK         0.0000 
     26 C26         4.2610   52.8950   28.9503 C.ar      1 UNK         0.0000 
     27 C27         2.9160   52.8156   28.6063 C.ar      1 UNK         0.0000 
     28 C28         2.4603   53.3969   27.4121 C.ar      1 UNK         0.0000 
     29 C29         3.3599   54.0215   26.5460 C.ar      1 UNK         0.0000 
     30 O30         1.1445   53.2964   27.0066 O.3       1 UNK         0.0000 
     31 C31         0.2335   52.9019   28.0407 C.3       1 UNK         0.0000 
     32 C32         0.8310   51.7657   28.9014 C.3       1 UNK         0.0000 
     33 O33         2.0643   52.1899   29.4946 O.3       1 UNK         0.0000 
     34 H34         2.1643   54.5479   22.0853 H         1 UNK         0.0000 
     35 H35         3.7565   55.1752   23.8249 H         1 UNK         0.0000 
     36 H36         6.4034   52.0967   22.4817 H         1 UNK         0.0000 
     37 H37         4.8716   51.5260   20.6663 H         1 UNK         0.0000 
     38 H38         1.9346   53.4023   19.9072 H         1 UNK         0.0000 
     39 H39         2.8221   50.8967   17.4432 H         1 UNK         0.0000 
     40 H40         1.4573   50.7896   15.4258 H         1 UNK         0.0000 
     41 H41        -2.0554   51.6059   17.6978 H         1 UNK         0.0000 
     42 H42         6.8760   53.1245   24.3744 H         1 UNK         0.0000 
     43 H43         6.2040   53.5315   28.3560 H         1 UNK         0.0000 
     44 H44         4.6112   52.4637   29.8760 H         1 UNK         0.0000 
     45 H45         2.9836   54.4458   25.6321 H         1 UNK         0.0000 
     46 H46        -0.7076   52.5857   27.5900 H         1 UNK         0.0000 
     47 H47         0.0227   53.7621   28.6786 H         1 UNK         0.0000 
     48 H48         1.0124   50.8967   28.2665 H         1 UNK         0.0000 
     49 H49         0.1312   51.4645   29.6817 H         1 UNK         0.0000 
@<TRIPOS>BOND
     1    1    6 ar   
     2    1    2 ar   
     3    1   34 1    
     4    2    3 ar   
     5    2   35 1    
     6    3    4 ar   
     7    3   20 1    
     8    4    5 ar   
     9    4   36 1    
    10    5    6 ar   
    11    5   37 1    
    12    6    7 1    
    13    7    8 am   BACKBONE|DICT|INTERRES
    14    7   38 1    
    15    8    9 2    
    16    8   10 1    
    17   10   15 ar   
    18   10   11 ar   
    19   11   12 ar   
    20   11   39 1    
    21   12   13 ar   
    22   12   40 1    
    23   13   14 ar   
    24   13   19 1    
    25   14   15 ar   
    26   14   41 1    
    27   15   16 1    
    28   16   17 2    
    29   16   18 1    
    30   20   21 1    
    31   20   42 1    
    32   21   22 2    
    33   21   23 2    
    34   21   24 1    
    35   24   29 ar   
    36   24   25 ar   
    37   25   26 ar   
    38   25   43 1    
    39   26   27 ar   
    40   26   44 1    
    41   27   33 1    
    42   27   28 ar   
    43   28   29 ar   
    44   28   30 1    
    45   29   45 1    
    46   30   31 1    
    47   31   32 1    
    48   31   46 1    
    49   31   47 1    
    50   32   33 1    
    51   32   48 1    
    52   32   49 1    
@<TRIPOS>SUBSTRUCTURE
     1 UNK         1 GROUP             0       ****    0 ROOT    
