@<TRIPOS>MOLECULE
ZINC20689968_3616
62   66    1
SMALL
USER_CHARGES


@<TRIPOS>ATOM
      1 C1         -6.7495   53.1995   27.0148 C.3       1 UNK         0.0000 
      2 O2         -5.7230   53.4516   26.0593 O.3       1 UNK         0.0000 
      3 C3         -4.5919   52.6563   26.0580 C.ar      1 UNK         0.0000 
      4 C4         -4.3155   51.6758   27.0258 C.ar      1 UNK         0.0000 
      5 C5         -3.1343   50.9333   26.9684 C.ar      1 UNK         0.0000 
      6 C6         -2.2108   51.1431   25.9405 C.ar      1 UNK         0.0000 
      7 C7         -2.5029   52.0940   24.9552 C.ar      1 UNK         0.0000 
      8 C8         -3.6637   52.8574   25.0292 C.ar      1 UNK         0.0000 
      9 O9         -3.8896   53.8209   24.0821 O.3       1 UNK         0.0000 
     10 C10        -0.8847   50.3675   25.9434 C.3       1 UNK         0.0000 
     11 H11        -1.0761   49.4392   26.4812 H         1 UNK         0.0000 
     12 C12         0.2486   51.1433   26.6700 C.3       1 UNK         0.0000 
     13 H13         1.0809   50.4363   26.7218 H         1 UNK         0.0000 
     14 C14         0.1058   51.6786   28.0937 C.3       1 UNK         0.0000 
     15 C15         1.2057   52.7337   28.1015 C.2       1 UNK         0.0000 
     16 C16         1.5828   53.0538   26.8465 C.2       1 UNK         0.0000 
     17 C17         0.6654   52.3595   25.8609 C.3       1 UNK         0.0000 
     18 H18        -0.1769   53.0140   25.6639 H         1 UNK         0.0000 
     19 C19         1.1482   51.9057   24.4916 C.ar      1 UNK         0.0000 
     20 C20         2.0821   52.6342   23.7502 C.ar      1 UNK         0.0000 
     21 C21         2.5300   52.1798   22.5104 C.ar      1 UNK         0.0000 
     22 C22         2.0365   50.9846   21.9903 C.ar      1 UNK         0.0000 
     23 C23         1.0642   50.2680   22.6913 C.ar      1 UNK         0.0000 
     24 C24         0.6098   50.7287   23.9273 C.ar      1 UNK         0.0000 
     25 N25        -0.3754   49.9693   24.6128 N.pl3     1 UNK         0.0000 
     26 S26         3.7604   53.1248   21.6279 S.o2      1 UNK         0.0000 
     27 O27         3.7977   54.4630   22.2300 O.2       1 UNK         0.0000 
     28 O28         4.9676   52.2945   21.5636 O.2       1 UNK         0.0000 
     29 N29         3.1050   53.2952   20.0133 N.pl3     1 UNK         0.0000 
     30 C30         3.5276   52.4197   18.9044 C.3       1 UNK         0.0000 
     31 C31         2.2806   51.7618   18.2637 C.3       1 UNK         0.0000 
     32 C32         1.3006   52.7935   17.6660 C.3       1 UNK         0.0000 
     33 C33         2.0090   53.7381   16.6695 C.3       1 UNK         0.0000 
     34 C34         3.2885   54.3815   17.2524 C.3       1 UNK         0.0000 
     35 C35         4.2317   53.3159   17.8602 C.3       1 UNK         0.0000 
     36 H36        -7.5877   53.8713   26.8310 H         1 UNK         0.0000 
     37 H37        -6.4005   53.3761   28.0328 H         1 UNK         0.0000 
     38 H38        -7.1210   52.1765   26.9378 H         1 UNK         0.0000 
     39 H39        -4.9968   51.4813   27.8408 H         1 UNK         0.0000 
     40 H40        -2.9269   50.1977   27.7356 H         1 UNK         0.0000 
     41 H41        -1.8053   52.2738   24.1498 H         1 UNK         0.0000 
     42 H42        -4.7562   54.2116   24.2203 H         1 UNK         0.0000 
     43 H43        -0.8789   52.0969   28.2974 H         1 UNK         0.0000 
     44 H44         0.2830   50.8958   28.8307 H         1 UNK         0.0000 
     45 H45         1.6210   53.1321   29.0149 H         1 UNK         0.0000 
     46 H46         2.3255   53.7844   26.5594 H         1 UNK         0.0000 
     47 H47         2.4803   53.5521   24.1572 H         1 UNK         0.0000 
     48 H48         2.4024   50.6049   21.0487 H         1 UNK         0.0000 
     49 H49         0.6769   49.3517   22.2732 H         1 UNK         0.0000 
     50 H50        -0.7821   49.1326   24.2208 H         1 UNK         0.0000 
     51 H51         2.5737   54.1506   19.7979 H         1 UNK         0.0000 
     52 H52         4.2546   51.6964   19.2681 H         1 UNK         0.0000 
     53 H53         2.6072   51.0739   17.4803 H         1 UNK         0.0000 
     54 H54         1.7506   51.1546   18.9957 H         1 UNK         0.0000 
     55 H55         0.4815   52.2745   17.1651 H         1 UNK         0.0000 
     56 H56         0.8434   53.3751   18.4680 H         1 UNK         0.0000 
     57 H57         2.2744   53.1741   15.7736 H         1 UNK         0.0000 
     58 H58         1.3180   54.5176   16.3442 H         1 UNK         0.0000 
     59 H59         3.8094   54.9423   16.4741 H         1 UNK         0.0000 
     60 H60         3.0172   55.1148   18.0142 H         1 UNK         0.0000 
     61 H61         5.0931   53.8096   18.3115 H         1 UNK         0.0000 
     62 H62         4.6280   52.6849   17.0605 H         1 UNK         0.0000 
@<TRIPOS>BOND
     1    1    2 1    
     2    1   36 1    
     3    1   37 1    
     4    1   38 1    
     5    2    3 1    
     6    3    8 ar   
     7    3    4 ar   
     8    4    5 ar   
     9    4   39 1    
    10    5    6 ar   
    11    5   40 1    
    12    6    7 ar   
    13    6   10 1    
    14    7    8 ar   
    15    7   41 1    
    16    8    9 1    
    17    9   42 1    
    18   10   11 1    
    19   10   25 1    
    20   10   12 1    
    21   12   13 1    
    22   12   17 1    
    23   12   14 1    
    24   14   15 1    
    25   14   43 1    
    26   14   44 1    
    27   15   16 2    
    28   15   45 1    
    29   16   17 1    
    30   16   46 1    
    31   17   18 1    
    32   17   19 1    
    33   19   24 ar   
    34   19   20 ar   
    35   20   21 ar   
    36   20   47 1    
    37   21   22 ar   
    38   21   26 1    
    39   22   23 ar   
    40   22   48 1    
    41   23   24 ar   
    42   23   49 1    
    43   24   25 1    
    44   25   50 1    
    45   26   27 2    
    46   26   28 2    
    47   26   29 1    
    48   29   30 1    
    49   29   51 1    
    50   30   35 1    
    51   30   31 1    
    52   30   52 1    
    53   31   32 1    
    54   31   53 1    
    55   31   54 1    
    56   32   33 1    
    57   32   55 1    
    58   32   56 1    
    59   33   34 1    
    60   33   57 1    
    61   33   58 1    
    62   34   35 1    
    63   34   59 1    
    64   34   60 1    
    65   35   61 1    
    66   35   62 1    
@<TRIPOS>SUBSTRUCTURE
     1 UNK         1 GROUP             0       ****    0 ROOT    
