@<TRIPOS>MOLECULE
ZINC67165424_1413
43   46    1
SMALL
USER_CHARGES


@<TRIPOS>ATOM
      1 C1          3.0743   54.4024   23.8546 C.3       1 UNK         0.0000 
      2 C2          4.4646   54.2746   24.4612 C.ar      1 UNK         0.0000 
      3 C3          4.8863   54.0955   25.7903 C.ar      1 UNK         0.0000 
      4 N4          6.2073   54.1487   25.8425 N.2       1 UNK         0.0000 
      5 N5          6.6972   54.2877   24.5633 N.2       1 UNK         0.0000 
      6 N6          5.6450   54.3326   23.7314 N.pl3     1 UNK         0.0000 
      7 C7          5.8580   54.4969   22.3327 C.ar      1 UNK         0.0000 
      8 C8          6.8372   55.4107   21.9166 C.ar      1 UNK         0.0000 
      9 C9          7.0428   55.7004   20.5733 C.ar      1 UNK         0.0000 
     10 C10         6.2670   55.0933   19.5957 C.ar      1 UNK         0.0000 
     11 C11         5.2955   54.1310   19.9524 C.ar      1 UNK         0.0000 
     12 C12         5.1040   53.7886   21.3323 C.ar      1 UNK         0.0000 
     13 N13         4.2436   52.7845   21.6804 N.ar      1 UNK         0.0000 
     14 C14         3.5126   52.1718   20.7194 C.ar      1 UNK         0.0000 
     15 C15         3.5990   52.4968   19.3711 C.ar      1 UNK         0.0000 
     16 C16         4.5070   53.4745   18.9755 C.ar      1 UNK         0.0000 
     17 C17         4.0666   53.8328   26.9792 C.2       1 UNK         0.0000 
     18 O18         4.5107   53.8809   28.1314 O.2       1 UNK         0.0000 
     19 O19         2.7863   53.4740   26.6304 O.3       1 UNK         0.0000 
     20 C20         1.8401   53.1021   27.5669 C.ar      1 UNK         0.0000 
     21 C21         1.0768   51.9567   27.3277 C.ar      1 UNK         0.0000 
     22 C22         0.1123   51.5398   28.2444 C.ar      1 UNK         0.0000 
     23 C23        -0.1074   52.2700   29.4117 C.ar      1 UNK         0.0000 
     24 C24         0.6218   53.4421   29.6558 C.ar      1 UNK         0.0000 
     25 C25         1.5807   53.8526   28.7192 C.ar      1 UNK         0.0000 
     26 C26         0.3964   54.2850   30.8813 C.2       1 UNK         0.0000 
     27 O27         0.7039   55.4753   30.8820 O.2       1 UNK         0.0000 
     28 N28        -0.0952   53.6971   31.9741 N.am      1 UNK         0.0000 
     29 H29         2.4093   54.9946   24.4817 H         1 UNK         0.0000 
     30 H30         3.0718   54.8965   22.8835 H         1 UNK         0.0000 
     31 H31         2.5993   53.4303   23.7317 H         1 UNK         0.0000 
     32 H32         7.4480   55.9259   22.6461 H         1 UNK         0.0000 
     33 H33         7.8065   56.4076   20.2847 H         1 UNK         0.0000 
     34 H34         6.4175   55.3362   18.5524 H         1 UNK         0.0000 
     35 H35         2.8409   51.3934   21.0519 H         1 UNK         0.0000 
     36 H36         3.0073   51.9689   18.6369 H         1 UNK         0.0000 
     37 H37         4.6243   53.7184   17.9296 H         1 UNK         0.0000 
     38 H38         1.2307   51.3793   26.4288 H         1 UNK         0.0000 
     39 H39        -0.4642   50.6431   28.0549 H         1 UNK         0.0000 
     40 H40        -0.8599   51.9184   30.1042 H         1 UNK         0.0000 
     41 H41         2.1431   54.7614   28.8843 H         1 UNK         0.0000 
     42 H42        -0.4421   52.7418   31.9923 H         1 UNK         0.0000 
     43 H43        -0.1905   54.2487   32.8119 H         1 UNK         0.0000 
@<TRIPOS>BOND
     1    1    2 1    
     2    1   29 1    
     3    1   30 1    
     4    1   31 1    
     5    2    6 ar   
     6    2    3 ar   
     7    3    4 ar   
     8    3   17 1    
     9    4    5 ar   
    10    5    6 ar   
    11    6    7 1    
    12    7   12 ar   
    13    7    8 ar   
    14    8    9 ar   
    15    8   32 1    
    16    9   10 ar   
    17    9   33 1    
    18   10   11 ar   
    19   10   34 1    
    20   11   16 ar   
    21   11   12 ar   
    22   12   13 ar   
    23   13   14 ar   
    24   14   15 ar   
    25   14   35 1    
    26   15   16 ar   
    27   15   36 1    
    28   16   37 1    
    29   17   18 2    
    30   17   19 1    
    31   19   20 1    
    32   20   25 ar   
    33   20   21 ar   
    34   21   22 ar   
    35   21   38 1    
    36   22   23 ar   
    37   22   39 1    
    38   23   24 ar   
    39   23   40 1    
    40   24   25 ar   
    41   24   26 1    
    42   25   41 1    
    43   26   27 2    
    44   26   28 am   BACKBONE|DICT|INTERRES
    45   28   42 1    
    46   28   43 1    
@<TRIPOS>SUBSTRUCTURE
     1 UNK         1 GROUP             0       ****    0 ROOT    
