@<TRIPOS>MOLECULE
ZINC15835556_1389
43   45    1
SMALL
USER_CHARGES


@<TRIPOS>ATOM
      1 C1          6.1330   54.0964   27.9588 C.3       1 UNK         0.0000 
      2 C2          5.6648   54.2895   26.5281 C.ar      1 UNK         0.0000 
      3 C3          6.4238   54.4621   25.3837 C.ar      1 UNK         0.0000 
      4 C4          5.5818   54.4862   24.2682 C.ar      1 UNK         0.0000 
      5 C5          4.2748   54.3529   24.7569 C.ar      1 UNK         0.0000 
      6 N6          4.3257   54.2504   26.1494 N.pl3     1 UNK         0.0000 
      7 C7          3.2157   54.0920   27.0318 C.ar      1 UNK         0.0000 
      8 C8          2.2461   53.1174   26.7694 C.ar      1 UNK         0.0000 
      9 C9          1.1669   52.9448   27.6327 C.ar      1 UNK         0.0000 
     10 C10         1.0444   53.7572   28.7571 C.ar      1 UNK         0.0000 
     11 C11         1.9971   54.7352   29.0288 C.ar      1 UNK         0.0000 
     12 C12         3.0852   54.8957   28.1741 C.ar      1 UNK         0.0000 
     13 C13         2.9622   54.3292   23.9807 C.3       1 UNK         0.0000 
     14 C14         5.9921   54.4967   22.8805 C.2       1 UNK         0.0000 
     15 O15         5.3455   53.8905   22.0237 O.2       1 UNK         0.0000 
     16 N16         7.1044   55.2269   22.6264 N.am      1 UNK         0.0000 
     17 N17         7.6266   55.2967   21.3264 N.am      1 UNK         0.0000 
     18 C18         7.1377   56.1609   20.4183 C.2       1 UNK         0.0000 
     19 O19         6.3046   57.0260   20.6780 O.2       1 UNK         0.0000 
     20 C20         7.7367   56.0609   19.1099 C.2       1 UNK         0.0000 
     21 C21         8.7673   55.2268   18.6640 C.2       1 UNK         0.0000 
     22 C22         9.0982   55.4284   17.3203 C.2       1 UNK         0.0000 
     23 C23         8.3362   56.4236   16.7097 C.2       1 UNK         0.0000 
     24 S24         7.1931   57.1128   17.8293 S.3       1 UNK         0.0000 
     25 N25         8.4285   56.8725   15.3549 N.pl3     1 UNK         0.0000 
     26 O26         9.2652   56.3330   14.6376 O.co2     1 UNK         0.0000 
     27 O27         7.6769   57.7685   14.9867 O.co2     1 UNK         0.0000 
     28 H28         7.2081   53.9224   28.0105 H         1 UNK         0.0000 
     29 H29         5.9273   54.9626   28.5853 H         1 UNK         0.0000 
     30 H30         5.6585   53.2338   28.4292 H         1 UNK         0.0000 
     31 H31         7.5033   54.4963   25.3521 H         1 UNK         0.0000 
     32 H32         2.3267   52.4801   25.9028 H         1 UNK         0.0000 
     33 H33         0.4267   52.1836   27.4296 H         1 UNK         0.0000 
     34 H34         0.2019   53.6260   29.4220 H         1 UNK         0.0000 
     35 H35         1.8917   55.3664   29.8996 H         1 UNK         0.0000 
     36 H36         3.8107   55.6583   28.4082 H         1 UNK         0.0000 
     37 H37         3.0608   54.8172   23.0102 H         1 UNK         0.0000 
     38 H38         2.6263   53.3126   23.7806 H         1 UNK         0.0000 
     39 H39         2.1559   54.8538   24.4891 H         1 UNK         0.0000 
     40 H40         7.6725   55.6957   23.3169 H         1 UNK         0.0000 
     41 H41         8.3070   54.5796   21.1267 H         1 UNK         0.0000 
     42 H42         9.2750   54.4986   19.2804 H         1 UNK         0.0000 
     43 H43         9.8704   54.8697   16.8090 H         1 UNK         0.0000 
@<TRIPOS>BOND
     1    1    2 1    
     2    1   28 1    
     3    1   29 1    
     4    1   30 1    
     5    2    6 ar   
     6    2    3 ar   
     7    3    4 ar   
     8    3   31 1    
     9    4    5 ar   
    10    4   14 1    
    11    5    6 ar   
    12    5   13 1    
    13    6    7 1    
    14    7   12 ar   
    15    7    8 ar   
    16    8    9 ar   
    17    8   32 1    
    18    9   10 ar   
    19    9   33 1    
    20   10   11 ar   
    21   10   34 1    
    22   11   12 ar   
    23   11   35 1    
    24   12   36 1    
    25   13   37 1    
    26   13   38 1    
    27   13   39 1    
    28   14   15 2    
    29   14   16 am   BACKBONE|DICT|INTERRES
    30   16   17 1    
    31   16   40 1    
    32   17   18 am   BACKBONE|DICT|INTERRES
    33   17   41 1    
    34   18   19 2    
    35   18   20 1    
    36   20   24 1    
    37   20   21 2    
    38   21   22 1    
    39   21   42 1    
    40   22   23 2    
    41   22   43 1    
    42   23   24 1    
    43   23   25 1    
    44   25   26 2    
    45   25   27 1    
@<TRIPOS>SUBSTRUCTURE
     1 UNK         1 GROUP             0       ****    0 ROOT    
