@<TRIPOS>MOLECULE
ZINC09884413_1168
65   69    1
SMALL
USER_CHARGES


@<TRIPOS>ATOM
      1 C1         -3.4980   50.3141   25.2848 C.3       1 UNK         0.0000 
      2 C2         -2.5928   50.1999   24.0637 C.ar      1 UNK         0.0000 
      3 C3         -3.1771   50.2087   22.7930 C.ar      1 UNK         0.0000 
      4 C4         -2.3928   50.0696   21.6487 C.ar      1 UNK         0.0000 
      5 C5         -1.0121   49.8976   21.7649 C.ar      1 UNK         0.0000 
      6 C6         -0.4175   49.8731   23.0270 C.ar      1 UNK         0.0000 
      7 C7         -1.1954   50.0435   24.1743 C.ar      1 UNK         0.0000 
      8 N8         -0.5205   50.0556   25.4007 N.am      1 UNK         0.0000 
      9 C9         -0.4410   51.1246   26.2160 C.2       1 UNK         0.0000 
     10 O10        -0.9445   52.2241   25.9683 O.2       1 UNK         0.0000 
     11 C11         0.3518   50.8975   27.5053 C.3       1 UNK         0.0000 
     12 C12        -0.7381   52.0913   29.5210 C.3       1 UNK         0.0000 
     13 C13        -0.3598   53.2634   30.4163 C.3       1 UNK         0.0000 
     14 C14         1.1520   53.4546   30.2710 C.3       1 UNK         0.0000 
     15 C15         1.6137   52.5324   29.1320 C.3       1 UNK         0.0000 
     16 H16         1.9530   51.5699   29.5205 H         1 UNK         0.0000 
     17 C17         2.7129   53.1040   28.2473 C.2       1 UNK         0.0000 
     18 N18         2.5576   53.3487   26.9720 N.2       1 UNK         0.0000 
     19 C19         3.7007   53.7998   26.3914 C.ar      1 UNK         0.0000 
     20 C20         3.8428   54.0966   25.0286 C.ar      1 UNK         0.0000 
     21 C21         5.0976   54.4969   24.5668 C.ar      1 UNK         0.0000 
     22 C22         6.1773   54.6472   25.4366 C.ar      1 UNK         0.0000 
     23 C23         6.0540   54.3836   26.8027 C.ar      1 UNK         0.0000 
     24 C24         4.8062   53.9445   27.2676 C.ar      1 UNK         0.0000 
     25 S25         4.3046   53.4779   28.8824 S.3       1 UNK         0.0000 
     26 S26         0.0149   49.7975   20.3067 S.o2      1 UNK         0.0000 
     27 O27        -0.8727   49.4274   19.1969 O.2       1 UNK         0.0000 
     28 O28         1.1706   48.9679   20.6701 O.2       1 UNK         0.0000 
     29 N29         0.5384   51.4889   20.0884 N.pl3     1 UNK         0.0000 
     30 C30         0.1625   52.1357   18.8075 C.3       1 UNK         0.0000 
     31 C31         1.0575   51.6213   17.6601 C.3       1 UNK         0.0000 
     32 C32         2.5575   51.8065   17.9992 C.3       1 UNK         0.0000 
     33 C33         2.9369   51.3135   19.4193 C.3       1 UNK         0.0000 
     34 C34         1.9320   51.8091   20.4847 C.3       1 UNK         0.0000 
     35 H35        -3.1423   49.6747   26.0941 H         1 UNK         0.0000 
     36 H36        -3.5284   51.3417   25.6467 H         1 UNK         0.0000 
     37 H37        -4.5147   49.9885   25.0624 H         1 UNK         0.0000 
     38 H38        -4.2457   50.3271   22.6879 H         1 UNK         0.0000 
     39 H39        -2.8613   50.0954   20.6753 H         1 UNK         0.0000 
     40 H40         0.6547   49.7567   23.1120 H         1 UNK         0.0000 
     41 H41        -0.0139   49.2169   25.6473 H         1 UNK         0.0000 
     42 H42        -0.0956   50.0968   28.0800 H         1 UNK         0.0000 
     43 H43         1.3974   50.6831   27.2841 H         1 UNK         0.0000 
     44 H44        -1.7325   52.0967   29.0756 H         1 UNK         0.0000 
     45 H45        -0.6142   51.1297   30.0229 H         1 UNK         0.0000 
     46 H46        -0.8947   54.1537   30.0818 H         1 UNK         0.0000 
     47 H47        -0.6314   53.0699   31.4558 H         1 UNK         0.0000 
     48 H48         1.3252   54.5019   30.0133 H         1 UNK         0.0000 
     49 H49         1.6878   53.2428   31.1966 H         1 UNK         0.0000 
     50 H50         3.0120   53.9856   24.3478 H         1 UNK         0.0000 
     51 H51         5.2387   54.6974   23.5143 H         1 UNK         0.0000 
     52 H52         7.1253   54.9657   25.0298 H         1 UNK         0.0000 
     53 H53         6.8927   54.4919   27.4768 H         1 UNK         0.0000 
     54 H54         0.3728   53.2023   18.9088 H         1 UNK         0.0000 
     55 H55        -0.9144   52.0624   18.6517 H         1 UNK         0.0000 
     56 H56         0.8199   52.1488   16.7357 H         1 UNK         0.0000 
     57 H57         0.8498   50.5682   17.4646 H         1 UNK         0.0000 
     58 H58         3.1698   51.2982   17.2534 H         1 UNK         0.0000 
     59 H59         2.8079   52.8653   17.9193 H         1 UNK         0.0000 
     60 H60         2.9956   50.2246   19.4222 H         1 UNK         0.0000 
     61 H61         3.9408   51.6570   19.6708 H         1 UNK         0.0000 
     62 H62         2.0159   52.8966   20.5026 H         1 UNK         0.0000 
     63 H63         2.1161   51.4859   21.5095 H         1 UNK         0.0000 
     64 N64         0.3091   52.1591   28.3975 N.4       1 UNK         0.0000 
     65 H65         0.0657   52.9280   27.7830 H         1 UNK         0.0000 
@<TRIPOS>BOND
     1    1    2 1    
     2    1   35 1    
     3    1   36 1    
     4    1   37 1    
     5    2    7 ar   
     6    2    3 ar   
     7    3    4 ar   
     8    3   38 1    
     9    4    5 ar   
    10    4   39 1    
    11    5    6 ar   
    12    5   26 1    
    13    6    7 ar   
    14    6   40 1    
    15    7    8 1    
    16    8    9 am   BACKBONE|DICT|INTERRES
    17    8   41 1    
    18    9   10 2    
    19    9   11 1    
    20   11   42 1    
    21   11   43 1    
    22   11   64 1    
    23   12   13 1    
    24   12   44 1    
    25   12   45 1    
    26   12   64 1    
    27   13   14 1    
    28   13   46 1    
    29   13   47 1    
    30   14   15 1    
    31   14   48 1    
    32   14   49 1    
    33   15   16 1    
    34   15   17 1    
    35   15   64 1    
    36   17   25 1    
    37   17   18 2    
    38   18   19 1    
    39   19   24 ar   
    40   19   20 ar   
    41   20   21 ar   
    42   20   50 1    
    43   21   22 ar   
    44   21   51 1    
    45   22   23 ar   
    46   22   52 1    
    47   23   24 ar   
    48   23   53 1    
    49   24   25 1    
    50   26   27 2    
    51   26   28 2    
    52   26   29 1    
    53   29   34 1    
    54   29   30 1    
    55   30   31 1    
    56   30   54 1    
    57   30   55 1    
    58   31   32 1    
    59   31   56 1    
    60   31   57 1    
    61   32   33 1    
    62   32   58 1    
    63   32   59 1    
    64   33   34 1    
    65   33   60 1    
    66   33   61 1    
    67   34   62 1    
    68   34   63 1    
    69   64   65 1    
@<TRIPOS>SUBSTRUCTURE
     1 UNK         1 GROUP             0       ****    0 ROOT    
