@<TRIPOS>MOLECULE
ZINC64117481_3699
60   63    1
SMALL
USER_CHARGES


@<TRIPOS>ATOM
      1 C1          2.4707   53.6992   25.5788 C.3       1 UNK         0.0000 
      2 C2          3.8180   54.0533   26.1976 C.ar      1 UNK         0.0000 
      3 C3          3.9658   53.9453   27.5852 C.ar      1 UNK         0.0000 
      4 C4          5.1829   54.2374   28.1925 C.ar      1 UNK         0.0000 
      5 C5          6.2548   54.6707   27.4164 C.ar      1 UNK         0.0000 
      6 C6          6.1079   54.8162   26.0386 C.ar      1 UNK         0.0000 
      7 C7          4.9066   54.4694   25.4027 C.ar      1 UNK         0.0000 
      8 C8          4.7657   54.4944   23.8709 C.3       1 UNK         0.0000 
      9 C9          6.0205   54.8012   23.0080 C.3       1 UNK         0.0000 
     10 H10         6.4320   55.7599   23.3309 H         1 UNK         0.0000 
     11 C11         7.1138   53.7260   23.1505 C.3       1 UNK         0.0000 
     12 N12         5.6300   54.8966   21.5964 N.am      1 UNK         0.0000 
     13 C13         6.2198   55.6531   20.6452 C.2       1 UNK         0.0000 
     14 O14         7.1044   56.4724   20.8870 O.2       1 UNK         0.0000 
     15 C15         5.6994   55.5263   19.1855 C.3       1 UNK         0.0000 
     16 H16         5.0421   56.3896   19.0647 H         1 UNK         0.0000 
     17 C17         6.8015   55.6018   18.0828 C.3       1 UNK         0.0000 
     18 C18         7.3851   56.9977   17.8847 C.2       1 UNK         0.0000 
     19 C19         8.6618   57.4131   17.7856 C.2       1 UNK         0.0000 
     20 C20         9.9235   56.6625   17.8328 C.2       1 UNK         0.0000 
     21 C21        11.1067   57.2896   17.6818 C.2       1 UNK         0.0000 
     22 C22        11.0985   58.7318   17.4802 C.2       1 UNK         0.0000 
     23 C23         9.9426   59.4454   17.4441 C.2       1 UNK         0.0000 
     24 C24         8.7105   58.7984   17.5891 C.2       1 UNK         0.0000 
     25 N25         7.5028   59.2967   17.5707 N.pl3     1 UNK         0.0000 
     26 C26         6.5100   58.2238   17.7290 C.3       1 UNK         0.0000 
     27 N27         4.8293   54.3594   18.9924 N.am      1 UNK         0.0000 
     28 C28         3.8247   54.2692   18.1037 C.2       1 UNK         0.0000 
     29 O29         3.5378   55.1617   17.3057 O.2       1 UNK         0.0000 
     30 C30         3.0826   53.0365   18.1514 C.2       1 UNK         0.0000 
     31 C31         2.2876   52.4984   17.1403 C.2       1 UNK         0.0000 
     32 C32         1.6414   51.3149   17.5177 C.2       1 UNK         0.0000 
     33 C33         1.9038   50.9581   18.8322 C.2       1 UNK         0.0000 
     34 S34         2.9485   52.0955   19.6200 S.3       1 UNK         0.0000 
     35 H35         2.1487   54.4814   24.8919 H         1 UNK         0.0000 
     36 H36         2.5410   52.7698   25.0125 H         1 UNK         0.0000 
     37 H37         1.6867   53.5993   26.3305 H         1 UNK         0.0000 
     38 H38         3.1382   53.6169   28.1969 H         1 UNK         0.0000 
     39 H39         5.2971   54.1392   29.2648 H         1 UNK         0.0000 
     40 H40         7.1973   54.8973   27.8887 H         1 UNK         0.0000 
     41 H41         6.9511   55.1859   25.4821 H         1 UNK         0.0000 
     42 H42         4.3845   53.5194   23.5654 H         1 UNK         0.0000 
     43 H43         3.9681   55.1997   23.6361 H         1 UNK         0.0000 
     44 H44         7.5029   53.6201   24.1610 H         1 UNK         0.0000 
     45 H45         6.7213   52.7457   22.8816 H         1 UNK         0.0000 
     46 H46         7.9594   53.9792   22.5094 H         1 UNK         0.0000 
     47 H47         4.8375   54.3368   21.3214 H         1 UNK         0.0000 
     48 H48         7.5991   54.8867   18.2864 H         1 UNK         0.0000 
     49 H49         6.3794   55.3105   17.1191 H         1 UNK         0.0000 
     50 H50         9.9400   55.5953   18.0105 H         1 UNK         0.0000 
     51 H51        12.0343   56.7393   17.7383 H         1 UNK         0.0000 
     52 H52        12.0413   59.2430   17.3528 H         1 UNK         0.0000 
     53 H53         9.9951   60.5123   17.2816 H         1 UNK         0.0000 
     54 H54         5.8775   58.2126   16.8401 H         1 UNK         0.0000 
     55 H55         5.9049   58.4599   18.6038 H         1 UNK         0.0000 
     56 H56         5.0496   53.5392   19.5356 H         1 UNK         0.0000 
     57 H57         2.1876   52.9391   16.1596 H         1 UNK         0.0000 
     58 H58         1.0124   50.7394   16.8544 H         1 UNK         0.0000 
     59 H59         1.5443   50.0908   19.3667 H         1 UNK         0.0000 
     60 H60         7.2269   60.2831   17.4694 H         1 UNK         0.0000 
@<TRIPOS>BOND
     1    1    2 1    
     2    1   35 1    
     3    1   36 1    
     4    1   37 1    
     5    2    7 ar   
     6    2    3 ar   
     7    3    4 ar   
     8    3   38 1    
     9    4    5 ar   
    10    4   39 1    
    11    5    6 ar   
    12    5   40 1    
    13    6    7 ar   
    14    6   41 1    
    15    7    8 1    
    16    8    9 1    
    17    8   42 1    
    18    8   43 1    
    19    9   10 1    
    20    9   11 1    
    21    9   12 1    
    22   11   44 1    
    23   11   45 1    
    24   11   46 1    
    25   12   13 am   BACKBONE|DICT|INTERRES
    26   12   47 1    
    27   13   14 2    
    28   13   15 1    
    29   15   16 1    
    30   15   17 1    
    31   15   27 1    
    32   17   18 1    
    33   17   48 1    
    34   17   49 1    
    35   18   26 1    
    36   18   19 2    
    37   19   24 1    
    38   19   20 1    
    39   20   21 2    
    40   20   50 1    
    41   21   22 1    
    42   21   51 1    
    43   22   23 2    
    44   22   52 1    
    45   23   24 1    
    46   23   53 1    
    47   24   25 2    
    48   25   26 1    
    49   25   60 1    
    50   26   54 1    
    51   26   55 1    
    52   27   28 am   BACKBONE|DICT|INTERRES
    53   27   56 1    
    54   28   29 2    
    55   28   30 1    
    56   30   34 1    
    57   30   31 2    
    58   31   32 1    
    59   31   57 1    
    60   32   33 2    
    61   32   58 1    
    62   33   34 1    
    63   33   59 1    
@<TRIPOS>SUBSTRUCTURE
     1 UNK         1 GROUP             0       ****    0 ROOT    
