@<TRIPOS>MOLECULE
ZINC13426640_1944
49   52    1
SMALL
USER_CHARGES


@<TRIPOS>ATOM
      1 C1          6.4665   54.6956   26.9094 C.ar      1 UNK         0.0000 
      2 C2          5.8828   54.8096   25.6532 C.ar      1 UNK         0.0000 
      3 C3          4.5447   54.4712   25.4664 C.ar      1 UNK         0.0000 
      4 C4          3.7658   54.0059   26.5568 C.ar      1 UNK         0.0000 
      5 C5          2.4141   53.6279   26.4002 C.ar      1 UNK         0.0000 
      6 C6          1.6617   53.1733   27.4873 C.ar      1 UNK         0.0000 
      7 C7          2.2265   53.1196   28.7805 C.ar      1 UNK         0.0000 
      8 C8          3.5779   53.4630   28.9372 C.ar      1 UNK         0.0000 
      9 C9          4.3633   53.9042   27.8465 C.ar      1 UNK         0.0000 
     10 C10         5.7266   54.2546   28.0017 C.ar      1 UNK         0.0000 
     11 C11         1.4433   52.7335   29.9999 C.2       1 UNK         0.0000 
     12 O12         0.2552   53.1225   30.0754 O.co2     1 UNK         0.0000 
     13 N13         0.3385   52.8028   27.2013 N.am      1 UNK         0.0000 
     14 C14        -0.0245   51.5750   26.7793 C.2       1 UNK         0.0000 
     15 O15         0.7054   50.5899   26.8687 O.2       1 UNK         0.0000 
     16 C16        -1.4070   51.4421   26.1084 C.3       1 UNK         0.0000 
     17 H17        -1.5488   52.3818   25.5780 H         1 UNK         0.0000 
     18 C18        -2.5214   51.2564   27.1785 C.3       1 UNK         0.0000 
     19 C19        -3.8768   50.7861   26.5802 C.3       1 UNK         0.0000 
     20 C20        -3.6944   49.6482   25.5555 C.3       1 UNK         0.0000 
     21 N21        -2.7361   50.0553   24.5003 N.pl3     1 UNK         0.0000 
     22 C22        -1.3858   50.2830   25.0682 C.3       1 UNK         0.0000 
     23 S23        -3.3510   51.2413   23.3252 S.o2      1 UNK         0.0000 
     24 O24        -4.7319   50.8799   22.9789 O.2       1 UNK         0.0000 
     25 O25        -3.0039   52.6129   23.7213 O.2       1 UNK         0.0000 
     26 C26        -2.3345   50.8385   21.8888 C.2       1 UNK         0.0000 
     27 C27        -2.6105   49.8301   20.9750 C.2       1 UNK         0.0000 
     28 C28        -1.6337   49.7288   19.9776 C.2       1 UNK         0.0000 
     29 C29        -0.6224   50.6719   20.1239 C.2       1 UNK         0.0000 
     30 S30        -0.8711   51.6949   21.5052 S.3       1 UNK         0.0000 
     31 H31         7.5002   54.9557   27.0540 H         1 UNK         0.0000 
     32 H32         6.4720   55.1567   24.8159 H         1 UNK         0.0000 
     33 H33         4.0971   54.5499   24.4859 H         1 UNK         0.0000 
     34 H34         1.9724   53.6855   25.4153 H         1 UNK         0.0000 
     35 H35         4.0439   53.4079   29.9121 H         1 UNK         0.0000 
     36 H36         6.1919   54.1839   28.9738 H         1 UNK         0.0000 
     37 H37        -0.3625   53.5221   27.2742 H         1 UNK         0.0000 
     38 H38        -2.2386   50.4847   27.8936 H         1 UNK         0.0000 
     39 H39        -2.7181   52.1919   27.6836 H         1 UNK         0.0000 
     40 H40        -4.5363   50.4536   27.3849 H         1 UNK         0.0000 
     41 H41        -4.3888   51.6249   26.1058 H         1 UNK         0.0000 
     42 H42        -3.2456   48.8154   26.1003 H         1 UNK         0.0000 
     43 H43        -4.5971   49.2373   25.1057 H         1 UNK         0.0000 
     44 H44        -0.6621   50.3603   24.2567 H         1 UNK         0.0000 
     45 H45        -1.1622   49.3651   25.6179 H         1 UNK         0.0000 
     46 H46        -3.4752   49.1841   21.0359 H         1 UNK         0.0000 
     47 H47        -1.6677   48.9906   19.1885 H         1 UNK         0.0000 
     48 H48         0.2508   50.8075   19.4975 H         1 UNK         0.0000 
     49 O49         2.0554   52.0996   30.8926 O.co2     1 UNK         0.0000 
@<TRIPOS>BOND
     1    1   10 ar   
     2    1    2 ar   
     3    1   31 1    
     4    2    3 ar   
     5    2   32 1    
     6    3    4 ar   
     7    3   33 1    
     8    4    9 ar   
     9    4    5 ar   
    10    5    6 ar   
    11    5   34 1    
    12    6    7 ar   
    13    6   13 1    
    14    7    8 ar   
    15    7   11 1    
    16    8    9 ar   
    17    8   35 1    
    18    9   10 ar   
    19   10   36 1    
    20   11   12 2    
    21   11   49 1    
    22   13   14 am   BACKBONE|DICT|INTERRES
    23   13   37 1    
    24   14   15 2    
    25   14   16 1    
    26   16   17 1    
    27   16   22 1    
    28   16   18 1    
    29   18   19 1    
    30   18   38 1    
    31   18   39 1    
    32   19   20 1    
    33   19   40 1    
    34   19   41 1    
    35   20   21 1    
    36   20   42 1    
    37   20   43 1    
    38   21   22 1    
    39   21   23 1    
    40   22   44 1    
    41   22   45 1    
    42   23   24 2    
    43   23   25 2    
    44   23   26 1    
    45   26   30 1    
    46   26   27 2    
    47   27   28 1    
    48   27   46 1    
    49   28   29 2    
    50   28   47 1    
    51   29   30 1    
    52   29   48 1    
@<TRIPOS>SUBSTRUCTURE
     1 UNK         1 GROUP             0       ****    0 ROOT    
