@<TRIPOS>MOLECULE
ZINC63477697_1395
46   48    1
SMALL
USER_CHARGES


@<TRIPOS>ATOM
      1 C1          5.9044   54.6643   27.3561 C.3       1 UNK         0.0000 
      2 C2          5.7512   54.6569   25.8496 C.ar      1 UNK         0.0000 
      3 N3          6.6479   55.1580   25.0394 N.2       1 UNK         0.0000 
      4 C4          6.1618   54.8967   23.7872 C.ar      1 UNK         0.0000 
      5 C5          6.7044   55.2552   22.5448 C.ar      1 UNK         0.0000 
      6 C6          6.0132   54.8967   21.3886 C.ar      1 UNK         0.0000 
      7 C7          4.8337   54.1571   21.4564 C.ar      1 UNK         0.0000 
      8 C8          4.2681   53.7773   22.6753 C.ar      1 UNK         0.0000 
      9 C9          4.9310   54.1901   23.8422 C.ar      1 UNK         0.0000 
     10 N10         4.6635   54.0967   25.2034 N.pl3     1 UNK         0.0000 
     11 N11         3.5892   53.4942   25.8471 N.am      1 UNK         0.0000 
     12 C12         2.2964   53.5674   25.4784 C.2       1 UNK         0.0000 
     13 O13         1.8719   54.1514   24.4817 O.2       1 UNK         0.0000 
     14 C14         1.4051   52.8589   26.3556 C.2       1 UNK         0.0000 
     15 C15         1.4669   52.5462   27.7147 C.2       1 UNK         0.0000 
     16 C16         0.2532   51.9374   28.0478 C.2       1 UNK         0.0000 
     17 C17        -0.5144   51.9513   26.8955 C.2       1 UNK         0.0000 
     18 O18         0.1867   52.4967   25.8703 O.3       1 UNK         0.0000 
     19 S19        -2.1717   51.3254   26.5536 S.o2      1 UNK         0.0000 
     20 O20        -2.6970   52.0786   25.4091 O.2       1 UNK         0.0000 
     21 O21        -2.8761   51.2967   27.8394 O.2       1 UNK         0.0000 
     22 N22        -1.8322   49.6573   26.0817 N.pl3     1 UNK         0.0000 
     23 C23        -1.0706   49.2235   24.8803 C.3       1 UNK         0.0000 
     24 C24         0.4255   49.1499   25.2272 C.3       1 UNK         0.0000 
     25 C25        -1.2922   50.1536   23.6696 C.3       1 UNK         0.0000 
     26 C26        -1.5631   47.8067   24.5269 C.3       1 UNK         0.0000 
     27 H27         6.7860   55.2172   27.6816 H         1 UNK         0.0000 
     28 H28         5.0475   55.1253   27.8469 H         1 UNK         0.0000 
     29 H29         6.0018   53.6537   27.7534 H         1 UNK         0.0000 
     30 H30         7.6267   55.8094   22.4817 H         1 UNK         0.0000 
     31 H31         6.4080   55.1735   20.4212 H         1 UNK         0.0000 
     32 H32         4.3346   53.8819   20.5373 H         1 UNK         0.0000 
     33 H33         3.3412   53.2240   22.6979 H         1 UNK         0.0000 
     34 H34         3.8158   52.9253   26.6486 H         1 UNK         0.0000 
     35 H35         2.2896   52.7364   28.3880 H         1 UNK         0.0000 
     36 H36        -0.0465   51.5465   29.0107 H         1 UNK         0.0000 
     37 H37        -1.6962   49.0442   26.9114 H         1 UNK         0.0000 
     38 H38         1.0061   48.7618   24.3903 H         1 UNK         0.0000 
     39 H39         0.6102   48.4967   26.0817 H         1 UNK         0.0000 
     40 H40         0.8443   50.1224   25.4661 H         1 UNK         0.0000 
     41 H41        -2.3525   50.2666   23.4407 H         1 UNK         0.0000 
     42 H42        -0.8787   51.1480   23.8366 H         1 UNK         0.0000 
     43 H43        -0.8073   49.7610   22.7752 H         1 UNK         0.0000 
     44 H44        -2.6290   47.8020   24.2949 H         1 UNK         0.0000 
     45 H45        -1.0369   47.4022   23.6615 H         1 UNK         0.0000 
     46 H46        -1.4073   47.1136   25.3560 H         1 UNK         0.0000 
@<TRIPOS>BOND
     1    1    2 1    
     2    1   27 1    
     3    1   28 1    
     4    1   29 1    
     5    2   10 ar   
     6    2    3 ar   
     7    3    4 ar   
     8    4    9 ar   
     9    4    5 ar   
    10    5    6 ar   
    11    5   30 1    
    12    6    7 ar   
    13    6   31 1    
    14    7    8 ar   
    15    7   32 1    
    16    8    9 ar   
    17    8   33 1    
    18    9   10 ar   
    19   10   11 1    
    20   11   12 am   BACKBONE|DICT|INTERRES
    21   11   34 1    
    22   12   13 2    
    23   12   14 1    
    24   14   18 1    
    25   14   15 2    
    26   15   16 1    
    27   15   35 1    
    28   16   17 2    
    29   16   36 1    
    30   17   18 1    
    31   17   19 1    
    32   19   20 2    
    33   19   21 2    
    34   19   22 1    
    35   22   23 1    
    36   22   37 1    
    37   23   24 1    
    38   23   25 1    
    39   23   26 1    
    40   24   38 1    
    41   24   39 1    
    42   24   40 1    
    43   25   41 1    
    44   25   42 1    
    45   25   43 1    
    46   26   44 1    
    47   26   45 1    
    48   26   46 1    
@<TRIPOS>SUBSTRUCTURE
     1 UNK         1 GROUP             0       ****    0 ROOT    
