@<TRIPOS>MOLECULE
ZINC40921717_5612
53   56    1
SMALL
USER_CHARGES


@<TRIPOS>ATOM
      1 C1         -3.0861   48.7854   22.3318 C.3       1 UNK         0.0000 
      2 C2         -3.8813   50.0886   22.1553 C.3       1 UNK         0.0000 
      3 C3         -4.5435   50.5920   23.4565 C.3       1 UNK         0.0000 
      4 O4         -3.5982   50.8165   24.4985 O.3       1 UNK         0.0000 
      5 C5         -2.7957   51.9101   24.5226 C.2       1 UNK         0.0000 
      6 O6         -2.8219   52.7957   23.6617 O.2       1 UNK         0.0000 
      7 C7         -1.7980   51.9053   25.6149 C.2       1 UNK         0.0000 
      8 C8         -2.0052   51.3129   26.8293 C.2       1 UNK         0.0000 
      9 N9         -1.0309   51.2968   27.8127 N.pl3     1 UNK         0.0000 
     10 C10         0.1789   51.9240   27.6131 C.ar      1 UNK         0.0000 
     11 N11         1.1968   52.0416   28.4256 N.2       1 UNK         0.0000 
     12 N12         2.1327   52.7882   27.7144 N.2       1 UNK         0.0000 
     13 N13         1.6609   53.0682   26.4434 N.2       1 UNK         0.0000 
     14 N14         0.4513   52.4938   26.3872 N.pl3     1 UNK         0.0000 
     15 C15        -0.4244   52.4938   25.2045 C.3       1 UNK         0.0000 
     16 H16        -0.5611   53.5261   24.8817 H         1 UNK         0.0000 
     17 C17         0.2551   51.8386   23.9980 C.ar      1 UNK         0.0000 
     18 C18         0.5486   52.6224   22.8841 C.ar      1 UNK         0.0000 
     19 C19         1.1320   52.0593   21.7636 C.ar      1 UNK         0.0000 
     20 C20         1.5182   50.7122   21.7710 C.ar      1 UNK         0.0000 
     21 C21         1.2345   49.9294   22.8920 C.ar      1 UNK         0.0000 
     22 C22         0.5938   50.4820   24.0001 C.ar      1 UNK         0.0000 
     23 O23         2.2141   50.1068   20.7397 O.3       1 UNK         0.0000 
     24 C24         2.6105   50.8631   19.5842 C.3       1 UNK         0.0000 
     25 C25         3.5550   52.0307   19.8983 C.ar      1 UNK         0.0000 
     26 C26         4.3171   52.0463   21.0704 C.ar      1 UNK         0.0000 
     27 C27         5.1038   53.1512   21.3777 C.ar      1 UNK         0.0000 
     28 C28         5.1739   54.2182   20.4864 C.ar      1 UNK         0.0000 
     29 C29         4.4446   54.1973   19.2999 C.ar      1 UNK         0.0000 
     30 C30         3.6319   53.1043   19.0083 C.ar      1 UNK         0.0000 
     31 Br31        6.3042   55.7000   20.8812 Br        1 UNK         0.0000 
     32 C32        -3.3005   50.6903   27.3491 C.3       1 UNK         0.0000 
     33 H33        -2.6619   48.4565   21.3828 H         1 UNK         0.0000 
     34 H34        -3.7192   47.9816   22.7101 H         1 UNK         0.0000 
     35 H35        -2.2589   48.9165   23.0308 H         1 UNK         0.0000 
     36 H36        -3.2244   50.8601   21.7517 H         1 UNK         0.0000 
     37 H37        -4.6574   49.9353   21.4047 H         1 UNK         0.0000 
     38 H38        -5.1201   51.5016   23.2735 H         1 UNK         0.0000 
     39 H39        -5.2573   49.8461   23.8091 H         1 UNK         0.0000 
     40 H40        -1.1704   50.6869   28.6086 H         1 UNK         0.0000 
     41 H41         0.3308   53.6794   22.8822 H         1 UNK         0.0000 
     42 H42         1.3169   52.7057   20.9196 H         1 UNK         0.0000 
     43 H43         1.5323   48.8920   22.9097 H         1 UNK         0.0000 
     44 H44         0.3813   49.8660   24.8632 H         1 UNK         0.0000 
     45 H45         3.1044   50.1846   18.8877 H         1 UNK         0.0000 
     46 H46         1.7177   51.2260   19.0720 H         1 UNK         0.0000 
     47 H47         4.2792   51.2151   21.7552 H         1 UNK         0.0000 
     48 H48         5.6758   53.1707   22.2930 H         1 UNK         0.0000 
     49 H49         4.5042   55.0253   18.6100 H         1 UNK         0.0000 
     50 H50         3.0564   53.0974   18.0946 H         1 UNK         0.0000 
     51 H51        -4.1878   51.0783   26.8519 H         1 UNK         0.0000 
     52 H52        -3.2739   49.6076   27.2206 H         1 UNK         0.0000 
     53 H53        -3.4439   50.8909   28.4123 H         1 UNK         0.0000 
@<TRIPOS>BOND
     1    1    2 1    
     2    1   33 1    
     3    1   34 1    
     4    1   35 1    
     5    2    3 1    
     6    2   36 1    
     7    2   37 1    
     8    3    4 1    
     9    3   38 1    
    10    3   39 1    
    11    4    5 1    
    12    5    6 2    
    13    5    7 1    
    14    7   15 1    
    15    7    8 2    
    16    8    9 1    
    17    8   32 1    
    18    9   10 1    
    19    9   40 1    
    20   10   14 ar   
    21   10   11 ar   
    22   11   12 ar   
    23   12   13 ar   
    24   13   14 ar   
    25   14   15 1    
    26   15   16 1    
    27   15   17 1    
    28   17   22 ar   
    29   17   18 ar   
    30   18   19 ar   
    31   18   41 1    
    32   19   20 ar   
    33   19   42 1    
    34   20   21 ar   
    35   20   23 1    
    36   21   22 ar   
    37   21   43 1    
    38   22   44 1    
    39   23   24 1    
    40   24   25 1    
    41   24   45 1    
    42   24   46 1    
    43   25   30 ar   
    44   25   26 ar   
    45   26   27 ar   
    46   26   47 1    
    47   27   28 ar   
    48   27   48 1    
    49   28   29 ar   
    50   28   31 1    
    51   29   30 ar   
    52   29   49 1    
    53   30   50 1    
    54   32   51 1    
    55   32   52 1    
    56   32   53 1    
@<TRIPOS>SUBSTRUCTURE
     1 UNK         1 GROUP             0       ****    0 ROOT    
