@<TRIPOS>MOLECULE
ZINC20569457_5147
44   46    1
SMALL
USER_CHARGES


@<TRIPOS>ATOM
      1 C1         -2.7775   49.5213   25.6352 C.3       1 UNK         0.0000 
      2 C2         -1.8998   50.7692   25.8138 C.3       1 UNK         0.0000 
      3 H3         -2.5372   51.6036   26.1142 H         1 UNK         0.0000 
      4 C4         -1.1310   51.1452   24.5304 C.3       1 UNK         0.0000 
      5 C5         -0.1844   52.3597   24.7255 C.3       1 UNK         0.0000 
      6 H6         -0.8180   53.2404   24.8323 H         1 UNK         0.0000 
      7 N7          0.5125   52.1857   26.0162 N.pl3     1 UNK         0.0000 
      8 C8          0.0870   51.3945   27.0651 C.ar      1 UNK         0.0000 
      9 C9          0.9720   51.6332   28.0981 C.ar      1 UNK         0.0000 
     10 C10         1.8971   52.5703   27.6144 C.ar      1 UNK         0.0000 
     11 N11         1.5608   52.9392   26.3890 N.2       1 UNK         0.0000 
     12 C12         3.1015   53.0363   28.3189 C.2       1 UNK         0.0000 
     13 O13         3.4014   52.7083   29.4701 O.2       1 UNK         0.0000 
     14 O14         3.8509   53.8241   27.5100 O.3       1 UNK         0.0000 
     15 C15         5.2154   54.1736   27.7747 C.3       1 UNK         0.0000 
     16 C16         5.9314   54.4962   26.4429 C.2       1 UNK         0.0000 
     17 O17         7.0954   54.8969   26.4757 O.2       1 UNK         0.0000 
     18 N18         5.2186   54.2873   25.3107 N.am      1 UNK         0.0000 
     19 C19         5.5354   54.4965   23.9600 C.ar      1 UNK         0.0000 
     20 C20         6.7043   55.1168   23.5017 C.ar      1 UNK         0.0000 
     21 C21         6.9047   55.3056   22.1372 C.ar      1 UNK         0.0000 
     22 C22         5.9309   54.8967   21.2292 C.ar      1 UNK         0.0000 
     23 C23         4.7702   54.2689   21.6730 C.ar      1 UNK         0.0000 
     24 C24         4.5778   54.0655   23.0362 C.ar      1 UNK         0.0000 
     25 I25         6.2283   55.2071   19.1852 I         1 UNK         0.0000 
     26 N26        -0.9438   50.4968   26.8816 N.pl3     1 UNK         0.0000 
     27 C27         0.7448   52.6185   23.5135 C.3       1 UNK         0.0000 
     28 F28         0.0811   52.4964   22.3626 F         1 UNK         0.0000 
     29 F29         1.2494   53.8523   23.5494 F         1 UNK         0.0000 
     30 F30         1.7588   51.7540   23.4645 F         1 UNK         0.0000 
     31 H31        -3.5205   49.6696   24.8515 H         1 UNK         0.0000 
     32 H32        -2.1859   48.6418   25.3712 H         1 UNK         0.0000 
     33 H33        -3.3183   49.2827   26.5535 H         1 UNK         0.0000 
     34 H34        -1.8377   51.3676   23.7297 H         1 UNK         0.0000 
     35 H35        -0.5703   50.2833   24.1612 H         1 UNK         0.0000 
     36 H36         0.9795   51.1458   29.0613 H         1 UNK         0.0000 
     37 H37         5.7492   53.3790   28.3003 H         1 UNK         0.0000 
     38 H38         5.2338   55.0676   28.3974 H         1 UNK         0.0000 
     39 H39         4.2984   53.9023   25.4678 H         1 UNK         0.0000 
     40 H40         7.4719   55.4652   24.1763 H         1 UNK         0.0000 
     41 H41         7.8111   55.7785   21.7892 H         1 UNK         0.0000 
     42 H42         4.0227   53.9449   20.9626 H         1 UNK         0.0000 
     43 H43         3.6762   53.5738   23.3684 H         1 UNK         0.0000 
     44 H44        -1.2327   49.8043   27.5800 H         1 UNK         0.0000 
@<TRIPOS>BOND
     1    1    2 1    
     2    1   31 1    
     3    1   32 1    
     4    1   33 1    
     5    2    3 1    
     6    2   26 1    
     7    2    4 1    
     8    4    5 1    
     9    4   34 1    
    10    4   35 1    
    11    5    6 1    
    12    5    7 1    
    13    5   27 1    
    14    7   11 ar   
    15    7    8 ar   
    16    8    9 ar   
    17    8   26 1    
    18    9   10 ar   
    19    9   36 1    
    20   10   11 ar   
    21   10   12 1    
    22   12   13 2    
    23   12   14 1    
    24   14   15 1    
    25   15   16 1    
    26   15   37 1    
    27   15   38 1    
    28   16   17 2    
    29   16   18 am   BACKBONE|DICT|INTERRES
    30   18   19 1    
    31   18   39 1    
    32   19   24 ar   
    33   19   20 ar   
    34   20   21 ar   
    35   20   40 1    
    36   21   22 ar   
    37   21   41 1    
    38   22   23 ar   
    39   22   25 1    
    40   23   24 ar   
    41   23   42 1    
    42   24   43 1    
    43   26   44 1    
    44   27   28 1    
    45   27   29 1    
    46   27   30 1    
@<TRIPOS>SUBSTRUCTURE
     1 UNK         1 GROUP             0       ****    0 ROOT    
