@<TRIPOS>MOLECULE
ZINC20010093_2044
64   67    1
SMALL
USER_CHARGES


@<TRIPOS>ATOM
      1 C1          3.4624   53.8530   29.3949 C.3       1 UNK         0.0000 
      2 C2          3.0693   53.6679   27.9324 C.ar      1 UNK         0.0000 
      3 C3          3.9485   54.1451   26.9577 C.ar      1 UNK         0.0000 
      4 C4          3.6543   54.0375   25.5958 C.ar      1 UNK         0.0000 
      5 C5          2.4197   53.4770   25.2296 C.ar      1 UNK         0.0000 
      6 C6          1.5340   52.9569   26.1801 C.ar      1 UNK         0.0000 
      7 C7          1.8612   53.0454   27.5514 C.ar      1 UNK         0.0000 
      8 C8          0.9480   52.4431   28.6186 C.3       1 UNK         0.0000 
      9 S9         -0.0093   52.2312   25.5539 S.o2      1 UNK         0.0000 
     10 O10        -1.0632   52.4968   26.5404 O.2       1 UNK         0.0000 
     11 O11        -0.1795   52.7008   24.1725 O.2       1 UNK         0.0000 
     12 N12         0.3073   50.4868   25.5432 N.pl3     1 UNK         0.0000 
     13 C13         0.6998   49.8770   24.2494 C.3       1 UNK         0.0000 
     14 C14        -0.5334   49.6286   23.3497 C.3       1 UNK         0.0000 
     15 C15        -1.6182   48.8052   24.0916 C.3       1 UNK         0.0000 
     16 C16        -1.9389   49.4209   25.4773 C.3       1 UNK         0.0000 
     17 C17        -0.6525   49.6584   26.2981 C.3       1 UNK         0.0000 
     18 C18        -2.8773   48.5904   23.2371 C.3       1 UNK         0.0000 
     19 C19         4.6673   54.4966   24.5647 C.2       1 UNK         0.0000 
     20 O20         5.5649   55.2804   24.8818 O.2       1 UNK         0.0000 
     21 N21         4.5157   53.9385   23.3410 N.am      1 UNK         0.0000 
     22 C22         5.1698   54.1336   22.1032 C.ar      1 UNK         0.0000 
     23 C23         6.2401   55.0372   21.9608 C.ar      1 UNK         0.0000 
     24 C24         6.7921   55.2990   20.7104 C.ar      1 UNK         0.0000 
     25 C25         6.3028   54.6473   19.5854 C.ar      1 UNK         0.0000 
     26 C26         5.2846   53.7063   19.7138 C.ar      1 UNK         0.0000 
     27 C27         4.7048   53.4143   20.9638 C.ar      1 UNK         0.0000 
     28 C28         3.6201   52.3407   21.0448 C.2       1 UNK         0.0000 
     29 O29         2.8072   52.3291   21.9717 O.2       1 UNK         0.0000 
     30 N30         3.6427   51.3911   20.0844 N.am      1 UNK         0.0000 
     31 C31         2.7633   50.2354   19.8626 C.3       1 UNK         0.0000 
     32 C32         2.3329   49.3635   21.0225 C.3       1 UNK         0.0000 
     33 C33         1.3173   50.2370   20.3172 C.3       1 UNK         0.0000 
     34 H34         2.6247   54.2687   29.9558 H         1 UNK         0.0000 
     35 H35         3.7357   52.8968   29.8431 H         1 UNK         0.0000 
     36 H36         4.2963   54.5472   29.5153 H         1 UNK         0.0000 
     37 H37         4.8833   54.5936   27.2674 H         1 UNK         0.0000 
     38 H38         2.1436   53.4144   24.1870 H         1 UNK         0.0000 
     39 H39         0.5755   51.4734   28.2968 H         1 UNK         0.0000 
     40 H40         1.4503   52.2448   29.5629 H         1 UNK         0.0000 
     41 H41         0.0922   53.0904   28.8064 H         1 UNK         0.0000 
     42 H42         1.5080   50.4539   23.8003 H         1 UNK         0.0000 
     43 H43         1.1173   48.8963   24.4771 H         1 UNK         0.0000 
     44 H44        -0.9507   50.5822   23.0232 H         1 UNK         0.0000 
     45 H45        -0.2463   49.1204   22.4290 H         1 UNK         0.0000 
     46 H46        -1.1702   47.8309   24.2961 H         1 UNK         0.0000 
     47 H47        -2.6268   48.7791   26.0305 H         1 UNK         0.0000 
     48 H48        -2.4728   50.3636   25.3550 H         1 UNK         0.0000 
     49 H49        -0.1814   48.6901   26.4815 H         1 UNK         0.0000 
     50 H50        -0.8233   50.0969   27.2808 H         1 UNK         0.0000 
     51 H51        -3.3651   49.5370   23.0008 H         1 UNK         0.0000 
     52 H52        -2.6339   48.0982   22.2946 H         1 UNK         0.0000 
     53 H53        -3.6039   47.9645   23.7577 H         1 UNK         0.0000 
     54 H54         3.7494   53.2831   23.2514 H         1 UNK         0.0000 
     55 H55         6.6462   55.5759   22.8017 H         1 UNK         0.0000 
     56 H56         7.6028   56.0058   20.6138 H         1 UNK         0.0000 
     57 H57         6.7311   54.8504   18.6141 H         1 UNK         0.0000 
     58 H58         4.9530   53.2072   18.8134 H         1 UNK         0.0000 
     59 H59         4.3913   51.4367   19.3999 H         1 UNK         0.0000 
     60 H60         2.9881   49.7299   18.9195 H         1 UNK         0.0000 
     61 H61         2.6875   49.6237   22.0199 H         1 UNK         0.0000 
     62 H62         2.3126   48.2854   20.8660 H         1 UNK         0.0000 
     63 H63         0.5788   49.7738   19.6636 H         1 UNK         0.0000 
     64 H64         0.9127   51.1129   20.8259 H         1 UNK         0.0000 
@<TRIPOS>BOND
     1    1    2 1    
     2    1   34 1    
     3    1   35 1    
     4    1   36 1    
     5    2    7 ar   
     6    2    3 ar   
     7    3    4 ar   
     8    3   37 1    
     9    4    5 ar   
    10    4   19 1    
    11    5    6 ar   
    12    5   38 1    
    13    6    7 ar   
    14    6    9 1    
    15    7    8 1    
    16    8   39 1    
    17    8   40 1    
    18    8   41 1    
    19    9   10 2    
    20    9   11 2    
    21    9   12 1    
    22   12   17 1    
    23   12   13 1    
    24   13   14 1    
    25   13   42 1    
    26   13   43 1    
    27   14   15 1    
    28   14   44 1    
    29   14   45 1    
    30   15   16 1    
    31   15   18 1    
    32   15   46 1    
    33   16   17 1    
    34   16   47 1    
    35   16   48 1    
    36   17   49 1    
    37   17   50 1    
    38   18   51 1    
    39   18   52 1    
    40   18   53 1    
    41   19   20 2    
    42   19   21 am   BACKBONE|DICT|INTERRES
    43   21   22 1    
    44   21   54 1    
    45   22   27 ar   
    46   22   23 ar   
    47   23   24 ar   
    48   23   55 1    
    49   24   25 ar   
    50   24   56 1    
    51   25   26 ar   
    52   25   57 1    
    53   26   27 ar   
    54   26   58 1    
    55   27   28 1    
    56   28   29 2    
    57   28   30 am   BACKBONE|DICT|INTERRES
    58   30   31 1    
    59   30   59 1    
    60   31   33 1    
    61   31   32 1    
    62   31   60 1    
    63   32   33 1    
    64   32   61 1    
    65   32   62 1    
    66   33   63 1    
    67   33   64 1    
@<TRIPOS>SUBSTRUCTURE
     1 UNK         1 GROUP             0       ****    0 ROOT    
