@<TRIPOS>MOLECULE
ZINC20579727_4026
56   60    1
SMALL
USER_CHARGES


@<TRIPOS>ATOM
      1 C1          5.1671   54.2822   26.7197 C.ar      1 UNK         0.0000 
      2 C2          6.2983   54.0974   25.9305 C.ar      1 UNK         0.0000 
      3 C3          6.1835   54.1049   24.5412 C.ar      1 UNK         0.0000 
      4 C4          4.9376   54.3281   23.9335 C.ar      1 UNK         0.0000 
      5 C5          3.8060   54.4964   24.7429 C.ar      1 UNK         0.0000 
      6 C6          3.9212   54.4785   26.1310 C.ar      1 UNK         0.0000 
      7 C7          4.7793   54.3542   22.4021 C.3       1 UNK         0.0000 
      8 H8          3.9870   55.0720   22.1829 H         1 UNK         0.0000 
      9 C9          4.2941   52.9816   21.8951 C.2       1 UNK         0.0000 
     10 O10         5.1049   52.0800   21.6809 O.2       1 UNK         0.0000 
     11 N11         2.9656   52.8712   21.6908 N.am      1 UNK         0.0000 
     12 C12         2.3108   51.7559   21.2024 C.2       1 UNK         0.0000 
     13 N13         2.7076   50.5017   21.2366 N.2       1 UNK         0.0000 
     14 N14         1.8160   49.6576   20.5905 N.2       1 UNK         0.0000 
     15 C15         0.7731   50.2853   20.0867 C.2       1 UNK         0.0000 
     16 S16         0.7978   52.0010   20.3984 S.3       1 UNK         0.0000 
     17 C17        -0.3335   49.5983   19.3016 C.3       1 UNK         0.0000 
     18 H18        -1.0028   50.3858   18.9507 H         1 UNK         0.0000 
     19 C19        -1.0789   48.5635   20.1232 C.3       1 UNK         0.0000 
     20 C20        -0.6222   47.1981   19.6225 C.2       1 UNK         0.0000 
     21 O21        -0.8975   46.1437   20.1985 O.2       1 UNK         0.0000 
     22 N22         0.1185   47.3865   18.4907 N.am      1 UNK         0.0000 
     23 C23         0.1905   48.8067   18.1191 C.3       1 UNK         0.0000 
     24 C24         0.6782   46.3606   17.6870 C.ar      1 UNK         0.0000 
     25 C25         1.8098   46.6365   16.9009 C.ar      1 UNK         0.0000 
     26 C26         2.3575   45.6526   16.0816 C.ar      1 UNK         0.0000 
     27 C27         1.7769   44.3865   16.0405 C.ar      1 UNK         0.0000 
     28 C28         0.6520   44.0983   16.8043 C.ar      1 UNK         0.0000 
     29 C29         0.1032   45.0790   17.6201 C.ar      1 UNK         0.0000 
     30 F30         2.3043   43.4232   15.2549 F         1 UNK         0.0000 
     31 S31         6.2564   55.0258   21.5406 S.3       1 UNK         0.0000 
     32 C32         5.9123   55.4148   19.8417 C.ar      1 UNK         0.0000 
     33 C33         4.7487   54.9797   19.1959 C.ar      1 UNK         0.0000 
     34 C34         4.5208   55.3265   17.8673 C.ar      1 UNK         0.0000 
     35 C35         5.4548   56.1022   17.1850 C.ar      1 UNK         0.0000 
     36 C36         6.6213   56.5283   17.8186 C.ar      1 UNK         0.0000 
     37 C37         6.8519   56.1786   19.1464 C.ar      1 UNK         0.0000 
     38 H38         5.2569   54.2621   27.7955 H         1 UNK         0.0000 
     39 H39         7.2556   53.9283   26.3968 H         1 UNK         0.0000 
     40 H40         7.0700   53.9473   23.9450 H         1 UNK         0.0000 
     41 H41         2.8331   54.6488   24.2987 H         1 UNK         0.0000 
     42 H42         3.0455   54.6074   26.7512 H         1 UNK         0.0000 
     43 H43         2.4090   53.7122   21.7483 H         1 UNK         0.0000 
     44 H44        -0.8542   48.6288   21.1889 H         1 UNK         0.0000 
     45 H45        -2.1580   48.6605   20.0094 H         1 UNK         0.0000 
     46 H46        -0.4577   48.9565   17.2538 H         1 UNK         0.0000 
     47 H47         1.1876   49.1413   17.8261 H         1 UNK         0.0000 
     48 H48         2.3011   47.6011   16.9258 H         1 UNK         0.0000 
     49 H49         3.2381   45.8695   15.4936 H         1 UNK         0.0000 
     50 H50         0.2050   43.1149   16.7541 H         1 UNK         0.0000 
     51 H51        -0.7852   44.8282   18.1784 H         1 UNK         0.0000 
     52 H52         4.0008   54.3899   19.6974 H         1 UNK         0.0000 
     53 H53         3.6217   54.9932   17.3697 H         1 UNK         0.0000 
     54 H54         5.2770   56.3717   16.1526 H         1 UNK         0.0000 
     55 H55         7.3434   57.1277   17.2824 H         1 UNK         0.0000 
     56 H56         7.7595   56.5018   19.6336 H         1 UNK         0.0000 
@<TRIPOS>BOND
     1    1    6 ar   
     2    1    2 ar   
     3    1   38 1    
     4    2    3 ar   
     5    2   39 1    
     6    3    4 ar   
     7    3   40 1    
     8    4    5 ar   
     9    4    7 1    
    10    5    6 ar   
    11    5   41 1    
    12    6   42 1    
    13    7    8 1    
    14    7    9 1    
    15    7   31 1    
    16    9   10 2    
    17    9   11 am   BACKBONE|DICT|INTERRES
    18   11   12 am   BACKBONE|DICT|INTERRES
    19   11   43 1    
    20   12   16 1    
    21   12   13 2    
    22   13   14 1    
    23   14   15 2    
    24   15   16 1    
    25   15   17 1    
    26   17   18 1    
    27   17   23 1    
    28   17   19 1    
    29   19   20 1    
    30   19   44 1    
    31   19   45 1    
    32   20   21 2    
    33   20   22 am   BACKBONE|DICT|INTERRES
    34   22   23 1    
    35   22   24 1    
    36   23   46 1    
    37   23   47 1    
    38   24   29 ar   
    39   24   25 ar   
    40   25   26 ar   
    41   25   48 1    
    42   26   27 ar   
    43   26   49 1    
    44   27   28 ar   
    45   27   30 1    
    46   28   29 ar   
    47   28   50 1    
    48   29   51 1    
    49   31   32 1    
    50   32   37 ar   
    51   32   33 ar   
    52   33   34 ar   
    53   33   52 1    
    54   34   35 ar   
    55   34   53 1    
    56   35   36 ar   
    57   35   54 1    
    58   36   37 ar   
    59   36   55 1    
    60   37   56 1    
@<TRIPOS>SUBSTRUCTURE
     1 UNK         1 GROUP             0       ****    0 ROOT    
