@<TRIPOS>MOLECULE
ZINC35668244_5645
50   52    1
SMALL
USER_CHARGES


@<TRIPOS>ATOM
      1 C1          7.0616   53.2805   27.6769 C.3       1 UNK         0.0000 
      2 O2          7.1044   54.3099   26.6894 O.3       1 UNK         0.0000 
      3 C3          6.1084   54.3086   25.7398 C.ar      1 UNK         0.0000 
      4 C4          6.4728   54.2307   24.3862 C.ar      1 UNK         0.0000 
      5 C5          5.5048   54.3021   23.3774 C.ar      1 UNK         0.0000 
      6 C6          4.1763   54.4967   23.7403 C.ar      1 UNK         0.0000 
      7 C7          3.8147   54.5891   25.0709 C.ar      1 UNK         0.0000 
      8 C8          4.7581   54.4753   26.0969 C.ar      1 UNK         0.0000 
      9 O9          4.4290   54.5479   27.4417 O.3       1 UNK         0.0000 
     10 C10         3.0720   54.7324   27.8512 C.3       1 UNK         0.0000 
     11 C11         2.2441   53.4489   27.7389 C.ar      1 UNK         0.0000 
     12 C12         1.2837   53.2967   26.7265 C.ar      1 UNK         0.0000 
     13 C13         0.4744   52.1703   26.6419 C.ar      1 UNK         0.0000 
     14 C14         0.6139   51.1663   27.5838 C.ar      1 UNK         0.0000 
     15 C15         1.5734   51.2967   28.5821 C.ar      1 UNK         0.0000 
     16 C16         2.3918   52.4177   28.6721 C.ar      1 UNK         0.0000 
     17 Br17        3.6754   52.4968   30.0817 Br        1 UNK         0.0000 
     18 C18         5.8516   54.2667   21.9435 C.2       1 UNK         0.0000 
     19 C19         5.2464   53.5410   20.9606 C.2       1 UNK         0.0000 
     20 C20         4.1850   52.4521   21.2238 C.2       1 UNK         0.0000 
     21 O21         3.0065   52.8583   21.3174 O.co2     1 UNK         0.0000 
     22 O22         4.6554   51.2967   21.2817 O.co2     1 UNK         0.0000 
     23 N23         5.5051   53.6017   19.6172 N.am      1 UNK         0.0000 
     24 C24         5.9042   54.6780   18.9012 C.2       1 UNK         0.0000 
     25 O25         6.0928   55.7971   19.3889 O.2       1 UNK         0.0000 
     26 C26         6.1413   54.4443   17.4227 C.ar      1 UNK         0.0000 
     27 C27         5.6627   53.2962   16.7669 C.ar      1 UNK         0.0000 
     28 C28         5.9006   53.1056   15.4089 C.ar      1 UNK         0.0000 
     29 C29         6.6125   54.0607   14.6901 C.ar      1 UNK         0.0000 
     30 C30         7.0882   55.2073   15.3193 C.ar      1 UNK         0.0000 
     31 C31         6.8524   55.3980   16.6782 C.ar      1 UNK         0.0000 
     32 H32         7.3376   53.6996   28.6451 H         1 UNK         0.0000 
     33 H33         6.0931   52.7922   27.7929 H         1 UNK         0.0000 
     34 H34         7.7841   52.4999   27.4448 H         1 UNK         0.0000 
     35 H35         7.5127   54.1211   24.1202 H         1 UNK         0.0000 
     36 H36         3.4135   54.6242   22.9861 H         1 UNK         0.0000 
     37 H37         2.7882   54.8114   25.2580 H         1 UNK         0.0000 
     38 H38         3.0737   55.0607   28.8908 H         1 UNK         0.0000 
     39 H39         2.6218   55.5616   27.3151 H         1 UNK         0.0000 
     40 H40         1.1049   54.0699   26.0008 H         1 UNK         0.0000 
     41 H41        -0.2652   52.0834   25.8590 H         1 UNK         0.0000 
     42 H42        -0.0137   50.2860   27.5368 H         1 UNK         0.0000 
     43 H43         1.6903   50.4967   29.2818 H         1 UNK         0.0000 
     44 H44         6.6472   54.9442   21.6709 H         1 UNK         0.0000 
     45 H45         5.3183   52.7473   19.1081 H         1 UNK         0.0000 
     46 H46         5.1054   52.5282   17.2865 H         1 UNK         0.0000 
     47 H47         5.5326   52.2162   14.9186 H         1 UNK         0.0000 
     48 H48         6.7966   53.9112   13.6363 H         1 UNK         0.0000 
     49 H49         7.6387   55.9465   14.7567 H         1 UNK         0.0000 
     50 H50         7.2311   56.2954   17.1482 H         1 UNK         0.0000 
@<TRIPOS>BOND
     1    1    2 1    
     2    1   32 1    
     3    1   33 1    
     4    1   34 1    
     5    2    3 1    
     6    3    8 ar   
     7    3    4 ar   
     8    4    5 ar   
     9    4   35 1    
    10    5    6 ar   
    11    5   18 1    
    12    6    7 ar   
    13    6   36 1    
    14    7    8 ar   
    15    7   37 1    
    16    8    9 1    
    17    9   10 1    
    18   10   11 1    
    19   10   38 1    
    20   10   39 1    
    21   11   16 ar   
    22   11   12 ar   
    23   12   13 ar   
    24   12   40 1    
    25   13   14 ar   
    26   13   41 1    
    27   14   15 ar   
    28   14   42 1    
    29   15   16 ar   
    30   15   43 1    
    31   16   17 1    
    32   18   19 2    
    33   18   44 1    
    34   19   20 1    
    35   19   23 1    
    36   20   21 2    
    37   20   22 1    
    38   23   24 am   BACKBONE|DICT|INTERRES
    39   23   45 1    
    40   24   25 2    
    41   24   26 1    
    42   26   31 ar   
    43   26   27 ar   
    44   27   28 ar   
    45   27   46 1    
    46   28   29 ar   
    47   28   47 1    
    48   29   30 ar   
    49   29   48 1    
    50   30   31 ar   
    51   30   49 1    
    52   31   50 1    
@<TRIPOS>SUBSTRUCTURE
     1 UNK         1 GROUP             0       ****    0 ROOT    
