@<TRIPOS>MOLECULE
ZINC39609124_3060
75   80    1
SMALL
USER_CHARGES


@<TRIPOS>ATOM
      1 C1          5.6001   54.3167   25.6769 C.ar      1 UNK         0.0000 
      2 C2          6.4351   54.2526   24.5639 C.ar      1 UNK         0.0000 
      3 C3          5.8870   54.1368   23.2902 C.ar      1 UNK         0.0000 
      4 C4          4.4997   54.0971   23.1271 C.ar      1 UNK         0.0000 
      5 C5          3.6667   54.1617   24.2484 C.ar      1 UNK         0.0000 
      6 C6          4.2161   54.2696   25.5246 C.ar      1 UNK         0.0000 
      7 C7          3.9035   54.0750   21.7234 C.3       1 UNK         0.0000 
      8 O8          3.8591   52.7577   21.1817 O.3       1 UNK         0.0000 
      9 C9          2.7853   51.9161   21.6122 C.3       1 UNK         0.0000 
     10 H10         2.6638   51.9872   22.6938 H         1 UNK         0.0000 
     11 C11         3.1202   50.4891   21.1638 C.3       1 UNK         0.0000 
     12 C12         2.2445   50.1289   19.9545 C.3       1 UNK         0.0000 
     13 C13         1.6092   51.4485   19.5296 C.3       1 UNK         0.0000 
     14 C14         1.4925   52.2505   20.8281 C.3       1 UNK         0.0000 
     15 H15         1.3951   53.2948   20.5603 H         1 UNK         0.0000 
     16 N16         0.2639   51.8760   21.5269 N.am      1 UNK         0.0000 
     17 C17        -0.1388   52.3878   22.6965 C.2       1 UNK         0.0000 
     18 O18         0.4602   53.2941   23.2815 O.2       1 UNK         0.0000 
     19 C19        -1.4607   51.8189   23.2518 C.3       1 UNK         0.0000 
     20 H20        -2.0189   51.3354   22.4466 H         1 UNK         0.0000 
     21 C21        -2.3010   52.9759   23.8084 C.3       1 UNK         0.0000 
     22 N22        -3.1027   52.3592   24.8669 N.am      1 UNK         0.0000 
     23 C23        -2.6333   50.9942   25.1620 C.3       1 UNK         0.0000 
     24 C24        -1.2712   50.8523   24.4425 C.3       1 UNK         0.0000 
     25 C25        -0.9411   49.4181   23.9588 C.3       1 UNK         0.0000 
     26 C26        -0.8929   48.4292   25.1327 C.3       1 UNK         0.0000 
     27 N27         0.2264   48.8967   26.0817 N.4       1 UNK         0.0000 
     28 C28         0.0456   50.3340   26.6117 C.3       1 UNK         0.0000 
     29 C29        -0.0956   51.2612   25.4008 C.3       1 UNK         0.0000 
     30 C30        -4.1916   53.0142   25.3677 C.2       1 UNK         0.0000 
     31 O31        -4.5472   54.0968   24.8887 O.2       1 UNK         0.0000 
     32 C32        -4.9754   52.4758   26.5568 C.ar      1 UNK         0.0000 
     33 C33        -6.2619   52.9613   26.8287 C.ar      1 UNK         0.0000 
     34 C34        -6.9199   52.5724   27.9967 C.ar      1 UNK         0.0000 
     35 C35        -6.2730   51.6956   28.9001 C.ar      1 UNK         0.0000 
     36 C36        -6.8464   51.2906   30.1305 C.ar      1 UNK         0.0000 
     37 C37        -6.1460   50.4350   30.9791 C.ar      1 UNK         0.0000 
     38 C38        -4.8886   49.9587   30.6227 C.ar      1 UNK         0.0000 
     39 C39        -4.3004   50.3339   29.4191 C.ar      1 UNK         0.0000 
     40 C40        -4.9790   51.2149   28.5459 C.ar      1 UNK         0.0000 
     41 N41        -4.3633   51.6028   27.3992 N.ar      1 UNK         0.0000 
     42 H42         6.0261   54.4036   26.6658 H         1 UNK         0.0000 
     43 H43         7.5059   54.2965   24.6807 H         1 UNK         0.0000 
     44 H44         6.5411   54.0973   22.4315 H         1 UNK         0.0000 
     45 H45         2.5950   54.1585   24.1339 H         1 UNK         0.0000 
     46 H46         3.5729   54.3260   26.3907 H         1 UNK         0.0000 
     47 H47         4.5443   54.6781   21.0782 H         1 UNK         0.0000 
     48 H48         2.9276   54.5602   21.6953 H         1 UNK         0.0000 
     49 H49         4.1584   50.4673   20.8335 H         1 UNK         0.0000 
     50 H50         3.0140   49.7677   21.9734 H         1 UNK         0.0000 
     51 H51         2.8239   49.6794   19.1438 H         1 UNK         0.0000 
     52 H52         1.4734   49.4136   20.2464 H         1 UNK         0.0000 
     53 H53         0.6636   51.3315   18.9978 H         1 UNK         0.0000 
     54 H54         2.2764   51.9736   18.8418 H         1 UNK         0.0000 
     55 H55        -0.3128   51.1887   21.0679 H         1 UNK         0.0000 
     56 H56        -2.8943   53.4428   23.0216 H         1 UNK         0.0000 
     57 H57        -1.6661   53.6967   24.3235 H         1 UNK         0.0000 
     58 H58        -2.5749   50.6873   26.2012 H         1 UNK         0.0000 
     59 H59        -3.3463   50.3200   24.6835 H         1 UNK         0.0000 
     60 H60        -1.7147   49.0754   23.2700 H         1 UNK         0.0000 
     61 H61        -0.0128   49.3969   23.3833 H         1 UNK         0.0000 
     62 H62        -1.8084   48.3894   25.7281 H         1 UNK         0.0000 
     63 H63        -0.6238   47.4164   24.8276 H         1 UNK         0.0000 
     64 H64         0.2312   48.2562   26.8721 H         1 UNK         0.0000 
     65 H65        -0.8203   50.3212   27.2758 H         1 UNK         0.0000 
     66 H66         0.9306   50.5531   27.2102 H         1 UNK         0.0000 
     67 H67         0.8659   51.2884   24.8851 H         1 UNK         0.0000 
     68 H68        -0.2529   52.2777   25.7661 H         1 UNK         0.0000 
     69 H69        -6.7455   53.6558   26.1565 H         1 UNK         0.0000 
     70 H70        -7.9046   52.9486   28.2295 H         1 UNK         0.0000 
     71 H71        -7.8246   51.6505   30.4097 H         1 UNK         0.0000 
     72 H72        -6.5820   50.1322   31.9206 H         1 UNK         0.0000 
     73 H73        -4.3476   49.2953   31.2815 H         1 UNK         0.0000 
     74 H74        -3.3195   49.9574   29.1588 H         1 UNK         0.0000 
     75 H75         1.1243   48.7952   25.6259 H         1 UNK         0.0000 
@<TRIPOS>BOND
     1    1    6 ar   
     2    1    2 ar   
     3    1   42 1    
     4    2    3 ar   
     5    2   43 1    
     6    3    4 ar   
     7    3   44 1    
     8    4    5 ar   
     9    4    7 1    
    10    5    6 ar   
    11    5   45 1    
    12    6   46 1    
    13    7    8 1    
    14    7   47 1    
    15    7   48 1    
    16    8    9 1    
    17    9   10 1    
    18    9   14 1    
    19    9   11 1    
    20   11   12 1    
    21   11   49 1    
    22   11   50 1    
    23   12   13 1    
    24   12   51 1    
    25   12   52 1    
    26   13   14 1    
    27   13   53 1    
    28   13   54 1    
    29   14   15 1    
    30   14   16 1    
    31   16   17 am   BACKBONE|DICT|INTERRES
    32   16   55 1    
    33   17   18 2    
    34   17   19 1    
    35   19   20 1    
    36   19   24 1    
    37   19   21 1    
    38   21   22 1    
    39   21   56 1    
    40   21   57 1    
    41   22   23 1    
    42   22   30 am   BACKBONE|DICT|INTERRES
    43   23   24 1    
    44   23   58 1    
    45   23   59 1    
    46   24   29 1    
    47   24   25 1    
    48   25   26 1    
    49   25   60 1    
    50   25   61 1    
    51   26   27 1    
    52   26   62 1    
    53   26   63 1    
    54   27   28 1    
    55   27   64 1    
    56   27   75 1    
    57   28   29 1    
    58   28   65 1    
    59   28   66 1    
    60   29   67 1    
    61   29   68 1    
    62   30   31 2    
    63   30   32 1    
    64   32   41 ar   
    65   32   33 ar   
    66   33   34 ar   
    67   33   69 1    
    68   34   35 ar   
    69   34   70 1    
    70   35   40 ar   
    71   35   36 ar   
    72   36   37 ar   
    73   36   71 1    
    74   37   38 ar   
    75   37   72 1    
    76   38   39 ar   
    77   38   73 1    
    78   39   40 ar   
    79   39   74 1    
    80   40   41 ar   
@<TRIPOS>SUBSTRUCTURE
     1 UNK         1 GROUP             0       ****    0 ROOT    
