@<TRIPOS>MOLECULE
ZINC10075313_5825
61   65    1
SMALL
USER_CHARGES


@<TRIPOS>ATOM
      1 C1          1.4758   48.8286   16.7782 C.3       1 UNK         0.0000 
      2 O2          0.0852   48.7891   17.0876 O.3       1 UNK         0.0000 
      3 C3         -0.3245   49.0800   18.3744 C.ar      1 UNK         0.0000 
      4 C4          0.5400   49.4591   19.4130 C.ar      1 UNK         0.0000 
      5 C5          0.0344   49.7215   20.6836 C.ar      1 UNK         0.0000 
      6 C6         -1.3376   49.6082   20.9354 C.ar      1 UNK         0.0000 
      7 C7         -2.1989   49.2320   19.9004 C.ar      1 UNK         0.0000 
      8 C8         -1.6922   48.9750   18.6292 C.ar      1 UNK         0.0000 
      9 C9         -1.8786   49.8516   22.3468 C.3       1 UNK         0.0000 
     10 H10        -1.0235   50.2473   22.9032 H         1 UNK         0.0000 
     11 C11        -2.2990   48.5326   23.0336 C.3       1 UNK         0.0000 
     12 C12        -2.6333   48.9013   24.4718 C.2       1 UNK         0.0000 
     13 C13        -3.2255   50.0615   24.8464 C.2       1 UNK         0.0000 
     14 C14        -3.4912   50.4796   26.3067 C.3       1 UNK         0.0000 
     15 H15        -3.4631   49.6060   26.9634 H         1 UNK         0.0000 
     16 C16        -4.8937   51.1563   26.3655 C.3       1 UNK         0.0000 
     17 C17        -5.0676   52.2600   25.2873 C.2       1 UNK         0.0000 
     18 O18        -5.7770   53.2274   25.5586 O.2       1 UNK         0.0000 
     19 N19        -4.4115   52.0175   24.0851 N.am      1 UNK         0.0000 
     20 C20        -3.6025   51.0502   23.8428 C.2       1 UNK         0.0000 
     21 C21        -3.0146   50.9189   22.4215 C.3       1 UNK         0.0000 
     22 C22        -2.3748   51.4229   26.8476 C.2       1 UNK         0.0000 
     23 O23        -2.3250   52.6027   26.4810 O.2       1 UNK         0.0000 
     24 N24        -1.4567   50.8968   27.6784 N.am      1 UNK         0.0000 
     25 C25        -0.2844   51.5748   28.0234 C.ar      1 UNK         0.0000 
     26 C26        -0.1070   52.0935   29.3068 C.ar      1 UNK         0.0000 
     27 C27         1.0628   52.7940   29.6056 C.ar      1 UNK         0.0000 
     28 C28         2.0561   52.9698   28.6362 C.ar      1 UNK         0.0000 
     29 C29         1.8671   52.4188   27.3608 C.ar      1 UNK         0.0000 
     30 C30         0.7056   51.7252   27.0544 C.ar      1 UNK         0.0000 
     31 O31         3.1966   53.6651   29.0024 O.3       1 UNK         0.0000 
     32 C32         4.2097   53.9277   28.1014 C.ar      1 UNK         0.0000 
     33 C33         5.4897   53.4607   28.3832 C.ar      1 UNK         0.0000 
     34 C34         6.5375   53.6968   27.4980 C.ar      1 UNK         0.0000 
     35 C35         6.3029   54.4119   26.3261 C.ar      1 UNK         0.0000 
     36 C36         5.0291   54.8949   26.0377 C.ar      1 UNK         0.0000 
     37 C37         3.9862   54.6573   26.9304 C.ar      1 UNK         0.0000 
     38 O38        -2.2744   47.9708   25.2813 O.co2     1 UNK         0.0000 
     39 H39         2.0341   48.1075   17.3771 H         1 UNK         0.0000 
     40 H40         1.6236   48.5672   15.7309 H         1 UNK         0.0000 
     41 H41         1.8954   49.8247   16.9277 H         1 UNK         0.0000 
     42 H42         1.6047   49.5495   19.2528 H         1 UNK         0.0000 
     43 H43         0.7182   50.0016   21.4725 H         1 UNK         0.0000 
     44 H44        -3.2590   49.1245   20.0787 H         1 UNK         0.0000 
     45 H45        -2.3632   48.6817   17.8347 H         1 UNK         0.0000 
     46 H46        -3.2026   48.1495   22.5576 H         1 UNK         0.0000 
     47 H47        -1.5064   47.7859   22.9402 H         1 UNK         0.0000 
     48 H48        -5.6728   50.4236   26.1560 H         1 UNK         0.0000 
     49 H49        -5.1058   51.5595   27.3567 H         1 UNK         0.0000 
     50 H50        -2.6206   51.8859   22.1075 H         1 UNK         0.0000 
     51 H51        -3.8299   50.6701   21.7421 H         1 UNK         0.0000 
     52 H52        -1.5424   49.9154   27.9664 H         1 UNK         0.0000 
     53 H53        -0.8699   51.9590   30.0615 H         1 UNK         0.0000 
     54 H54         1.1984   53.2015   30.5962 H         1 UNK         0.0000 
     55 H55         2.6188   52.5024   26.5925 H         1 UNK         0.0000 
     56 H56         0.5702   51.3112   26.0652 H         1 UNK         0.0000 
     57 H57         5.6584   52.8982   29.2815 H         1 UNK         0.0000 
     58 H58         7.5202   53.3112   27.7158 H         1 UNK         0.0000 
     59 H59         7.1094   54.5821   25.6287 H         1 UNK         0.0000 
     60 H60         4.8513   55.4432   25.1248 H         1 UNK         0.0000 
     61 H61         2.9968   55.0230   26.7144 H         1 UNK         0.0000 
@<TRIPOS>BOND
     1    1    2 1    
     2    1   39 1    
     3    1   40 1    
     4    1   41 1    
     5    2    3 1    
     6    3    8 ar   
     7    3    4 ar   
     8    4    5 ar   
     9    4   42 1    
    10    5    6 ar   
    11    5   43 1    
    12    6    7 ar   
    13    6    9 1    
    14    7    8 ar   
    15    7   44 1    
    16    8   45 1    
    17    9   10 1    
    18    9   21 1    
    19    9   11 1    
    20   11   12 1    
    21   11   46 1    
    22   11   47 1    
    23   12   13 2    
    24   12   38 1    
    25   13   20 1    
    26   13   14 1    
    27   14   15 1    
    28   14   16 1    
    29   14   22 1    
    30   16   17 1    
    31   16   48 1    
    32   16   49 1    
    33   17   18 2    
    34   17   19 am   BACKBONE|DICT|INTERRES
    35   19   20 2    
    36   20   21 1    
    37   21   50 1    
    38   21   51 1    
    39   22   23 2    
    40   22   24 am   BACKBONE|DICT|INTERRES
    41   24   25 1    
    42   24   52 1    
    43   25   30 ar   
    44   25   26 ar   
    45   26   27 ar   
    46   26   53 1    
    47   27   28 ar   
    48   27   54 1    
    49   28   29 ar   
    50   28   31 1    
    51   29   30 ar   
    52   29   55 1    
    53   30   56 1    
    54   31   32 1    
    55   32   37 ar   
    56   32   33 ar   
    57   33   34 ar   
    58   33   57 1    
    59   34   35 ar   
    60   34   58 1    
    61   35   36 ar   
    62   35   59 1    
    63   36   37 ar   
    64   36   60 1    
    65   37   61 1    
@<TRIPOS>SUBSTRUCTURE
     1 UNK         1 GROUP             0       ****    0 ROOT    
