ZINC04143471_0
                    3D
 Schrodinger Suite 2024-2.
 50 53  0  0  1  0            999 V2000
    7.1521   54.4947   27.4162 C   0  0  0  0  0  0
    6.4105   54.0461   28.6834 C   0  0  0  0  0  0
    5.0271   53.5033   28.4275 C   0  0  0  0  0  0
    4.2946   52.5749   29.1515 C   0  0  0  0  0  0
    3.0007   52.3740   28.6680 C   0  0  0  0  0  0
    2.6698   53.1440   27.5517 C   0  0  0  0  0  0
    4.0537   54.0969   27.1250 S   0  0  0  0  0  0
    1.3384   53.3227   26.8233 C   0  0  2  0  0  0
    1.2287   54.4049   26.7860 H   0  0  0  0  0  0
    0.1765   52.8209   27.6814 C   0  0  0  0  0  0
   -0.6269   51.8148   27.2821 C   0  0  0  0  0  0
   -0.5345   51.2610   25.9930 N   0  0  0  0  0  0
    0.3441   51.7933   25.0311 C   0  0  0  0  0  0
    1.2443   52.7700   25.3664 C   0  0  0  0  0  0
    2.0936   53.4057   24.3190 C   0  0  0  0  0  0
    2.6271   54.4965   24.4830 O   0  0  0  0  0  0
    2.1045   52.7945   22.9110 C   0  0  0  0  0  0
    1.6612   51.3306   22.9079 C   0  0  0  0  0  0
    0.3014   51.2001   23.6006 C   0  0  0  0  0  0
   -1.4505   50.2595   25.5808 C   0  0  0  0  0  0
   -1.0208   48.9306   25.6817 C   0  0  0  0  0  0
   -1.8358   47.8793   25.2796 C   0  0  0  0  0  0
   -3.0935   48.1452   24.7513 C   0  0  0  0  0  0
   -3.5271   49.4625   24.6200 C   0  0  0  0  0  0
   -2.7190   50.5454   25.0115 C   0  0  0  0  0  0
   -3.2528   51.9272   24.8476 N   0  3  0  0  0  0
   -4.1989   52.0898   24.0822 O   0  0  0  0  0  0
   -2.7701   52.8596   25.4793 O   0  5  0  0  0  0
   -1.5903   51.2967   28.1197 N   0  0  0  0  0  0
    0.0541   53.3687   28.9990 C   0  0  0  0  0  0
   -0.0108   53.8021   30.0698 N   0  0  0  0  0  0
    8.1259   54.8946   27.6825 H   0  0  0  0  0  0
    6.6200   55.2872   26.8893 H   0  0  0  0  0  0
    7.2957   53.6623   26.7266 H   0  0  0  0  0  0
    7.0285   53.3289   29.2222 H   0  0  0  0  0  0
    6.3040   54.8963   29.3534 H   0  0  0  0  0  0
    4.6862   52.0698   30.0218 H   0  0  0  0  0  0
    2.3032   51.6967   29.1387 H   0  0  0  0  0  0
    3.0841   52.9399   22.4552 H   0  0  0  0  0  0
    1.3862   53.3695   22.3259 H   0  0  0  0  0  0
    2.3987   50.7056   23.4142 H   0  0  0  0  0  0
    1.6007   50.9586   21.8837 H   0  0  0  0  0  0
    0.1772   50.1183   23.6334 H   0  0  0  0  0  0
   -0.5396   51.5836   23.0212 H   0  0  0  0  0  0
   -0.0556   48.7038   26.1133 H   0  0  0  0  0  0
   -1.4919   46.8634   25.4036 H   0  0  0  0  0  0
   -3.7367   47.3323   24.4488 H   0  0  0  0  0  0
   -4.5111   49.6359   24.2074 H   0  0  0  0  0  0
   -1.6999   51.6939   29.0410 H   0  0  0  0  0  0
   -1.7705   50.2962   28.0823 H   0  0  0  0  0  0
  1  2  1  0  0  0
  1 32  1  0  0  0
  1 33  1  0  0  0
  1 34  1  0  0  0
  2  3  1  0  0  0
  2 35  1  0  0  0
  2 36  1  0  0  0
  3  7  1  0  0  0
  3  4  2  0  0  0
  4  5  1  0  0  0
  4 37  1  0  0  0
  5  6  2  0  0  0
  5 38  1  0  0  0
  6  7  1  0  0  0
  6  8  1  0  0  0
  8  9  1  0  0  0
  8 14  1  0  0  0
  8 10  1  0  0  0
 10 11  2  0  0  0
 10 30  1  0  0  0
 11 12  1  0  0  0
 11 29  1  0  0  0
 12 13  1  0  0  0
 12 20  1  0  0  0
 13 19  1  0  0  0
 13 14  2  0  0  0
 14 15  1  0  0  0
 15 16  2  0  0  0
 15 17  1  0  0  0
 17 18  1  0  0  0
 17 39  1  0  0  0
 17 40  1  0  0  0
 18 19  1  0  0  0
 18 41  1  0  0  0
 18 42  1  0  0  0
 19 43  1  0  0  0
 19 44  1  0  0  0
 20 25  2  0  0  0
 20 21  1  0  0  0
 21 22  2  0  0  0
 21 45  1  0  0  0
 22 23  1  0  0  0
 22 46  1  0  0  0
 23 24  2  0  0  0
 23 47  1  0  0  0
 24 25  1  0  0  0
 24 48  1  0  0  0
 25 26  1  0  0  0
 26 27  2  0  0  0
 26 28  1  0  0  0
 29 49  1  0  0  0
 29 50  1  0  0  0
 30 31  3  0  0  0
M  CHG  2  26   1  28  -1
M  END
> <i_i_glide_confnum>
10

> <i_i_glide_lignum>
1

> <i_i_glide_posenum>
356

> <i_i_glide_rotatable_bonds>
5

> <i_m_Source_File_Index>
5026

> <b_m_subgroup_collapsed>
0

> <r_i_docking_score>
-5.44361

> <r_i_glide_ecoul>
-4.42525

> <r_i_glide_eff_state_penalty>
0

> <r_i_glide_einternal>
5.92838

> <r_i_glide_emodel>
-48.6512

> <r_i_glide_energy>
-39.9543

> <r_i_glide_erotb>
0.223891

> <r_i_glide_esite>
-0.128044

> <r_i_glide_evdw>
-35.5291

> <r_i_glide_gscore>
-5.44361

> <r_i_glide_hbond>
-0.16

> <r_i_glide_ligand_efficiency>
-0.181454

> <r_i_glide_ligand_efficiency_ln>
-1.23685

> <r_i_glide_ligand_efficiency_sa>
-0.563819

> <r_i_glide_lipo>
-1.8996

> <r_i_glide_metal>
0

> <r_i_glide_rewards>
-1.03961

> <s_i_glide_gridfile>
wee1_glide-grid

> <s_m_Source_File>
wee1_decoys_glide_SP.sdf

> <s_m_Source_Path>
/Users/zhangxujun/Desktop

> <s_m_entry_id>
5301

> <s_m_entry_name>
wee1_decoys_glide_SP.5026

> <s_m_subgroup_title>
wee1_decoys_glide_SP

> <s_m_subgroupid>
wee1_decoys_glide_SP


$$$$
