@<TRIPOS>MOLECULE
ZINC04026099_3857
59   62    1
SMALL
USER_CHARGES


@<TRIPOS>ATOM
      1 C1         -1.1192   47.4788   24.8817 C.3       1 UNK         0.0000 
      2 C2         -1.3973   48.3889   23.6688 C.3       1 UNK         0.0000 
      3 H3         -1.7479   47.7140   22.8848 H         1 UNK         0.0000 
      4 C4         -0.1105   49.0508   23.1303 C.3       1 UNK         0.0000 
      5 C5         -0.5025   50.4790   22.7079 C.3       1 UNK         0.0000 
      6 H6         -1.0016   50.4037   21.7405 H         1 UNK         0.0000 
      7 C7          0.6471   51.5302   22.5437 C.3       1 UNK         0.0000 
      8 H8          0.1841   52.3909   22.0606 H         1 UNK         0.0000 
      9 C9          1.7607   51.0134   21.5903 C.3       1 UNK         0.0000 
     10 C10         2.9930   51.9088   21.5959 C.2       1 UNK         0.0000 
     11 C11         3.2530   52.8936   22.4831 C.2       1 UNK         0.0000 
     12 C12         4.4815   53.8011   22.3372 C.3       1 UNK         0.0000 
     13 C13         5.2718   53.8850   23.6566 C.3       1 UNK         0.0000 
     14 H14         5.6840   52.8969   23.8391 H         1 UNK         0.0000 
     15 C15         4.3840   54.2807   24.8452 C.3       1 UNK         0.0000 
     16 C16         3.1051   53.4402   24.9833 C.3       1 UNK         0.0000 
     17 C17         2.3001   53.1976   23.6694 C.3       1 UNK         0.0000 
     18 C18         1.2711   52.0201   23.8825 C.3       1 UNK         0.0000 
     19 H19         1.8204   51.1573   24.2629 H         1 UNK         0.0000 
     20 C20         0.1865   52.3441   24.9516 C.3       1 UNK         0.0000 
     21 C21        -0.8707   51.2434   25.0921 C.3       1 UNK         0.0000 
     22 C22        -1.5909   50.8839   23.7489 C.3       1 UNK         0.0000 
     23 C23        -2.4355   49.5495   23.9188 C.3       1 UNK         0.0000 
     24 C24        -3.5807   49.4299   22.8445 C.2       1 UNK         0.0000 
     25 O25        -3.3264   49.2660   21.6492 O.2       1 UNK         0.0000 
     26 C26        -5.0491   49.5393   23.2680 C.3       1 UNK         0.0000 
     27 O27        -3.0777   49.4718   25.1940 O.3       1 UNK         0.0000 
     28 C28        -2.4228   52.1163   23.2677 C.3       1 UNK         0.0000 
     29 C29         1.5993   54.4967   23.2861 C.3       1 UNK         0.0000 
     30 O30         6.3650   54.7749   23.5594 O.3       1 UNK         0.0000 
     31 H31        -0.7428   48.0428   25.7361 H         1 UNK         0.0000 
     32 H32        -2.0198   46.9556   25.2029 H         1 UNK         0.0000 
     33 H33        -0.3739   46.7227   24.6431 H         1 UNK         0.0000 
     34 H34         0.6236   49.1253   23.9346 H         1 UNK         0.0000 
     35 H35         0.3495   48.4972   22.3117 H         1 UNK         0.0000 
     36 H36         2.0793   50.0030   21.8451 H         1 UNK         0.0000 
     37 H37         1.3697   50.9650   20.5734 H         1 UNK         0.0000 
     38 H38         3.7059   51.7623   20.7962 H         1 UNK         0.0000 
     39 H39         5.1335   53.4432   21.5383 H         1 UNK         0.0000 
     40 H40         4.1612   54.7966   22.0298 H         1 UNK         0.0000 
     41 H41         4.9562   54.2706   25.7740 H         1 UNK         0.0000 
     42 H42         4.0585   55.2971   24.7015 H         1 UNK         0.0000 
     43 H43         2.4662   53.9152   25.7298 H         1 UNK         0.0000 
     44 H44         3.3739   52.4967   25.4372 H         1 UNK         0.0000 
     45 H45         0.6500   52.5383   25.9190 H         1 UNK         0.0000 
     46 H46        -0.3331   53.2672   24.7138 H         1 UNK         0.0000 
     47 H47        -1.6038   51.5476   25.8406 H         1 UNK         0.0000 
     48 H48        -0.3826   50.3693   25.5223 H         1 UNK         0.0000 
     49 H49        -5.2250   50.4817   23.7880 H         1 UNK         0.0000 
     50 H50        -5.3136   48.7132   23.9275 H         1 UNK         0.0000 
     51 H51        -5.7044   49.5004   22.3977 H         1 UNK         0.0000 
     52 H52        -2.4134   49.2975   25.8689 H         1 UNK         0.0000 
     53 H53        -1.8295   53.0253   23.1817 H         1 UNK         0.0000 
     54 H54        -2.8585   51.9623   22.2809 H         1 UNK         0.0000 
     55 H55        -3.2427   52.3293   23.9543 H         1 UNK         0.0000 
     56 H56         0.8861   54.8438   24.0276 H         1 UNK         0.0000 
     57 H57         2.3332   55.2958   23.2293 H         1 UNK         0.0000 
     58 H58         1.1044   54.4333   22.3228 H         1 UNK         0.0000 
     59 H59         6.9367   54.4965   22.8407 H         1 UNK         0.0000 
@<TRIPOS>BOND
     1    1    2 1    
     2    1   31 1    
     3    1   32 1    
     4    1   33 1    
     5    2    3 1    
     6    2   23 1    
     7    2    4 1    
     8    4    5 1    
     9    4   34 1    
    10    4   35 1    
    11    5    6 1    
    12    5   22 1    
    13    5    7 1    
    14    7    8 1    
    15    7   18 1    
    16    7    9 1    
    17    9   10 1    
    18    9   36 1    
    19    9   37 1    
    20   10   11 2    
    21   10   38 1    
    22   11   17 1    
    23   11   12 1    
    24   12   13 1    
    25   12   39 1    
    26   12   40 1    
    27   13   14 1    
    28   13   15 1    
    29   13   30 1    
    30   15   16 1    
    31   15   41 1    
    32   15   42 1    
    33   16   17 1    
    34   16   43 1    
    35   16   44 1    
    36   17   18 1    
    37   17   29 1    
    38   18   19 1    
    39   18   20 1    
    40   20   21 1    
    41   20   45 1    
    42   20   46 1    
    43   21   22 1    
    44   21   47 1    
    45   21   48 1    
    46   22   23 1    
    47   22   28 1    
    48   23   24 1    
    49   23   27 1    
    50   24   25 2    
    51   24   26 1    
    52   26   49 1    
    53   26   50 1    
    54   26   51 1    
    55   27   52 1    
    56   28   53 1    
    57   28   54 1    
    58   28   55 1    
    59   29   56 1    
    60   29   57 1    
    61   29   58 1    
    62   30   59 1    
@<TRIPOS>SUBSTRUCTURE
     1 UNK         1 GROUP             0       ****    0 ROOT    
