ZINC15879939_2407
                    3D
 Schrodinger Suite 2024-2.
 54 57  0  0  1  0            999 V2000
    3.6873   58.1592   16.6044 C   0  0  0  0  0  0
    4.8164   57.5505   17.1566 C   0  0  0  0  0  0
    4.9216   56.1546   17.1632 C   0  0  0  0  0  0
    3.8887   55.3726   16.6403 C   0  0  0  0  0  0
    2.7628   55.9810   16.0953 C   0  0  0  0  0  0
    2.6598   57.3738   16.0613 C   0  0  0  0  0  0
    1.4392   58.0055   15.3903 C   0  0  0  0  0  0
    1.5297   59.3346   15.2887 F   0  0  0  0  0  0
    0.3412   57.7053   16.0865 F   0  0  0  0  0  0
    1.3002   57.5114   14.1586 F   0  0  0  0  0  0
    6.4016   55.3322   17.7771 S   0  0  0  0  0  0
    6.5655   54.1292   16.9546 O   0  0  0  0  0  0
    7.4697   56.3343   17.8471 O   0  0  0  0  0  0
    6.0330   54.7922   19.4280 N   0  0  0  0  0  0
    4.7873   54.0202   19.6146 C   0  0  0  0  0  0
    4.9192   53.0941   20.8333 C   0  0  0  0  0  0
    5.4926   53.7306   22.1413 C   0  0  0  0  0  0
    6.4868   54.9158   21.8626 C   0  0  0  0  0  0
    6.3350   55.7083   20.5457 C   0  0  0  0  0  0
    4.3596   54.1596   22.9608 N   0  0  0  0  0  0
    4.4935   54.2473   24.3712 C   0  0  0  0  0  0
    5.7112   54.4892   24.9308 N   0  0  0  0  0  0
    6.5066   54.6452   24.3389 H   0  0  0  0  0  0
    5.9765   54.5823   26.2456 C   0  0  0  0  0  0
    7.1042   54.8863   26.6179 O   0  0  0  0  0  0
    4.8260   54.3022   27.0918 C   0  0  0  0  0  0
    3.6180   54.0811   26.4928 C   0  0  0  0  0  0
    3.4704   54.0940   25.1299 N   0  0  0  0  0  0
    2.3672   53.7050   27.2848 C   0  0  0  0  0  0
    2.6969   53.2352   28.7174 C   0  0  0  0  0  0
    3.7245   54.1612   29.3840 C   0  0  0  0  0  0
    5.0534   54.1998   28.6045 C   0  0  0  0  0  0
    3.6236   59.2407   16.5869 H   0  0  0  0  0  0
    5.6149   58.1693   17.5473 H   0  0  0  0  0  0
    3.9636   54.2924   16.6311 H   0  0  0  0  0  0
    1.9767   55.3670   15.6788 H   0  0  0  0  0  0
    3.9694   54.7135   19.8209 H   0  0  0  0  0  0
    4.5645   53.4409   18.7173 H   0  0  0  0  0  0
    3.9644   52.6007   21.0277 H   0  0  0  0  0  0
    5.5322   52.2324   20.5620 H   0  0  0  0  0  0
    6.0790   52.9432   22.6221 H   0  0  0  0  0  0
    7.4956   54.4977   21.9059 H   0  0  0  0  0  0
    6.5209   55.6232   22.6918 H   0  0  0  0  0  0
    7.2504   56.2635   20.3376 H   0  0  0  0  0  0
    5.5049   56.3956   20.6748 H   0  0  0  0  0  0
    3.4568   53.8578   22.6231 H   0  0  0  0  0  0
    1.7110   54.5742   27.3279 H   0  0  0  0  0  0
    1.7988   52.9313   26.7698 H   0  0  0  0  0  0
    1.7831   53.1845   29.3113 H   0  0  0  0  0  0
    3.0920   52.2183   28.6861 H   0  0  0  0  0  0
    3.3162   55.1708   29.4527 H   0  0  0  0  0  0
    3.9156   53.8373   30.4085 H   0  0  0  0  0  0
    5.6146   53.2862   28.8065 H   0  0  0  0  0  0
    5.6791   55.0148   28.9774 H   0  0  0  0  0  0
  1  6  2  0  0  0
  1  2  1  0  0  0
  1 33  1  0  0  0
  2  3  2  0  0  0
  2 34  1  0  0  0
  3  4  1  0  0  0
  3 11  1  0  0  0
  4  5  2  0  0  0
  4 35  1  0  0  0
  5  6  1  0  0  0
  5 36  1  0  0  0
  6  7  1  0  0  0
  7  8  1  0  0  0
  7  9  1  0  0  0
  7 10  1  0  0  0
 11 12  2  0  0  0
 11 13  2  0  0  0
 11 14  1  0  0  0
 14 19  1  0  0  0
 14 15  1  0  0  0
 15 16  1  0  0  0
 15 37  1  0  0  0
 15 38  1  0  0  0
 16 17  1  0  0  0
 16 39  1  0  0  0
 16 40  1  0  0  0
 17 18  1  0  0  0
 17 20  1  0  0  0
 17 41  1  0  0  0
 18 19  1  0  0  0
 18 42  1  0  0  0
 18 43  1  0  0  0
 19 44  1  0  0  0
 19 45  1  0  0  0
 20 21  1  0  0  0
 20 46  1  0  0  0
 21 28  2  0  0  0
 21 22  1  0  0  0
 22 23  1  0  0  0
 22 24  1  0  0  0
 24 25  2  0  0  0
 24 26  1  0  0  0
 26 32  1  0  0  0
 26 27  2  0  0  0
 27 28  1  0  0  0
 27 29  1  0  0  0
 29 30  1  0  0  0
 29 47  1  0  0  0
 29 48  1  0  0  0
 30 31  1  0  0  0
 30 49  1  0  0  0
 30 50  1  0  0  0
 31 32  1  0  0  0
 31 51  1  0  0  0
 31 52  1  0  0  0
 32 53  1  0  0  0
 32 54  1  0  0  0
M  END
> <i_i_glide_confnum>
107

> <i_i_glide_lignum>
2408

> <i_i_glide_posenum>
86

> <i_i_glide_rotatable_bonds>
5

> <i_m_Source_File_Index>
5508

> <b_m_subgroup_collapsed>
0

> <r_i_docking_score>
-5.93825

> <r_i_glide_ecoul>
-3.81348

> <r_i_glide_eff_state_penalty>
0

> <r_i_glide_einternal>
8.71065

> <r_i_glide_emodel>
-57.8033

> <r_i_glide_energy>
-47.2204

> <r_i_glide_erotb>
0.385789

> <r_i_glide_esite>
-0.0729307

> <r_i_glide_evdw>
-43.4069

> <r_i_glide_gscore>
-5.93825

> <r_i_glide_hbond>
-0.310083

> <r_i_glide_ligand_efficiency>
-0.191557

> <r_i_glide_ligand_efficiency_ln>
-1.33926

> <r_i_glide_ligand_efficiency_sa>
-0.601752

> <r_i_glide_lipo>
-2.31888

> <r_i_glide_metal>
0

> <r_i_glide_rewards>
-0.879782

> <s_i_glide_gridfile>
wee1_glide-grid

> <s_m_Source_File>
wee1_decoys_glide_SP.sdf

> <s_m_Source_Path>
/Users/zhangxujun/Desktop

> <s_m_entry_id>
5783

> <s_m_entry_name>
wee1_decoys_glide_SP.5508

> <s_m_subgroup_title>
wee1_decoys_glide_SP

> <s_m_subgroupid>
wee1_decoys_glide_SP


$$$$
