@<TRIPOS>MOLECULE
ZINC22828457_4004
73   78    1
SMALL
USER_CHARGES


@<TRIPOS>ATOM
      1 C1         -5.0700   50.1108   22.9713 C.3       1 UNK         0.0000 
      2 C2         -3.8486   49.6274   23.7701 C.3       1 UNK         0.0000 
      3 O3         -2.6618   50.3349   23.4241 O.3       1 UNK         0.0000 
      4 C4         -1.9675   50.0652   22.2825 C.2       1 UNK         0.0000 
      5 O5         -2.3478   49.2213   21.4673 O.2       1 UNK         0.0000 
      6 C6         -0.7419   50.9004   22.0505 C.2       1 UNK         0.0000 
      7 C7         -0.1619   51.5891   23.0764 C.2       1 UNK         0.0000 
      8 O8          0.9456   52.3505   22.9558 O.3       1 UNK         0.0000 
      9 C9          1.5824   52.4901   21.7740 C.2       1 UNK         0.0000 
     10 C10         1.1439   51.9401   20.6139 C.2       1 UNK         0.0000 
     11 C11        -0.1133   51.0033   20.6151 C.3       1 UNK         0.0000 
     12 C12         0.2902   49.6708   20.0555 C.ar      1 UNK         0.0000 
     13 C13         1.2505   48.7567   20.4732 C.ar      1 UNK         0.0000 
     14 C14         1.5043   47.6396   19.6816 C.ar      1 UNK         0.0000 
     15 C15         0.7857   47.4200   18.5011 C.ar      1 UNK         0.0000 
     16 C16        -0.1904   48.3344   18.0755 C.ar      1 UNK         0.0000 
     17 C17        -0.3987   49.4572   18.8825 C.ar      1 UNK         0.0000 
     18 N18        -1.3048   50.4924   18.6289 N.am      1 UNK         0.0000 
     19 C19        -1.2063   51.4565   19.5912 C.2       1 UNK         0.0000 
     20 O20        -1.8594   52.4963   19.6818 O.2       1 UNK         0.0000 
     21 C21        -2.1154   50.5331   17.3678 C.3       1 UNK         0.0000 
     22 C22        -3.5053   51.2350   17.5252 C.3       1 UNK         0.0000 
     23 C23        -4.3172   51.2808   16.2095 C.3       1 UNK         0.0000 
     24 C24        -3.5143   51.9630   15.0788 C.3       1 UNK         0.0000 
     25 C25        -2.0781   51.4126   14.9334 C.3       1 UNK         0.0000 
     26 C26        -1.3482   51.3641   16.2950 C.3       1 UNK         0.0000 
     27 C27        -2.3206   49.0278   16.9451 C.3       1 UNK         0.0000 
     28 C28        -1.0141   48.2051   16.7957 C.3       1 UNK         0.0000 
     29 H29        -0.4161   48.6497   15.9995 H         1 UNK         0.0000 
     30 C30        -1.2971   46.7464   16.3842 C.3       1 UNK         0.0000 
     31 C31         1.9235   52.1775   19.3598 C.2       1 UNK         0.0000 
     32 O32         1.4684   51.9406   18.2429 O.2       1 UNK         0.0000 
     33 C33         3.2650   52.9290   19.4760 C.3       1 UNK         0.0000 
     34 C34         3.9221   52.8901   20.8827 C.3       1 UNK         0.0000 
     35 C35         2.8686   53.2972   21.9509 C.3       1 UNK         0.0000 
     36 C36         5.0602   53.9318   20.8997 C.3       1 UNK         0.0000 
     37 C37         4.4348   51.4607   21.1582 C.3       1 UNK         0.0000 
     38 N38        -0.4954   51.6435   24.4055 N.pl3     1 UNK         0.0000 
     39 H39        -5.9743   49.6050   23.3075 H         1 UNK         0.0000 
     40 H40        -4.9558   49.9125   21.9043 H         1 UNK         0.0000 
     41 H41        -5.2224   51.1838   23.0985 H         1 UNK         0.0000 
     42 H42        -4.0307   49.7888   24.8346 H         1 UNK         0.0000 
     43 H43        -3.7042   48.5522   23.6423 H         1 UNK         0.0000 
     44 H44         1.8262   48.9215   21.3726 H         1 UNK         0.0000 
     45 H45         2.2788   46.9624   19.9916 H         1 UNK         0.0000 
     46 H46         1.0149   46.5478   17.9093 H         1 UNK         0.0000 
     47 H47        -4.0903   50.7296   18.2945 H         1 UNK         0.0000 
     48 H48        -3.3947   52.2648   17.8607 H         1 UNK         0.0000 
     49 H49        -4.6208   50.2801   15.9082 H         1 UNK         0.0000 
     50 H50        -5.2461   51.8274   16.3726 H         1 UNK         0.0000 
     51 H51        -4.0483   51.8657   14.1333 H         1 UNK         0.0000 
     52 H52        -3.4599   53.0335   15.2831 H         1 UNK         0.0000 
     53 H53        -2.1028   50.4211   14.4797 H         1 UNK         0.0000 
     54 H54        -1.5159   52.0372   14.2380 H         1 UNK         0.0000 
     55 H55        -1.1797   52.3784   16.6577 H         1 UNK         0.0000 
     56 H56        -0.3493   50.9528   16.1419 H         1 UNK         0.0000 
     57 H57        -2.8729   48.9541   16.0110 H         1 UNK         0.0000 
     58 H58        -2.9550   48.5417   17.6883 H         1 UNK         0.0000 
     59 H59        -0.3799   46.2081   16.1469 H         1 UNK         0.0000 
     60 H60        -1.8124   46.2046   17.1769 H         1 UNK         0.0000 
     61 H61        -1.9266   46.7081   15.4951 H         1 UNK         0.0000 
     62 H62         3.0391   53.9662   19.2349 H         1 UNK         0.0000 
     63 H63         3.9358   52.5650   18.6955 H         1 UNK         0.0000 
     64 H64         2.6008   54.3520   21.8838 H         1 UNK         0.0000 
     65 H65         3.2955   53.1274   22.9406 H         1 UNK         0.0000 
     66 H66         5.8215   53.6976   20.1546 H         1 UNK         0.0000 
     67 H67         4.6964   54.9360   20.6836 H         1 UNK         0.0000 
     68 H68         5.5551   53.9654   21.8699 H         1 UNK         0.0000 
     69 H69         5.1047   51.1327   20.3666 H         1 UNK         0.0000 
     70 H70         5.0096   51.4179   22.0816 H         1 UNK         0.0000 
     71 H71         3.6362   50.7215   21.2317 H         1 UNK         0.0000 
     72 H72        -1.2912   51.1272   24.7558 H         1 UNK         0.0000 
     73 H73         0.0608   52.1702   25.0620 H         1 UNK         0.0000 
@<TRIPOS>BOND
     1    1    2 1    
     2    1   39 1    
     3    1   40 1    
     4    1   41 1    
     5    2    3 1    
     6    2   42 1    
     7    2   43 1    
     8    3    4 1    
     9    4    5 2    
    10    4    6 1    
    11    6   11 1    
    12    6    7 2    
    13    7    8 1    
    14    7   38 1    
    15    8    9 1    
    16    9   35 1    
    17    9   10 2    
    18   10   11 1    
    19   10   31 1    
    20   11   19 1    
    21   11   12 1    
    22   12   17 ar   
    23   12   13 ar   
    24   13   14 ar   
    25   13   44 1    
    26   14   15 ar   
    27   14   45 1    
    28   15   16 ar   
    29   15   46 1    
    30   16   28 1    
    31   16   17 ar   
    32   17   18 1    
    33   18   19 am   BACKBONE|DICT|INTERRES
    34   18   21 1    
    35   19   20 2    
    36   21   26 1    
    37   21   22 1    
    38   21   27 1    
    39   22   23 1    
    40   22   47 1    
    41   22   48 1    
    42   23   24 1    
    43   23   49 1    
    44   23   50 1    
    45   24   25 1    
    46   24   51 1    
    47   24   52 1    
    48   25   26 1    
    49   25   53 1    
    50   25   54 1    
    51   26   55 1    
    52   26   56 1    
    53   27   28 1    
    54   27   57 1    
    55   27   58 1    
    56   28   29 1    
    57   28   30 1    
    58   30   59 1    
    59   30   60 1    
    60   30   61 1    
    61   31   32 2    
    62   31   33 1    
    63   33   34 1    
    64   33   62 1    
    65   33   63 1    
    66   34   35 1    
    67   34   36 1    
    68   34   37 1    
    69   35   64 1    
    70   35   65 1    
    71   36   66 1    
    72   36   67 1    
    73   36   68 1    
    74   37   69 1    
    75   37   70 1    
    76   37   71 1    
    77   38   72 1    
    78   38   73 1    
@<TRIPOS>SUBSTRUCTURE
     1 UNK         1 GROUP             0       ****    0 ROOT    
