@<TRIPOS>MOLECULE
ZINC38620632_4041
62   66    1
SMALL
USER_CHARGES


@<TRIPOS>ATOM
      1 C1          5.4621   54.0914   22.5023 C.ar      1 UNK         0.0000 
      2 C2          6.5037   54.5864   23.2788 C.ar      1 UNK         0.0000 
      3 C3          6.2919   54.8437   24.6279 C.ar      1 UNK         0.0000 
      4 C4          5.0439   54.6058   25.2082 C.ar      1 UNK         0.0000 
      5 C5          3.9701   54.0916   24.4426 C.ar      1 UNK         0.0000 
      6 C6          4.2151   53.8477   23.0776 C.ar      1 UNK         0.0000 
      7 N7          2.7040   53.8439   24.9962 N.pl3     1 UNK         0.0000 
      8 C8          1.4521   53.7120   24.2326 C.3       1 UNK         0.0000 
      9 C9          0.8471   52.3144   24.4356 C.3       1 UNK         0.0000 
     10 N10         0.3257   52.2503   25.8023 N.3       1 UNK         0.0000 
     11 C11         1.3523   52.5161   26.8176 C.3       1 UNK         0.0000 
     12 C12         2.4738   53.5278   26.4246 C.3       1 UNK         0.0000 
     13 C13        -0.5814   51.1299   26.1520 C.3       1 UNK         0.0000 
     14 H14        -0.4348   50.9492   27.2194 H         1 UNK         0.0000 
     15 C15        -0.2243   49.7846   25.4431 C.3       1 UNK         0.0000 
     16 N16        -1.1741   48.6912   25.6816 N.am      1 UNK         0.0000 
     17 C17        -1.8349   48.0183   24.7176 C.2       1 UNK         0.0000 
     18 O18        -1.6472   48.2193   23.5145 O.2       1 UNK         0.0000 
     19 C19        -2.8904   47.0299   25.1579 C.ar      1 UNK         0.0000 
     20 C20        -2.7952   46.3431   26.3756 C.ar      1 UNK         0.0000 
     21 C21        -3.7862   45.4396   26.7473 C.ar      1 UNK         0.0000 
     22 C22        -4.8781   45.1924   25.9157 C.ar      1 UNK         0.0000 
     23 C23        -4.9794   45.8779   24.7013 C.ar      1 UNK         0.0000 
     24 C24        -3.9913   46.7836   24.3260 C.ar      1 UNK         0.0000 
     25 C25        -5.9475   44.1884   26.3475 C.3       1 UNK         0.0000 
     26 F26        -7.1129   44.4149   25.7398 F         1 UNK         0.0000 
     27 F27        -5.5300   42.9635   26.0278 F         1 UNK         0.0000 
     28 F28        -6.1503   44.2394   27.6664 F         1 UNK         0.0000 
     29 C29        -2.0593   51.5497   26.0343 C.ar      1 UNK         0.0000 
     30 C30        -2.5061   52.4965   25.0823 C.ar      1 UNK         0.0000 
     31 C31        -3.8508   52.8872   25.0168 C.ar      1 UNK         0.0000 
     32 C32        -4.7329   52.3056   25.9192 C.ar      1 UNK         0.0000 
     33 C33        -4.3181   51.3871   26.8403 C.ar      1 UNK         0.0000 
     34 C34        -2.9899   50.9850   26.9284 C.ar      1 UNK         0.0000 
     35 O35        -5.3738   51.0196   27.6127 O.3       1 UNK         0.0000 
     36 C36        -6.5036   51.5542   26.9782 C.3       1 UNK         0.0000 
     37 O37        -6.0614   52.5398   26.0840 O.3       1 UNK         0.0000 
     38 F38         4.9090   54.8969   26.5223 F         1 UNK         0.0000 
     39 H39         5.6161   53.8875   21.4525 H         1 UNK         0.0000 
     40 H40         7.4723   54.7753   22.8389 H         1 UNK         0.0000 
     41 H41         7.0967   55.2359   25.2286 H         1 UNK         0.0000 
     42 H42         3.4567   53.4370   22.4312 H         1 UNK         0.0000 
     43 H43         0.7356   54.4964   24.4831 H         1 UNK         0.0000 
     44 H44         1.6273   53.8542   23.1695 H         1 UNK         0.0000 
     45 H45         1.6013   51.5513   24.2351 H         1 UNK         0.0000 
     46 H46         0.0302   52.1808   23.7245 H         1 UNK         0.0000 
     47 H47         0.9390   52.7452   27.8010 H         1 UNK         0.0000 
     48 H48         1.9039   51.5819   26.8824 H         1 UNK         0.0000 
     49 H49         2.1506   54.4912   26.8197 H         1 UNK         0.0000 
     50 H50         3.3858   53.2697   26.9614 H         1 UNK         0.0000 
     51 H51         0.7683   49.4571   25.7576 H         1 UNK         0.0000 
     52 H52        -0.1229   49.9552   24.3712 H         1 UNK         0.0000 
     53 H53        -1.3003   48.4281   26.6627 H         1 UNK         0.0000 
     54 H54        -1.9555   46.4968   27.0433 H         1 UNK         0.0000 
     55 H55        -3.6964   44.9066   27.6813 H         1 UNK         0.0000 
     56 H56        -5.8195   45.7103   24.0434 H         1 UNK         0.0000 
     57 H57        -4.0927   47.3042   23.3828 H         1 UNK         0.0000 
     58 H58        -1.8098   52.9572   24.3996 H         1 UNK         0.0000 
     59 H59        -4.1798   53.6204   24.2958 H         1 UNK         0.0000 
     60 H60        -2.6796   50.2614   27.6688 H         1 UNK         0.0000 
     61 H61        -7.1993   51.9717   27.7073 H         1 UNK         0.0000 
     62 H62        -7.0092   50.7626   26.4204 H         1 UNK         0.0000 
@<TRIPOS>BOND
     1    1    6 ar   
     2    1    2 ar   
     3    1   39 1    
     4    2    3 ar   
     5    2   40 1    
     6    3    4 ar   
     7    3   41 1    
     8    4    5 ar   
     9    4   38 1    
    10    5    6 ar   
    11    5    7 1    
    12    6   42 1    
    13    7   12 1    
    14    7    8 1    
    15    8    9 1    
    16    8   43 1    
    17    8   44 1    
    18    9   10 1    
    19    9   45 1    
    20    9   46 1    
    21   10   11 1    
    22   10   13 1    
    23   11   12 1    
    24   11   47 1    
    25   11   48 1    
    26   12   49 1    
    27   12   50 1    
    28   13   14 1    
    29   13   15 1    
    30   13   29 1    
    31   15   16 1    
    32   15   51 1    
    33   15   52 1    
    34   16   17 am   BACKBONE|DICT|INTERRES
    35   16   53 1    
    36   17   18 2    
    37   17   19 1    
    38   19   24 ar   
    39   19   20 ar   
    40   20   21 ar   
    41   20   54 1    
    42   21   22 ar   
    43   21   55 1    
    44   22   23 ar   
    45   22   25 1    
    46   23   24 ar   
    47   23   56 1    
    48   24   57 1    
    49   25   26 1    
    50   25   27 1    
    51   25   28 1    
    52   29   34 ar   
    53   29   30 ar   
    54   30   31 ar   
    55   30   58 1    
    56   31   32 ar   
    57   31   59 1    
    58   32   37 1    
    59   32   33 ar   
    60   33   34 ar   
    61   33   35 1    
    62   34   60 1    
    63   35   36 1    
    64   36   37 1    
    65   36   61 1    
    66   36   62 1    
@<TRIPOS>SUBSTRUCTURE
     1 UNK         1 GROUP             0       ****    0 ROOT    
