@<TRIPOS>MOLECULE
ZINC45245131_796
52   55    1
SMALL
USER_CHARGES


@<TRIPOS>ATOM
      1 C1          6.4264   54.5151   23.7601 C.ar      1 UNK         0.0000 
      2 C2          6.3846   54.9191   25.0919 C.ar      1 UNK         0.0000 
      3 C3          5.1649   54.8967   25.7632 C.ar      1 UNK         0.0000 
      4 N4          4.0116   54.4963   25.1748 N.ar      1 UNK         0.0000 
      5 C5          4.0581   54.0952   23.8717 C.ar      1 UNK         0.0000 
      6 C6          5.2542   54.0962   23.1347 C.ar      1 UNK         0.0000 
      7 F7          5.2944   53.7019   21.8423 F         1 UNK         0.0000 
      8 C8          2.7709   53.5819   23.3153 C.2       1 UNK         0.0000 
      9 N9          2.7458   52.5815   22.4550 N.2       1 UNK         0.0000 
     10 C10         1.4728   52.3613   22.3262 C.2       1 UNK         0.0000 
     11 O11         0.7027   53.2262   23.0262 O.3       1 UNK         0.0000 
     12 N12         1.5996   54.0612   23.6845 N.2       1 UNK         0.0000 
     13 C13         0.8037   51.2908   21.4753 C.3       1 UNK         0.0000 
     14 H14         1.5111   50.4654   21.3782 H         1 UNK         0.0000 
     15 C15         0.4670   51.8171   20.0729 C.3       1 UNK         0.0000 
     16 C16        -0.8197   51.1086   19.6971 C.3       1 UNK         0.0000 
     17 C17        -1.5798   50.9903   21.0154 C.3       1 UNK         0.0000 
     18 N18        -0.4947   50.8039   21.9882 N.am      1 UNK         0.0000 
     19 C19        -0.6909   50.0867   23.1274 C.2       1 UNK         0.0000 
     20 O20        -1.8075   49.6763   23.4486 O.2       1 UNK         0.0000 
     21 C21         0.4939   49.7426   24.0655 C.3       1 UNK         0.0000 
     22 C22         0.2613   49.9947   25.5835 C.3       1 UNK         0.0000 
     23 H23         1.1072   49.6207   26.1584 H         1 UNK         0.0000 
     24 C24        -0.0501   51.4695   25.9497 C.3       1 UNK         0.0000 
     25 C25         0.3290   51.8598   27.3760 C.ar      1 UNK         0.0000 
     26 C26         1.6058   52.3746   27.6324 C.ar      1 UNK         0.0000 
     27 C27         1.9804   52.7331   28.9271 C.ar      1 UNK         0.0000 
     28 C28         1.0748   52.5857   29.9776 C.ar      1 UNK         0.0000 
     29 C29        -0.2057   52.0957   29.7273 C.ar      1 UNK         0.0000 
     30 C30        -0.5804   51.7336   28.4318 C.ar      1 UNK         0.0000 
     31 F31        -1.8322   51.2788   28.2030 F         1 UNK         0.0000 
     32 F32         1.4400   52.9139   31.2375 F         1 UNK         0.0000 
     33 F33         3.2222   53.2179   29.1596 F         1 UNK         0.0000 
     34 N34        -0.8611   49.0751   26.0817 N.4       1 UNK         0.0000 
     35 F35         7.5044   55.3203   25.7231 F         1 UNK         0.0000 
     36 H36         7.3569   54.5186   23.2121 H         1 UNK         0.0000 
     37 H37         5.1044   55.1905   26.8000 H         1 UNK         0.0000 
     38 H38         1.2687   51.6141   19.3599 H         1 UNK         0.0000 
     39 H39         0.3119   52.8967   20.0781 H         1 UNK         0.0000 
     40 H40        -0.5960   50.1130   19.3079 H         1 UNK         0.0000 
     41 H41        -1.3912   51.6248   18.9244 H         1 UNK         0.0000 
     42 H42        -2.2784   50.1526   20.9702 H         1 UNK         0.0000 
     43 H43        -2.0848   51.9369   21.2150 H         1 UNK         0.0000 
     44 H44         1.4143   50.2396   23.7730 H         1 UNK         0.0000 
     45 H45         0.7031   48.6839   23.9102 H         1 UNK         0.0000 
     46 H46        -1.0897   51.7272   25.7408 H         1 UNK         0.0000 
     47 H47         0.5234   52.1185   25.2917 H         1 UNK         0.0000 
     48 H48         2.3168   52.4973   26.8299 H         1 UNK         0.0000 
     49 H49        -0.8956   51.9706   30.5468 H         1 UNK         0.0000 
     50 H50        -1.7286   49.3003   25.6146 H         1 UNK         0.0000 
     51 H51        -0.6381   48.1125   25.8713 H         1 UNK         0.0000 
     52 H52        -1.0235   49.0843   27.0976 H         1 UNK         0.0000 
@<TRIPOS>BOND
     1    1    6 ar   
     2    1    2 ar   
     3    1   36 1    
     4    2    3 ar   
     5    2   35 1    
     6    3    4 ar   
     7    3   37 1    
     8    4    5 ar   
     9    5    6 ar   
    10    5    8 1    
    11    6    7 1    
    12    8   12 2    
    13    8    9 1    
    14    9   10 2    
    15   10   11 1    
    16   10   13 1    
    17   11   12 1    
    18   13   14 1    
    19   13   18 1    
    20   13   15 1    
    21   15   16 1    
    22   15   38 1    
    23   15   39 1    
    24   16   17 1    
    25   16   40 1    
    26   16   41 1    
    27   17   18 1    
    28   17   42 1    
    29   17   43 1    
    30   18   19 am   BACKBONE|DICT|INTERRES
    31   19   20 2    
    32   19   21 1    
    33   21   22 1    
    34   21   44 1    
    35   21   45 1    
    36   22   23 1    
    37   22   24 1    
    38   22   34 1    
    39   24   25 1    
    40   24   46 1    
    41   24   47 1    
    42   25   30 ar   
    43   25   26 ar   
    44   26   27 ar   
    45   26   48 1    
    46   27   28 ar   
    47   27   33 1    
    48   28   29 ar   
    49   28   32 1    
    50   29   30 ar   
    51   29   49 1    
    52   30   31 1    
    53   34   50 1    
    54   34   51 1    
    55   34   52 1    
@<TRIPOS>SUBSTRUCTURE
     1 UNK         1 GROUP             0       ****    0 ROOT    
