@<TRIPOS>MOLECULE
ZINC02319341_6100
55   58    1
SMALL
USER_CHARGES


@<TRIPOS>ATOM
      1 C1          3.9251   54.4511   25.7746 C.ar      1 UNK         0.0000 
      2 C2          3.7742   54.4835   27.1562 C.ar      1 UNK         0.0000 
      3 C3          4.9027   54.4952   27.9708 C.ar      1 UNK         0.0000 
      4 C4          6.1814   54.4866   27.4157 C.ar      1 UNK         0.0000 
      5 C5          6.3299   54.4564   26.0308 C.ar      1 UNK         0.0000 
      6 C6          5.2014   54.4229   25.2082 C.ar      1 UNK         0.0000 
      7 C7          5.3570   54.3368   23.7317 C.2       1 UNK         0.0000 
      8 C8          6.3506   54.7312   22.8502 C.2       1 UNK         0.0000 
      9 C9          5.9030   54.3966   21.5733 C.2       1 UNK         0.0000 
     10 C10         4.6777   53.7582   21.7091 C.2       1 UNK         0.0000 
     11 O11         4.3495   53.7467   23.0296 O.3       1 UNK         0.0000 
     12 C12         3.7751   53.1855   20.7194 C.2       1 UNK         0.0000 
     13 C13         2.6043   52.5062   20.8718 C.2       1 UNK         0.0000 
     14 C14         1.8397   52.0957   19.6858 C.2       1 UNK         0.0000 
     15 O15         0.6068   52.0271   19.6987 O.2       1 UNK         0.0000 
     16 N16         2.5521   51.8405   18.5689 N.am      1 UNK         0.0000 
     17 C17         1.9963   51.5500   17.2451 C.3       1 UNK         0.0000 
     18 C18         1.7567   52.7890   16.3448 C.3       1 UNK         0.0000 
     19 H19         1.4264   52.4208   15.3712 H         1 UNK         0.0000 
     20 C20         0.7862   53.8562   16.8552 C.3       1 UNK         0.0000 
     21 C21         1.2216   55.1189   16.1461 C.3       1 UNK         0.0000 
     22 C22         2.6849   54.8583   15.7752 C.3       1 UNK         0.0000 
     23 O23         2.9679   53.5284   16.2100 O.3       1 UNK         0.0000 
     24 N24         2.0829   52.2789   22.1253 N.am      1 UNK         0.0000 
     25 C25         1.5728   51.1270   22.6315 C.2       1 UNK         0.0000 
     26 O26         1.4821   50.0773   21.9896 O.2       1 UNK         0.0000 
     27 C27         1.1042   51.1830   24.0748 C.ar      1 UNK         0.0000 
     28 C28         0.7044   50.0044   24.7281 C.ar      1 UNK         0.0000 
     29 C29         0.3005   50.0324   26.0632 C.ar      1 UNK         0.0000 
     30 C30         0.3060   51.2383   26.7608 C.ar      1 UNK         0.0000 
     31 C31         0.6947   52.4126   26.1284 C.ar      1 UNK         0.0000 
     32 C32         1.0695   52.3927   24.7894 C.ar      1 UNK         0.0000 
     33 Cl33       -0.1574   51.2967   28.4221 Cl        1 UNK         0.0000 
     34 Cl34        4.7038   54.5264   29.6815 Cl        1 UNK         0.0000 
     35 H35         3.0502   54.4511   25.1453 H         1 UNK         0.0000 
     36 H36         2.7871   54.4991   27.5940 H         1 UNK         0.0000 
     37 H37         7.0497   54.4969   28.0593 H         1 UNK         0.0000 
     38 H38         7.3180   54.4335   25.5962 H         1 UNK         0.0000 
     39 H39         7.2801   55.2231   23.1007 H         1 UNK         0.0000 
     40 H40         6.4232   54.5804   20.6444 H         1 UNK         0.0000 
     41 H41         4.1491   53.3782   19.7227 H         1 UNK         0.0000 
     42 H42         3.5596   51.7673   18.6344 H         1 UNK         0.0000 
     43 H43         2.7041   50.8968   16.7363 H         1 UNK         0.0000 
     44 H44         1.0775   50.9668   17.3271 H         1 UNK         0.0000 
     45 H45        -0.2561   53.5742   16.7063 H         1 UNK         0.0000 
     46 H46         0.8830   53.9855   17.9317 H         1 UNK         0.0000 
     47 H47         0.6246   55.2799   15.2471 H         1 UNK         0.0000 
     48 H48         1.1083   55.9985   16.7824 H         1 UNK         0.0000 
     49 H49         2.8334   54.9337   14.6969 H         1 UNK         0.0000 
     50 H50         3.3596   55.5595   16.2668 H         1 UNK         0.0000 
     51 H51         2.3802   52.9458   22.8194 H         1 UNK         0.0000 
     52 H52         0.7183   49.0528   24.2138 H         1 UNK         0.0000 
     53 H53        -0.0040   49.1192   26.5578 H         1 UNK         0.0000 
     54 H54         0.7045   53.3368   26.6827 H         1 UNK         0.0000 
     55 H55         1.3351   53.3310   24.3272 H         1 UNK         0.0000 
@<TRIPOS>BOND
     1    1    6 ar   
     2    1    2 ar   
     3    1   35 1    
     4    2    3 ar   
     5    2   36 1    
     6    3    4 ar   
     7    3   34 1    
     8    4    5 ar   
     9    4   37 1    
    10    5    6 ar   
    11    5   38 1    
    12    6    7 1    
    13    7   11 1    
    14    7    8 2    
    15    8    9 1    
    16    8   39 1    
    17    9   10 2    
    18    9   40 1    
    19   10   11 1    
    20   10   12 1    
    21   12   13 2    
    22   12   41 1    
    23   13   14 1    
    24   13   24 1    
    25   14   15 2    
    26   14   16 am   BACKBONE|DICT|INTERRES
    27   16   17 1    
    28   16   42 1    
    29   17   18 1    
    30   17   43 1    
    31   17   44 1    
    32   18   19 1    
    33   18   23 1    
    34   18   20 1    
    35   20   21 1    
    36   20   45 1    
    37   20   46 1    
    38   21   22 1    
    39   21   47 1    
    40   21   48 1    
    41   22   23 1    
    42   22   49 1    
    43   22   50 1    
    44   24   25 am   BACKBONE|DICT|INTERRES
    45   24   51 1    
    46   25   26 2    
    47   25   27 1    
    48   27   32 ar   
    49   27   28 ar   
    50   28   29 ar   
    51   28   52 1    
    52   29   30 ar   
    53   29   53 1    
    54   30   31 ar   
    55   30   33 1    
    56   31   32 ar   
    57   31   54 1    
    58   32   55 1    
@<TRIPOS>SUBSTRUCTURE
     1 UNK         1 GROUP             0       ****    0 ROOT    
