@<TRIPOS>MOLECULE
ZINC30982455_5241
53   56    1
SMALL
USER_CHARGES


@<TRIPOS>ATOM
      1 C1          4.1090   53.4032   19.4855 C.3       1 UNK         0.0000 
      2 C2          5.1029   54.0754   20.4198 C.ar      1 UNK         0.0000 
      3 C3          4.9832   53.8872   21.8007 C.ar      1 UNK         0.0000 
      4 C4          5.8693   54.5011   22.6913 C.ar      1 UNK         0.0000 
      5 C5          6.9051   55.2972   22.1778 C.ar      1 UNK         0.0000 
      6 C6          7.0301   55.4875   20.8019 C.ar      1 UNK         0.0000 
      7 C7          6.1293   54.8898   19.9227 C.ar      1 UNK         0.0000 
      8 Br8         6.3421   55.1889   18.0537 Br        1 UNK         0.0000 
      9 N9          5.5959   54.3291   24.0597 N.am      1 UNK         0.0000 
     10 C10         6.1256   54.9449   25.1411 C.2       1 UNK         0.0000 
     11 O11         7.1039   55.6930   25.1296 O.2       1 UNK         0.0000 
     12 C12         5.4147   54.7029   26.4912 C.3       1 UNK         0.0000 
     13 C13         5.9096   53.3773   27.1110 C.3       1 UNK         0.0000 
     14 C14         5.2160   53.1394   28.4646 C.3       1 UNK         0.0000 
     15 N15         3.6903   53.1257   28.2045 N.4       1 UNK         0.0000 
     16 C16         3.2083   54.5058   27.6929 C.3       1 UNK         0.0000 
     17 C17         3.8701   54.7333   26.3290 C.3       1 UNK         0.0000 
     18 C18         2.9003   52.6966   29.4663 C.3       1 UNK         0.0000 
     19 C19         1.4866   52.2930   29.0874 C.2       1 UNK         0.0000 
     20 N20         0.9751   52.1177   27.8986 N.2       1 UNK         0.0000 
     21 C21        -0.2886   51.8383   28.1620 C.2       1 UNK         0.0000 
     22 N22        -0.5978   51.7764   29.4429 N.2       1 UNK         0.0000 
     23 O23         0.5973   52.0983   30.0852 O.3       1 UNK         0.0000 
     24 C24        -1.3072   51.6450   27.0723 C.ar      1 UNK         0.0000 
     25 C25        -2.5354   51.0275   27.3443 C.ar      1 UNK         0.0000 
     26 C26        -3.4898   50.8821   26.3413 C.ar      1 UNK         0.0000 
     27 C27        -3.2213   51.3511   25.0580 C.ar      1 UNK         0.0000 
     28 C28        -2.0019   51.9548   24.7695 C.ar      1 UNK         0.0000 
     29 C29        -1.0469   52.0966   25.7704 C.ar      1 UNK         0.0000 
     30 F30        -4.1488   51.2176   24.0844 F         1 UNK         0.0000 
     31 H31         3.3013   52.9028   20.0222 H         1 UNK         0.0000 
     32 H32         4.6150   52.6675   18.8562 H         1 UNK         0.0000 
     33 H33         3.6509   54.1421   18.8266 H         1 UNK         0.0000 
     34 H34         4.1752   53.2724   22.1775 H         1 UNK         0.0000 
     35 H35         7.6129   55.7922   22.8242 H         1 UNK         0.0000 
     36 H36         7.8319   56.0962   20.4142 H         1 UNK         0.0000 
     37 H37         4.8307   53.7021   24.2505 H         1 UNK         0.0000 
     38 H38         5.7391   55.5394   27.1147 H         1 UNK         0.0000 
     39 H39         5.6224   52.5323   26.4837 H         1 UNK         0.0000 
     40 H40         6.9859   53.3923   27.3033 H         1 UNK         0.0000 
     41 H41         5.4335   53.9110   29.2078 H         1 UNK         0.0000 
     42 H42         5.4976   52.1586   28.8512 H         1 UNK         0.0000 
     43 H43         3.4734   55.2607   28.4382 H         1 UNK         0.0000 
     44 H44         2.1229   54.4781   27.5773 H         1 UNK         0.0000 
     45 H45         3.5117   55.6965   25.9669 H         1 UNK         0.0000 
     46 H46         3.5088   53.9219   25.6961 H         1 UNK         0.0000 
     47 H47         3.4460   51.8588   29.9015 H         1 UNK         0.0000 
     48 H48         2.9410   53.5440   30.1501 H         1 UNK         0.0000 
     49 H49        -2.7506   50.6390   28.3307 H         1 UNK         0.0000 
     50 H50        -4.4326   50.4010   26.5559 H         1 UNK         0.0000 
     51 H51        -1.7979   52.3087   23.7692 H         1 UNK         0.0000 
     52 H52        -0.1073   52.5726   25.5322 H         1 UNK         0.0000 
     53 H53         3.4901   52.4191   27.5045 H         1 UNK         0.0000 
@<TRIPOS>BOND
     1    1    2 1    
     2    1   31 1    
     3    1   32 1    
     4    1   33 1    
     5    2    7 ar   
     6    2    3 ar   
     7    3    4 ar   
     8    3   34 1    
     9    4    5 ar   
    10    4    9 1    
    11    5    6 ar   
    12    5   35 1    
    13    6    7 ar   
    14    6   36 1    
    15    7    8 1    
    16    9   10 am   BACKBONE|DICT|INTERRES
    17    9   37 1    
    18   10   11 2    
    19   10   12 1    
    20   12   17 1    
    21   12   13 1    
    22   12   38 1    
    23   13   14 1    
    24   13   39 1    
    25   13   40 1    
    26   14   15 1    
    27   14   41 1    
    28   14   42 1    
    29   15   16 1    
    30   15   18 1    
    31   15   53 1    
    32   16   17 1    
    33   16   43 1    
    34   16   44 1    
    35   17   45 1    
    36   17   46 1    
    37   18   19 1    
    38   18   47 1    
    39   18   48 1    
    40   19   23 1    
    41   19   20 2    
    42   20   21 1    
    43   21   22 2    
    44   21   24 1    
    45   22   23 1    
    46   24   29 ar   
    47   24   25 ar   
    48   25   26 ar   
    49   25   49 1    
    50   26   27 ar   
    51   26   50 1    
    52   27   28 ar   
    53   27   30 1    
    54   28   29 ar   
    55   28   51 1    
    56   29   52 1    
@<TRIPOS>SUBSTRUCTURE
     1 UNK         1 GROUP             0       ****    0 ROOT    
