@<TRIPOS>MOLECULE
ZINC63850106_1311
52   55    1
SMALL
USER_CHARGES


@<TRIPOS>ATOM
      1 C1         -0.4277   52.1375   17.4521 C.3       1 UNK         0.0000 
      2 C2         -0.9690   52.0959   18.8766 C.2       1 UNK         0.0000 
      3 O3         -2.1132   52.4966   19.0898 O.2       1 UNK         0.0000 
      4 N4         -0.1171   51.6215   19.8086 N.am      1 UNK         0.0000 
      5 C5         -0.3020   51.4525   21.1944 C.ar      1 UNK         0.0000 
      6 C6         -1.5054   51.7017   21.8728 C.ar      1 UNK         0.0000 
      7 C7         -1.5833   51.5191   23.2484 C.ar      1 UNK         0.0000 
      8 C8         -0.4672   51.0717   23.9544 C.ar      1 UNK         0.0000 
      9 C9          0.7294   50.8055   23.2878 C.ar      1 UNK         0.0000 
     10 C10         0.8096   50.9992   21.9107 C.ar      1 UNK         0.0000 
     11 S11        -0.5723   50.8510   25.7252 S.o2      1 UNK         0.0000 
     12 O12        -1.9941   50.8559   26.0834 O.2       1 UNK         0.0000 
     13 O13         0.3077   49.7335   26.0803 O.2       1 UNK         0.0000 
     14 N14         0.1228   52.3182   26.3872 N.pl3     1 UNK         0.0000 
     15 C15         1.5730   52.4269   26.6366 C.3       1 UNK         0.0000 
     16 C16         1.9282   53.5982   27.5837 C.3       1 UNK         0.0000 
     17 H17         1.5266   54.4968   27.1160 H         1 UNK         0.0000 
     18 C18         1.2285   53.4504   28.9335 C.2       1 UNK         0.0000 
     19 C19         0.5983   52.3303   29.4843 C.2       1 UNK         0.0000 
     20 C20         0.0635   52.5285   30.7504 C.2       1 UNK         0.0000 
     21 C21         0.3042   53.7999   31.2328 C.2       1 UNK         0.0000 
     22 S22         1.1065   54.7828   30.0584 S.3       1 UNK         0.0000 
     23 C23         3.4383   53.8391   27.6371 C.2       1 UNK         0.0000 
     24 C24         4.3242   54.1065   26.6555 C.2       1 UNK         0.0000 
     25 C25         4.1411   54.2749   25.2042 C.2       1 UNK         0.0000 
     26 C26         5.1971   54.4971   24.3958 C.2       1 UNK         0.0000 
     27 C27         6.5190   54.5793   25.0004 C.2       1 UNK         0.0000 
     28 C28         6.7018   54.4447   26.3402 C.2       1 UNK         0.0000 
     29 C29         5.6150   54.2068   27.1847 C.2       1 UNK         0.0000 
     30 N30         5.6019   54.0458   28.4818 N.pl3     1 UNK         0.0000 
     31 C31         4.2283   53.7912   28.9358 C.3       1 UNK         0.0000 
     32 H32         0.4296   51.4748   17.3226 H         1 UNK         0.0000 
     33 H33        -0.1188   53.1531   17.2001 H         1 UNK         0.0000 
     34 H34        -1.2009   51.8303   16.7467 H         1 UNK         0.0000 
     35 H35         0.7996   51.3655   19.4741 H         1 UNK         0.0000 
     36 H36        -2.3957   52.0356   21.3677 H         1 UNK         0.0000 
     37 H37        -2.5138   51.7218   23.7590 H         1 UNK         0.0000 
     38 H38         1.5925   50.4480   23.8319 H         1 UNK         0.0000 
     39 H39         1.7437   50.7918   21.4074 H         1 UNK         0.0000 
     40 H40        -0.5051   52.9557   26.8825 H         1 UNK         0.0000 
     41 H41         1.9041   51.4891   27.0819 H         1 UNK         0.0000 
     42 H42         2.0735   52.4978   25.6716 H         1 UNK         0.0000 
     43 H43         0.5123   51.3810   28.9743 H         1 UNK         0.0000 
     44 H44        -0.4815   51.7609   31.2812 H         1 UNK         0.0000 
     45 H45         0.0025   54.2059   32.1879 H         1 UNK         0.0000 
     46 H46         3.1633   54.2305   24.7462 H         1 UNK         0.0000 
     47 H47         5.0666   54.6147   23.3289 H         1 UNK         0.0000 
     48 H48         7.3774   54.7461   24.3627 H         1 UNK         0.0000 
     49 H49         7.6985   54.4964   26.7486 H         1 UNK         0.0000 
     50 H50         3.9632   54.5771   29.6433 H         1 UNK         0.0000 
     51 H51         4.2051   52.8168   29.4265 H         1 UNK         0.0000 
     52 H52         6.4158   54.0880   29.0918 H         1 UNK         0.0000 
@<TRIPOS>BOND
     1    1    2 1    
     2    1   32 1    
     3    1   33 1    
     4    1   34 1    
     5    2    3 2    
     6    2    4 am   BACKBONE|DICT|INTERRES
     7    4    5 1    
     8    4   35 1    
     9    5   10 ar   
    10    5    6 ar   
    11    6    7 ar   
    12    6   36 1    
    13    7    8 ar   
    14    7   37 1    
    15    8    9 ar   
    16    8   11 1    
    17    9   10 ar   
    18    9   38 1    
    19   10   39 1    
    20   11   12 2    
    21   11   13 2    
    22   11   14 1    
    23   14   15 1    
    24   14   40 1    
    25   15   16 1    
    26   15   41 1    
    27   15   42 1    
    28   16   17 1    
    29   16   18 1    
    30   16   23 1    
    31   18   22 1    
    32   18   19 2    
    33   19   20 1    
    34   19   43 1    
    35   20   21 2    
    36   20   44 1    
    37   21   22 1    
    38   21   45 1    
    39   23   31 1    
    40   23   24 2    
    41   24   29 1    
    42   24   25 1    
    43   25   26 2    
    44   25   46 1    
    45   26   27 1    
    46   26   47 1    
    47   27   28 2    
    48   27   48 1    
    49   28   29 1    
    50   28   49 1    
    51   29   30 2    
    52   30   31 1    
    53   30   52 1    
    54   31   50 1    
    55   31   51 1    
@<TRIPOS>SUBSTRUCTURE
     1 UNK         1 GROUP             0       ****    0 ROOT    
