@<TRIPOS>MOLECULE
ZINC53735903_1757
37   39    1
SMALL
USER_CHARGES


@<TRIPOS>ATOM
      1 C1          1.3042   56.5026   30.4809 C.3       1 UNK         0.0000 
      2 C2          1.4228   55.2199   29.6770 C.ar      1 UNK         0.0000 
      3 C3          0.7072   54.0806   30.0519 C.ar      1 UNK         0.0000 
      4 C4          0.7623   52.9344   29.2603 C.ar      1 UNK         0.0000 
      5 C5          1.5408   52.9096   28.1016 C.ar      1 UNK         0.0000 
      6 C6          2.3047   54.0336   27.7414 C.ar      1 UNK         0.0000 
      7 C7          2.2051   55.1930   28.5224 C.ar      1 UNK         0.0000 
      8 N8          3.1122   54.0569   26.5727 N.pl3     1 UNK         0.0000 
      9 C9          2.7118   53.7299   25.2818 C.ar      1 UNK         0.0000 
     10 C10         1.5053   53.2977   24.7130 C.ar      1 UNK         0.0000 
     11 C11         1.5116   53.0417   23.3389 C.ar      1 UNK         0.0000 
     12 C12         2.6539   53.2187   22.5593 C.ar      1 UNK         0.0000 
     13 C13         3.8375   53.6969   23.1097 C.ar      1 UNK         0.0000 
     14 C14         3.8637   53.9464   24.4859 C.ar      1 UNK         0.0000 
     15 N15         4.9160   54.3573   25.2412 N.2       1 UNK         0.0000 
     16 C16         4.4690   54.3804   26.4747 C.ar      1 UNK         0.0000 
     17 C17         5.3939   54.6341   27.6728 C.3       1 UNK         0.0000 
     18 H18         4.9116   55.2809   28.4040 H         1 UNK         0.0000 
     19 C19         5.8171   53.3275   28.3539 C.3       1 UNK         0.0000 
     20 O20         6.5908   55.2957   27.2818 O.3       1 UNK         0.0000 
     21 N21         2.6304   52.8963   21.2082 N.pl3     1 UNK         0.0000 
     22 F22         1.5366   51.7892   27.3498 F         1 UNK         0.0000 
     23 H23         0.3030   56.6225   30.8769 H         1 UNK         0.0000 
     24 H24         1.5045   57.3826   29.8673 H         1 UNK         0.0000 
     25 H25         1.9825   56.5007   31.3259 H         1 UNK         0.0000 
     26 H26         0.0899   54.0855   30.9401 H         1 UNK         0.0000 
     27 H27         0.1879   52.0613   29.5376 H         1 UNK         0.0000 
     28 H28         2.7062   56.0966   28.2249 H         1 UNK         0.0000 
     29 H29         0.6159   53.1367   25.3041 H         1 UNK         0.0000 
     30 H30         0.6091   52.6690   22.8753 H         1 UNK         0.0000 
     31 H31         4.7204   53.8414   22.5045 H         1 UNK         0.0000 
     32 H32         4.9675   52.8122   28.7987 H         1 UNK         0.0000 
     33 H33         6.2831   52.6427   27.6441 H         1 UNK         0.0000 
     34 H34         6.5472   53.5160   29.1400 H         1 UNK         0.0000 
     35 H35         7.0891   55.4927   28.0901 H         1 UNK         0.0000 
     36 H36         3.4707   53.0955   20.6863 H         1 UNK         0.0000 
     37 H37         1.7491   53.0320   20.7266 H         1 UNK         0.0000 
@<TRIPOS>BOND
     1    1    2 1    
     2    1   23 1    
     3    1   24 1    
     4    1   25 1    
     5    2    7 ar   
     6    2    3 ar   
     7    3    4 ar   
     8    3   26 1    
     9    4    5 ar   
    10    4   27 1    
    11    5    6 ar   
    12    5   22 1    
    13    6    7 ar   
    14    6    8 1    
    15    7   28 1    
    16    8   16 ar   
    17    8    9 ar   
    18    9   14 ar   
    19    9   10 ar   
    20   10   11 ar   
    21   10   29 1    
    22   11   12 ar   
    23   11   30 1    
    24   12   13 ar   
    25   12   21 1    
    26   13   14 ar   
    27   13   31 1    
    28   14   15 ar   
    29   15   16 ar   
    30   16   17 1    
    31   17   18 1    
    32   17   19 1    
    33   17   20 1    
    34   19   32 1    
    35   19   33 1    
    36   19   34 1    
    37   20   35 1    
    38   21   36 1    
    39   21   37 1    
@<TRIPOS>SUBSTRUCTURE
     1 UNK         1 GROUP             0       ****    0 ROOT    
