@<TRIPOS>MOLECULE
ZINC27662601_2311
58   62    1
SMALL
USER_CHARGES


@<TRIPOS>ATOM
      1 C1          1.6755   52.5290   30.7470 C.3       1 UNK         0.0000 
      2 C2          2.4775   52.9881   29.5415 C.ar      1 UNK         0.0000 
      3 C3          3.8238   53.3302   29.6804 C.ar      1 UNK         0.0000 
      4 C4          4.5636   53.7184   28.5650 C.ar      1 UNK         0.0000 
      5 C5          3.9635   53.7564   27.3014 C.ar      1 UNK         0.0000 
      6 C6          2.6120   53.4214   27.1707 C.ar      1 UNK         0.0000 
      7 C7          1.8717   53.0368   28.2854 C.ar      1 UNK         0.0000 
      8 C8          4.7552   54.0967   26.0815 C.2       1 UNK         0.0000 
      9 C9          4.4743   54.1105   24.7288 C.2       1 UNK         0.0000 
     10 C10         5.6911   54.3854   24.0822 C.2       1 UNK         0.0000 
     11 N11         6.6298   54.6328   24.9764 N.2       1 UNK         0.0000 
     12 O12         6.0627   54.4284   26.2346 O.3       1 UNK         0.0000 
     13 C13         5.9054   54.4967   22.6539 C.2       1 UNK         0.0000 
     14 O14         6.8492   55.1615   22.2218 O.2       1 UNK         0.0000 
     15 N15         5.0013   53.8292   21.8931 N.am      1 UNK         0.0000 
     16 C16         4.8986   53.7812   20.4945 C.2       1 UNK         0.0000 
     17 C17         3.9912   53.0015   19.7337 C.2       1 UNK         0.0000 
     18 C18         4.0726   53.2994   18.3432 C.2       1 UNK         0.0000 
     19 C19         5.0860   54.2207   18.0467 C.2       1 UNK         0.0000 
     20 S20         5.8962   54.7769   19.4598 S.3       1 UNK         0.0000 
     21 C21         5.5105   54.6591   16.6515 C.3       1 UNK         0.0000 
     22 C22         4.4225   54.2625   15.6341 C.3       1 UNK         0.0000 
     23 C23         3.9396   52.8198   15.8520 C.3       1 UNK         0.0000 
     24 C24         3.2516   52.6419   17.2228 C.3       1 UNK         0.0000 
     25 C25         2.9886   52.0973   20.2772 C.2       1 UNK         0.0000 
     26 O26         1.8745   51.9776   19.7645 O.2       1 UNK         0.0000 
     27 N27         3.3565   51.4174   21.3791 N.am      1 UNK         0.0000 
     28 C28         2.4805   50.4974   22.1150 C.3       1 UNK         0.0000 
     29 C29         1.5046   51.1303   23.1083 C.ar      1 UNK         0.0000 
     30 C30         1.1892   52.4989   23.1178 C.ar      1 UNK         0.0000 
     31 C31         0.3013   53.0001   24.0703 C.ar      1 UNK         0.0000 
     32 C32        -0.2471   52.1154   25.0002 C.ar      1 UNK         0.0000 
     33 N33         0.0485   50.7922   25.0201 N.ar      1 UNK         0.0000 
     34 C34         0.9086   50.3204   24.0825 C.ar      1 UNK         0.0000 
     35 H35         2.3162   52.0973   31.5167 H         1 UNK         0.0000 
     36 H36         1.1107   53.3559   31.1762 H         1 UNK         0.0000 
     37 H37         0.9683   51.7500   30.4598 H         1 UNK         0.0000 
     38 H38         4.3035   53.2830   30.6466 H         1 UNK         0.0000 
     39 H39         5.6087   53.9669   28.6852 H         1 UNK         0.0000 
     40 H40         2.1340   53.4351   26.2029 H         1 UNK         0.0000 
     41 H41         0.8331   52.7623   28.1674 H         1 UNK         0.0000 
     42 H42         3.5175   53.9001   24.2747 H         1 UNK         0.0000 
     43 H43         4.3089   53.2899   22.3903 H         1 UNK         0.0000 
     44 H44         5.6925   55.7336   16.6077 H         1 UNK         0.0000 
     45 H45         6.4468   54.1674   16.3842 H         1 UNK         0.0000 
     46 H46         3.5752   54.9463   15.7148 H         1 UNK         0.0000 
     47 H47         4.8090   54.3797   14.6208 H         1 UNK         0.0000 
     48 H48         3.2509   52.5298   15.0574 H         1 UNK         0.0000 
     49 H49         4.7862   52.1339   15.7794 H         1 UNK         0.0000 
     50 H50         3.1061   51.5763   17.4107 H         1 UNK         0.0000 
     51 H51         2.2537   53.0813   17.1995 H         1 UNK         0.0000 
     52 H52         4.3303   51.4312   21.6385 H         1 UNK         0.0000 
     53 H53         3.1041   49.7915   22.6640 H         1 UNK         0.0000 
     54 H54         1.8998   49.8947   21.4122 H         1 UNK         0.0000 
     55 H55         1.6113   53.1798   22.3934 H         1 UNK         0.0000 
     56 H56         0.0436   54.0486   24.0819 H         1 UNK         0.0000 
     57 H57        -0.9396   52.4618   25.7530 H         1 UNK         0.0000 
     58 H58         1.1252   49.2624   24.1363 H         1 UNK         0.0000 
@<TRIPOS>BOND
     1    1    2 1    
     2    1   35 1    
     3    1   36 1    
     4    1   37 1    
     5    2    7 ar   
     6    2    3 ar   
     7    3    4 ar   
     8    3   38 1    
     9    4    5 ar   
    10    4   39 1    
    11    5    6 ar   
    12    5    8 1    
    13    6    7 ar   
    14    6   40 1    
    15    7   41 1    
    16    8   12 1    
    17    8    9 2    
    18    9   10 1    
    19    9   42 1    
    20   10   11 2    
    21   10   13 1    
    22   11   12 1    
    23   13   14 2    
    24   13   15 am   BACKBONE|DICT|INTERRES
    25   15   16 am   BACKBONE|DICT|INTERRES
    26   15   43 1    
    27   16   20 1    
    28   16   17 2    
    29   17   18 1    
    30   17   25 1    
    31   18   24 1    
    32   18   19 2    
    33   19   20 1    
    34   19   21 1    
    35   21   22 1    
    36   21   44 1    
    37   21   45 1    
    38   22   23 1    
    39   22   46 1    
    40   22   47 1    
    41   23   24 1    
    42   23   48 1    
    43   23   49 1    
    44   24   50 1    
    45   24   51 1    
    46   25   26 2    
    47   25   27 am   BACKBONE|DICT|INTERRES
    48   27   28 1    
    49   27   52 1    
    50   28   29 1    
    51   28   53 1    
    52   28   54 1    
    53   29   34 ar   
    54   29   30 ar   
    55   30   31 ar   
    56   30   55 1    
    57   31   32 ar   
    58   31   56 1    
    59   32   33 ar   
    60   32   57 1    
    61   33   34 ar   
    62   34   58 1    
@<TRIPOS>SUBSTRUCTURE
     1 UNK         1 GROUP             0       ****    0 ROOT    
