@<TRIPOS>MOLECULE
ZINC22068045_3821
44   46    1
SMALL
USER_CHARGES


@<TRIPOS>ATOM
      1 C1          3.2233   52.8710   29.1898 C.3       1 UNK         0.0000 
      2 C2          2.9737   53.9835   28.1515 C.3       1 UNK         0.0000 
      3 C3          2.5399   55.2991   28.8229 C.3       1 UNK         0.0000 
      4 C4          4.1711   54.1888   27.2193 C.ar      1 UNK         0.0000 
      5 C5          5.4424   54.4609   27.7369 C.ar      1 UNK         0.0000 
      6 C6          6.5310   54.6225   26.8837 C.ar      1 UNK         0.0000 
      7 C7          6.3645   54.5217   25.5031 C.ar      1 UNK         0.0000 
      8 C8          5.0943   54.2601   24.9636 C.ar      1 UNK         0.0000 
      9 C9          4.0083   54.0969   25.8313 C.ar      1 UNK         0.0000 
     10 N10         4.8268   54.0966   23.5906 N.am      1 UNK         0.0000 
     11 C11         5.6067   54.3682   22.5207 C.2       1 UNK         0.0000 
     12 O12         6.7042   54.9251   22.5747 O.2       1 UNK         0.0000 
     13 C13         5.0129   53.9987   21.1802 C.ar      1 UNK         0.0000 
     14 C14         5.3245   54.7604   20.0495 C.ar      1 UNK         0.0000 
     15 C15         4.7752   54.4456   18.8105 C.ar      1 UNK         0.0000 
     16 C16         3.9125   53.3597   18.6620 C.ar      1 UNK         0.0000 
     17 C17         3.6159   52.5440   19.7836 C.ar      1 UNK         0.0000 
     18 C18         4.1648   52.8898   21.0249 C.ar      1 UNK         0.0000 
     19 N19         2.7956   51.4038   19.6790 N.am      1 UNK         0.0000 
     20 C20         1.6070   51.2263   19.0684 C.2       1 UNK         0.0000 
     21 O21         1.1057   50.1217   18.8799 O.2       1 UNK         0.0000 
     22 C22         0.9466   52.5203   18.5665 C.3       1 UNK         0.0000 
     23 C23         1.4798   52.9935   17.2013 C.3       1 UNK         0.0000 
     24 S24         3.2972   53.0063   17.0283 S.3       1 UNK         0.0000 
     25 H25         3.5192   51.9403   28.7051 H         1 UNK         0.0000 
     26 H26         2.3211   52.6625   29.7661 H         1 UNK         0.0000 
     27 H27         4.0083   53.1406   29.8970 H         1 UNK         0.0000 
     28 H28         2.1334   53.6446   27.5423 H         1 UNK         0.0000 
     29 H29         2.3032   56.0632   28.0824 H         1 UNK         0.0000 
     30 H30         1.6491   55.1556   29.4356 H         1 UNK         0.0000 
     31 H31         3.3233   55.6962   29.4680 H         1 UNK         0.0000 
     32 H32         5.5953   54.5451   28.8031 H         1 UNK         0.0000 
     33 H33         7.5045   54.8189   27.3056 H         1 UNK         0.0000 
     34 H34         7.2368   54.6282   24.8772 H         1 UNK         0.0000 
     35 H35         3.0286   53.8829   25.4286 H         1 UNK         0.0000 
     36 H36         3.9121   53.7301   23.3802 H         1 UNK         0.0000 
     37 H37         5.9867   55.6122   20.1233 H         1 UNK         0.0000 
     38 H38         5.0248   55.0509   17.9512 H         1 UNK         0.0000 
     39 H39         3.9319   52.2625   21.8736 H         1 UNK         0.0000 
     40 H40         3.2357   50.5240   19.9005 H         1 UNK         0.0000 
     41 H41         1.2016   53.2963   19.2839 H         1 UNK         0.0000 
     42 H42        -0.1347   52.3865   18.5509 H         1 UNK         0.0000 
     43 H43         1.0968   53.9920   16.9889 H         1 UNK         0.0000 
     44 H44         1.0830   52.3591   16.4073 H         1 UNK         0.0000 
@<TRIPOS>BOND
     1    1    2 1    
     2    1   25 1    
     3    1   26 1    
     4    1   27 1    
     5    2    3 1    
     6    2    4 1    
     7    2   28 1    
     8    3   29 1    
     9    3   30 1    
    10    3   31 1    
    11    4    9 ar   
    12    4    5 ar   
    13    5    6 ar   
    14    5   32 1    
    15    6    7 ar   
    16    6   33 1    
    17    7    8 ar   
    18    7   34 1    
    19    8    9 ar   
    20    8   10 1    
    21    9   35 1    
    22   10   11 am   BACKBONE|DICT|INTERRES
    23   10   36 1    
    24   11   12 2    
    25   11   13 1    
    26   13   18 ar   
    27   13   14 ar   
    28   14   15 ar   
    29   14   37 1    
    30   15   16 ar   
    31   15   38 1    
    32   16   24 1    
    33   16   17 ar   
    34   17   18 ar   
    35   17   19 1    
    36   18   39 1    
    37   19   20 am   BACKBONE|DICT|INTERRES
    38   19   40 1    
    39   20   21 2    
    40   20   22 1    
    41   22   23 1    
    42   22   41 1    
    43   22   42 1    
    44   23   24 1    
    45   23   43 1    
    46   23   44 1    
@<TRIPOS>SUBSTRUCTURE
     1 UNK         1 GROUP             0       ****    0 ROOT    
