@<TRIPOS>MOLECULE
ZINC38700911_3994
56   60    1
SMALL
USER_CHARGES


@<TRIPOS>ATOM
      1 C1          7.8210   58.2306   18.3927 C.3       1 UNK         0.0000 
      2 C2          8.0762   56.7350   18.3976 C.2       1 UNK         0.0000 
      3 C3          8.9975   56.0455   17.5393 C.ar      1 UNK         0.0000 
      4 C4          9.8919   56.4144   16.5198 C.ar      1 UNK         0.0000 
      5 C5         10.6600   55.4236   15.9042 C.ar      1 UNK         0.0000 
      6 C6         10.5490   54.0829   16.2783 C.ar      1 UNK         0.0000 
      7 C7          9.6646   53.6783   17.2796 C.ar      1 UNK         0.0000 
      8 C8          8.9039   54.6810   17.8895 C.ar      1 UNK         0.0000 
      9 O9          7.9980   54.4967   18.8856 O.3       1 UNK         0.0000 
     10 C10         7.5249   55.7358   19.2155 C.2       1 UNK         0.0000 
     11 C11         6.6077   55.8264   20.3554 C.2       1 UNK         0.0000 
     12 O12         6.3048   56.8977   20.8815 O.2       1 UNK         0.0000 
     13 O13         6.1624   54.6008   20.7587 O.3       1 UNK         0.0000 
     14 C14         5.5252   54.4872   21.9739 C.ar      1 UNK         0.0000 
     15 C15         4.1338   54.4968   22.0396 C.ar      1 UNK         0.0000 
     16 C16         3.4940   54.4752   23.2770 C.ar      1 UNK         0.0000 
     17 C17         4.2056   54.3147   24.4783 C.ar      1 UNK         0.0000 
     18 C18         5.6121   54.2515   24.3803 C.ar      1 UNK         0.0000 
     19 C19         6.2651   54.3473   23.1514 C.ar      1 UNK         0.0000 
     20 O20         6.4322   54.0967   25.4772 O.3       1 UNK         0.0000 
     21 C21         5.8752   54.0006   26.7052 C.2       1 UNK         0.0000 
     22 C22         4.5547   54.0237   26.9743 C.2       1 UNK         0.0000 
     23 C23         3.5047   54.2121   25.8605 C.3       1 UNK         0.0000 
     24 H24         3.1045   55.2053   26.0492 H         1 UNK         0.0000 
     25 C25         2.2507   53.2957   25.9333 C.ar      1 UNK         0.0000 
     26 C26         1.8756   52.4641   24.8678 C.ar      1 UNK         0.0000 
     27 C27         0.7239   51.6867   24.9204 C.ar      1 UNK         0.0000 
     28 C28        -0.0890   51.7095   26.0529 C.ar      1 UNK         0.0000 
     29 C29         0.2911   52.4974   27.1456 C.ar      1 UNK         0.0000 
     30 C30         1.4329   53.2972   27.0725 C.ar      1 UNK         0.0000 
     31 C31        -1.3171   50.8491   26.0786 C.2       1 UNK         0.0000 
     32 O32        -1.4117   49.7954   25.4497 O.2       1 UNK         0.0000 
     33 O33        -2.3735   51.3569   26.7573 O.3       1 UNK         0.0000 
     34 C34        -2.8490   52.6680   26.4807 C.3       1 UNK         0.0000 
     35 C35         4.1462   53.9558   28.3437 C.1       1 UNK         0.0000 
     36 N36         3.8588   53.9261   29.4659 N.1       1 UNK         0.0000 
     37 N37         6.8902   53.8519   27.6095 N.pl3     1 UNK         0.0000 
     38 F38        11.5281   55.7716   14.9295 F         1 UNK         0.0000 
     39 H39         7.5909   58.5930   17.3903 H         1 UNK         0.0000 
     40 H40         6.9816   58.5306   19.0200 H         1 UNK         0.0000 
     41 H41         8.6931   58.7858   18.7372 H         1 UNK         0.0000 
     42 H42         9.9939   57.4453   16.2179 H         1 UNK         0.0000 
     43 H43        11.1630   53.3478   15.7794 H         1 UNK         0.0000 
     44 H44         9.5777   52.6434   17.5804 H         1 UNK         0.0000 
     45 H45         3.5495   54.5918   21.1349 H         1 UNK         0.0000 
     46 H46         2.4171   54.5604   23.2944 H         1 UNK         0.0000 
     47 H47         7.3449   54.3196   23.1130 H         1 UNK         0.0000 
     48 H48         2.4834   52.3533   23.9861 H         1 UNK         0.0000 
     49 H49         0.4820   51.0562   24.0753 H         1 UNK         0.0000 
     50 H50        -0.3031   52.5129   28.0489 H         1 UNK         0.0000 
     51 H51         1.6596   53.9338   27.9128 H         1 UNK         0.0000 
     52 H52        -3.8277   52.8066   26.9388 H         1 UNK         0.0000 
     53 H53        -2.9617   52.8300   25.4075 H         1 UNK         0.0000 
     54 H54        -2.1784   53.4304   26.8756 H         1 UNK         0.0000 
     55 H55         6.7172   53.9540   28.6000 H         1 UNK         0.0000 
     56 H56         7.7587   53.4207   27.3313 H         1 UNK         0.0000 
@<TRIPOS>BOND
     1    1    2 1    
     2    1   39 1    
     3    1   40 1    
     4    1   41 1    
     5    2   10 2    
     6    2    3 1    
     7    3    8 ar   
     8    3    4 ar   
     9    4    5 ar   
    10    4   42 1    
    11    5    6 ar   
    12    5   38 1    
    13    6    7 ar   
    14    6   43 1    
    15    7    8 ar   
    16    7   44 1    
    17    8    9 1    
    18    9   10 1    
    19   10   11 1    
    20   11   12 2    
    21   11   13 1    
    22   13   14 1    
    23   14   19 ar   
    24   14   15 ar   
    25   15   16 ar   
    26   15   45 1    
    27   16   17 ar   
    28   16   46 1    
    29   17   23 1    
    30   17   18 ar   
    31   18   19 ar   
    32   18   20 1    
    33   19   47 1    
    34   20   21 1    
    35   21   22 2    
    36   21   37 1    
    37   22   23 1    
    38   22   35 1    
    39   23   24 1    
    40   23   25 1    
    41   25   30 ar   
    42   25   26 ar   
    43   26   27 ar   
    44   26   48 1    
    45   27   28 ar   
    46   27   49 1    
    47   28   29 ar   
    48   28   31 1    
    49   29   30 ar   
    50   29   50 1    
    51   30   51 1    
    52   31   32 2    
    53   31   33 1    
    54   33   34 1    
    55   34   52 1    
    56   34   53 1    
    57   34   54 1    
    58   35   36 3    
    59   37   55 1    
    60   37   56 1    
@<TRIPOS>SUBSTRUCTURE
     1 UNK         1 GROUP             0       ****    0 ROOT    
