@<TRIPOS>MOLECULE
ZINC33069412_2313
64   67    1
SMALL
USER_CHARGES


@<TRIPOS>ATOM
      1 C1          6.7087   55.3371   26.0656 C.3       1 UNK         0.0000 
      2 C2          5.8421   54.8001   24.9513 C.ar      1 UNK         0.0000 
      3 C3          4.5401   54.2627   24.9697 C.ar      1 UNK         0.0000 
      4 C4          4.1928   54.0964   23.6264 C.ar      1 UNK         0.0000 
      5 N5          5.3133   54.4954   22.8993 N.pl3     1 UNK         0.0000 
      6 N6          6.3043   54.8723   23.7274 N.2       1 UNK         0.0000 
      7 C7          5.5459   54.6260   21.4946 C.ar      1 UNK         0.0000 
      8 C8          5.1053   53.6620   20.5771 C.ar      1 UNK         0.0000 
      9 C9          5.3604   53.8062   19.2170 C.ar      1 UNK         0.0000 
     10 C10         6.0589   54.9187   18.7594 C.ar      1 UNK         0.0000 
     11 C11         6.5183   55.8817   19.6516 C.ar      1 UNK         0.0000 
     12 C12         6.2735   55.7309   21.0133 C.ar      1 UNK         0.0000 
     13 N13         2.9920   53.7253   23.0782 N.pl3     1 UNK         0.0000 
     14 C14         1.7516   54.4549   23.3892 C.3       1 UNK         0.0000 
     15 C15         0.6590   53.6107   24.0815 C.3       1 UNK         0.0000 
     16 C16         0.3916   52.3108   23.3020 C.3       1 UNK         0.0000 
     17 C17         1.7101   51.5334   23.1349 C.3       1 UNK         0.0000 
     18 C18         2.7532   52.4209   22.4426 C.3       1 UNK         0.0000 
     19 C19        -0.6526   51.3992   23.9843 C.2       1 UNK         0.0000 
     20 O20        -1.2379   51.7712   25.0045 O.2       1 UNK         0.0000 
     21 N21        -0.9382   50.2442   23.3482 N.am      1 UNK         0.0000 
     22 C22        -1.6927   49.2029   23.8976 C.ar      1 UNK         0.0000 
     23 C23        -2.8396   48.7695   23.2272 C.ar      1 UNK         0.0000 
     24 C24        -3.5911   47.7119   23.7427 C.ar      1 UNK         0.0000 
     25 C25        -3.1915   47.0761   24.9178 C.ar      1 UNK         0.0000 
     26 C26        -2.0270   47.4830   25.5687 C.ar      1 UNK         0.0000 
     27 C27        -1.2696   48.5383   25.0597 C.ar      1 UNK         0.0000 
     28 F28        -0.1209   48.8959   25.6808 F         1 UNK         0.0000 
     29 F29        -4.7070   47.2999   23.1010 F         1 UNK         0.0000 
     30 N30         3.6670   54.0807   26.0338 N.am      1 UNK         0.0000 
     31 C31         3.9859   53.6965   27.2878 C.2       1 UNK         0.0000 
     32 O32         5.1232   53.4120   27.6680 O.2       1 UNK         0.0000 
     33 C33         2.8065   53.6186   28.2804 C.3       1 UNK         0.0000 
     34 C34         2.8831   52.3721   29.1904 C.3       1 UNK         0.0000 
     35 C35         2.7178   54.9139   29.1143 C.3       1 UNK         0.0000 
     36 H36         6.1349   55.6517   26.9367 H         1 UNK         0.0000 
     37 H37         7.4308   54.5940   26.4036 H         1 UNK         0.0000 
     38 H38         7.2544   56.2179   25.7344 H         1 UNK         0.0000 
     39 H39         4.6233   52.7563   20.8817 H         1 UNK         0.0000 
     40 H40         5.0351   53.0445   18.5214 H         1 UNK         0.0000 
     41 H41         6.2560   55.0275   17.7031 H         1 UNK         0.0000 
     42 H42         7.0654   56.7387   19.2848 H         1 UNK         0.0000 
     43 H43         6.6370   56.4896   21.6912 H         1 UNK         0.0000 
     44 H44         1.9955   55.2965   24.0394 H         1 UNK         0.0000 
     45 H45         1.3671   54.8970   22.4803 H         1 UNK         0.0000 
     46 H46         0.9916   53.4264   25.1044 H         1 UNK         0.0000 
     47 H47        -0.2388   54.2285   24.0816 H         1 UNK         0.0000 
     48 H48         0.0035   52.4950   22.2972 H         1 UNK         0.0000 
     49 H49         1.5951   50.6618   22.4872 H         1 UNK         0.0000 
     50 H50         2.1538   51.2365   24.0846 H         1 UNK         0.0000 
     51 H51         2.4838   52.5928   21.3979 H         1 UNK         0.0000 
     52 H52         3.6837   51.8603   22.4363 H         1 UNK         0.0000 
     53 H53        -0.5767   50.1053   22.4175 H         1 UNK         0.0000 
     54 H54        -3.1589   49.2575   22.3191 H         1 UNK         0.0000 
     55 H55        -3.7849   46.2725   25.3257 H         1 UNK         0.0000 
     56 H56        -1.7048   46.9967   26.4796 H         1 UNK         0.0000 
     57 H57         2.6874   54.0900   25.7963 H         1 UNK         0.0000 
     58 H58         1.8790   53.5314   27.7107 H         1 UNK         0.0000 
     59 H59         2.8931   51.4512   28.6050 H         1 UNK         0.0000 
     60 H60         3.7832   52.3792   29.8089 H         1 UNK         0.0000 
     61 H61         2.0233   52.3186   29.8590 H         1 UNK         0.0000 
     62 H62         2.5558   55.7878   28.4820 H         1 UNK         0.0000 
     63 H63         1.8892   54.8714   29.8207 H         1 UNK         0.0000 
     64 H64         3.6317   55.0914   29.6832 H         1 UNK         0.0000 
@<TRIPOS>BOND
     1    1    2 1    
     2    1   36 1    
     3    1   37 1    
     4    1   38 1    
     5    2    6 ar   
     6    2    3 ar   
     7    3    4 ar   
     8    3   30 1    
     9    4    5 ar   
    10    4   13 1    
    11    5    6 ar   
    12    5    7 1    
    13    7   12 ar   
    14    7    8 ar   
    15    8    9 ar   
    16    8   39 1    
    17    9   10 ar   
    18    9   40 1    
    19   10   11 ar   
    20   10   41 1    
    21   11   12 ar   
    22   11   42 1    
    23   12   43 1    
    24   13   18 1    
    25   13   14 1    
    26   14   15 1    
    27   14   44 1    
    28   14   45 1    
    29   15   16 1    
    30   15   46 1    
    31   15   47 1    
    32   16   17 1    
    33   16   19 1    
    34   16   48 1    
    35   17   18 1    
    36   17   49 1    
    37   17   50 1    
    38   18   51 1    
    39   18   52 1    
    40   19   20 2    
    41   19   21 am   BACKBONE|DICT|INTERRES
    42   21   22 1    
    43   21   53 1    
    44   22   27 ar   
    45   22   23 ar   
    46   23   24 ar   
    47   23   54 1    
    48   24   25 ar   
    49   24   29 1    
    50   25   26 ar   
    51   25   55 1    
    52   26   27 ar   
    53   26   56 1    
    54   27   28 1    
    55   30   31 am   BACKBONE|DICT|INTERRES
    56   30   57 1    
    57   31   32 2    
    58   31   33 1    
    59   33   34 1    
    60   33   35 1    
    61   33   58 1    
    62   34   59 1    
    63   34   60 1    
    64   34   61 1    
    65   35   62 1    
    66   35   63 1    
    67   35   64 1    
@<TRIPOS>SUBSTRUCTURE
     1 UNK         1 GROUP             0       ****    0 ROOT    
