ZINC01874671_3342
                    3D
 Schrodinger Suite 2024-2.
 47 50  0  0  1  0            999 V2000
    0.7072   51.7585   25.9284 C   0  0  0  0  0  0
   -0.0598   50.6599   25.2163 C   0  0  0  0  0  0
   -0.9499   50.9895   24.1925 C   0  0  0  0  0  0
   -1.6800   49.9879   23.5575 C   0  0  0  0  0  0
   -1.5204   48.6581   23.9507 C   0  0  0  0  0  0
   -0.6235   48.3264   24.9661 C   0  0  0  0  0  0
    0.1053   49.3281   25.6012 C   0  0  0  0  0  0
   -2.4805   47.3893   23.1382 S   0  0  0  0  0  0
   -2.1308   46.0973   23.7380 O   0  0  0  0  0  0
   -3.8684   47.8621   23.1318 O   0  0  0  0  0  0
   -1.8673   47.4125   21.4867 N   0  0  0  0  0  0
   -2.4617   46.6339   20.3547 C   0  0  2  0  0  0
   -1.6202   45.4216   20.0203 C   0  0  0  0  0  0
   -1.4321   44.1294   20.6776 C   0  0  0  0  0  0
   -0.5671   43.2857   20.1266 N   0  5  0  0  0  0
    0.1033   43.5082   18.9918 C   0  0  0  0  0  0
    0.8782   42.6790   18.5100 O   0  0  0  0  0  0
   -0.0863   44.7183   18.3281 N   0  0  0  0  0  0
   -0.9609   45.6494   18.8699 C   0  0  0  0  0  0
   -1.3118   46.8571   18.3609 N   0  0  0  0  0  0
   -2.2095   47.5132   19.1135 C   0  0  0  0  0  0
   -2.7086   48.6102   18.8654 O   0  0  0  0  0  0
    0.6256   45.0427   17.1479 C   0  0  0  0  0  0
    0.4322   44.2984   15.9769 C   0  0  0  0  0  0
    1.1208   44.6415   14.8164 C   0  0  0  0  0  0
    1.9975   45.7241   14.8290 C   0  0  0  0  0  0
    2.1989   46.4662   15.9902 C   0  0  0  0  0  0
    1.5049   46.1330   17.1489 C   0  0  0  0  0  0
   -2.0950   43.8939   21.6813 O   0  0  0  0  0  0
   -4.0022   46.3340   20.4583 C   0  0  0  0  0  0
   -4.7468   47.4386   20.5529 F   0  0  0  0  0  0
   -4.4463   45.6743   19.3834 F   0  0  0  0  0  0
   -4.3132   45.5699   21.5057 F   0  0  0  0  0  0
    1.5386   52.1044   25.3141 H   0  0  0  0  0  0
    1.0874   51.4242   26.8944 H   0  0  0  0  0  0
    0.0541   52.6095   26.1229 H   0  0  0  0  0  0
   -1.0821   52.0187   23.8936 H   0  0  0  0  0  0
   -2.3737   50.2434   22.7693 H   0  0  0  0  0  0
   -0.4972   47.2999   25.2792 H   0  0  0  0  0  0
    0.7803   49.0595   26.4009 H   0  0  0  0  0  0
   -0.8530   47.2859   21.4720 H   0  0  0  0  0  0
   -0.9523   47.2141   17.4885 H   0  0  0  0  0  0
   -0.2483   43.4593   15.9668 H   0  0  0  0  0  0
    0.9741   44.0719   13.9103 H   0  0  0  0  0  0
    2.5262   45.9951   13.9288 H   0  0  0  0  0  0
    2.8902   47.2972   15.9937 H   0  0  0  0  0  0
    1.6669   46.7140   18.0459 H   0  0  0  0  0  0
  1  2  1  0  0  0
  1 34  1  0  0  0
  1 35  1  0  0  0
  1 36  1  0  0  0
  2  7  2  0  0  0
  2  3  1  0  0  0
  3  4  2  0  0  0
  3 37  1  0  0  0
  4  5  1  0  0  0
  4 38  1  0  0  0
  5  6  2  0  0  0
  5  8  1  0  0  0
  6  7  1  0  0  0
  6 39  1  0  0  0
  7 40  1  0  0  0
  8  9  2  0  0  0
  8 10  2  0  0  0
  8 11  1  0  0  0
 11 12  1  0  0  0
 11 41  1  0  0  0
 12 21  1  0  0  0
 12 13  1  0  0  0
 12 30  1  0  0  0
 13 19  2  0  0  0
 13 14  1  0  0  0
 14 15  1  0  0  0
 14 29  2  0  0  0
 15 16  1  0  0  0
 16 18  1  0  0  0
 16 17  2  0  0  0
 18 19  1  0  0  0
 18 23  1  0  0  0
 19 20  1  0  0  0
 20 21  1  0  0  0
 20 42  1  0  0  0
 21 22  2  0  0  0
 23 28  2  0  0  0
 23 24  1  0  0  0
 24 25  2  0  0  0
 24 43  1  0  0  0
 25 26  1  0  0  0
 25 44  1  0  0  0
 26 27  2  0  0  0
 26 45  1  0  0  0
 27 28  1  0  0  0
 27 46  1  0  0  0
 28 47  1  0  0  0
 30 31  1  0  0  0
 30 32  1  0  0  0
 30 33  1  0  0  0
M  CHG  1  15  -1
M  END
> <i_i_glide_confnum>
102

> <i_i_glide_lignum>
3343

> <i_i_glide_posenum>
344

> <i_i_glide_rotatable_bonds>
5

> <i_m_Source_File_Index>
6062

> <b_m_subgroup_collapsed>
0

> <r_i_docking_score>
0.953619

> <r_i_glide_ecoul>
-5.42582

> <r_i_glide_eff_state_penalty>
0

> <r_i_glide_einternal>
6.72563

> <r_i_glide_emodel>
-13.8711

> <r_i_glide_energy>
-29.431

> <r_i_glide_erotb>
0.352803

> <r_i_glide_esite>
-0.119793

> <r_i_glide_evdw>
-24.0051

> <r_i_glide_gscore>
0.953619

> <r_i_glide_hbond>
-0.322825

> <r_i_glide_ligand_efficiency>
0.0288976

> <r_i_glide_ligand_efficiency_ln>
0.21208

> <r_i_glide_ligand_efficiency_sa>
0.0926899

> <r_i_glide_lipo>
-0.0557872

> <r_i_glide_metal>
0

> <r_i_glide_rewards>
3.11335

> <s_i_glide_gridfile>
wee1_glide-grid

> <s_m_Source_File>
wee1_decoys_glide_SP.sdf

> <s_m_Source_Path>
/Users/zhangxujun/Desktop

> <s_m_entry_id>
6337

> <s_m_entry_name>
wee1_decoys_glide_SP.6062

> <s_m_subgroup_title>
wee1_decoys_glide_SP

> <s_m_subgroupid>
wee1_decoys_glide_SP


$$$$
