@<TRIPOS>MOLECULE
ZINC13184333_3297
59   61    1
SMALL
USER_CHARGES


@<TRIPOS>ATOM
      1 C1          6.5602   56.0381   24.3389 C.3       1 UNK         0.0000 
      2 N2          6.0454   54.6880   24.1873 N.am      1 UNK         0.0000 
      3 C3          5.6407   54.0588   25.4636 C.3       1 UNK         0.0000 
      4 C4          4.1149   54.0862   25.7180 C.2       1 UNK         0.0000 
      5 O5          3.3370   54.5113   24.8622 O.2       1 UNK         0.0000 
      6 N6          3.7425   53.5414   26.8975 N.am      1 UNK         0.0000 
      7 C7          2.4864   53.0481   27.3403 C.ar      1 UNK         0.0000 
      8 C8          1.3946   52.9106   26.4622 C.ar      1 UNK         0.0000 
      9 C9          0.1881   52.3642   26.8896 C.ar      1 UNK         0.0000 
     10 C10         0.0446   51.9384   28.2031 C.ar      1 UNK         0.0000 
     11 C11         1.1130   52.0480   29.0853 C.ar      1 UNK         0.0000 
     12 C12         2.3479   52.5826   28.6787 C.ar      1 UNK         0.0000 
     13 C13         3.4690   52.6130   29.6827 C.2       1 UNK         0.0000 
     14 O14         3.5034   51.7054   30.5479 O.co2     1 UNK         0.0000 
     15 C15         5.9021   54.0580   22.9781 C.2       1 UNK         0.0000 
     16 O16         5.5051   52.8977   22.8816 O.2       1 UNK         0.0000 
     17 C17         6.1671   54.7773   21.6724 C.ar      1 UNK         0.0000 
     18 C18         7.4082   55.3595   21.3728 C.ar      1 UNK         0.0000 
     19 C19         7.6295   55.9412   20.1283 C.ar      1 UNK         0.0000 
     20 C20         6.6193   55.9383   19.1671 C.ar      1 UNK         0.0000 
     21 C21         5.4030   55.3110   19.4344 C.ar      1 UNK         0.0000 
     22 C22         5.1786   54.7391   20.6811 C.ar      1 UNK         0.0000 
     23 S23         6.9289   56.7536   17.6018 S.o2      1 UNK         0.0000 
     24 O24         7.4147   58.0953   17.9466 O.2       1 UNK         0.0000 
     25 O25         7.7760   55.8356   16.8322 O.2       1 UNK         0.0000 
     26 N26         5.3623   56.9066   16.7664 N.pl3     1 UNK         0.0000 
     27 C27         4.4703   58.0141   17.2015 C.3       1 UNK         0.0000 
     28 C28         3.5040   58.5460   16.1298 C.3       1 UNK         0.0000 
     29 C29         2.2419   57.6939   15.9222 C.3       1 UNK         0.0000 
     30 C30         2.4708   56.3200   15.2778 C.3       1 UNK         0.0000 
     31 C31         3.4209   55.3824   16.0439 C.3       1 UNK         0.0000 
     32 C32         4.9166   55.7458   15.9444 C.3       1 UNK         0.0000 
     33 H33         6.7221   56.4967   23.3786 H         1 UNK         0.0000 
     34 H34         5.8560   56.6577   24.8916 H         1 UNK         0.0000 
     35 H35         7.5057   56.0303   24.8796 H         1 UNK         0.0000 
     36 H36         6.1532   54.5404   26.2964 H         1 UNK         0.0000 
     37 H37         5.9686   53.0242   25.4565 H         1 UNK         0.0000 
     38 H38         4.4736   53.3968   27.5839 H         1 UNK         0.0000 
     39 H39         1.4527   53.2058   25.4278 H         1 UNK         0.0000 
     40 H40        -0.6355   52.2638   26.2000 H         1 UNK         0.0000 
     41 H41        -0.8881   51.5060   28.5381 H         1 UNK         0.0000 
     42 H42         0.9719   51.6960   30.0977 H         1 UNK         0.0000 
     43 H43         8.2221   55.3482   22.0808 H         1 UNK         0.0000 
     44 H44         8.5866   56.3961   19.9113 H         1 UNK         0.0000 
     45 H45         4.6143   55.2775   18.6996 H         1 UNK         0.0000 
     46 H46         4.2261   54.2615   20.8704 H         1 UNK         0.0000 
     47 H47         3.9177   57.6906   18.0815 H         1 UNK         0.0000 
     48 H48         5.1028   58.8444   17.5176 H         1 UNK         0.0000 
     49 H49         3.1621   59.5309   16.4517 H         1 UNK         0.0000 
     50 H50         4.0289   58.7113   15.1881 H         1 UNK         0.0000 
     51 H51         1.7301   57.5673   16.8781 H         1 UNK         0.0000 
     52 H52         1.5439   58.2543   15.2981 H         1 UNK         0.0000 
     53 H53         2.8343   56.4519   14.2572 H         1 UNK         0.0000 
     54 H54         1.5016   55.8268   15.1794 H         1 UNK         0.0000 
     55 H55         3.3018   54.3864   15.6150 H         1 UNK         0.0000 
     56 H56         3.1033   55.2851   17.0831 H         1 UNK         0.0000 
     57 H57         5.1077   56.0018   14.9011 H         1 UNK         0.0000 
     58 H58         5.5313   54.8781   16.1861 H         1 UNK         0.0000 
     59 O59         4.3048   53.5415   29.6032 O.co2     1 UNK         0.0000 
@<TRIPOS>BOND
     1    1    2 1    
     2    1   33 1    
     3    1   34 1    
     4    1   35 1    
     5    2    3 1    
     6    2   15 am   BACKBONE|DICT|INTERRES
     7    3    4 1    
     8    3   36 1    
     9    3   37 1    
    10    4    5 2    
    11    4    6 am   BACKBONE|DICT|INTERRES
    12    6    7 1    
    13    6   38 1    
    14    7   12 ar   
    15    7    8 ar   
    16    8    9 ar   
    17    8   39 1    
    18    9   10 ar   
    19    9   40 1    
    20   10   11 ar   
    21   10   41 1    
    22   11   12 ar   
    23   11   42 1    
    24   12   13 1    
    25   13   14 2    
    26   13   59 1    
    27   15   16 2    
    28   15   17 1    
    29   17   22 ar   
    30   17   18 ar   
    31   18   19 ar   
    32   18   43 1    
    33   19   20 ar   
    34   19   44 1    
    35   20   21 ar   
    36   20   23 1    
    37   21   22 ar   
    38   21   45 1    
    39   22   46 1    
    40   23   24 2    
    41   23   25 2    
    42   23   26 1    
    43   26   32 1    
    44   26   27 1    
    45   27   28 1    
    46   27   47 1    
    47   27   48 1    
    48   28   29 1    
    49   28   49 1    
    50   28   50 1    
    51   29   30 1    
    52   29   51 1    
    53   29   52 1    
    54   30   31 1    
    55   30   53 1    
    56   30   54 1    
    57   31   32 1    
    58   31   55 1    
    59   31   56 1    
    60   32   57 1    
    61   32   58 1    
@<TRIPOS>SUBSTRUCTURE
     1 UNK         1 GROUP             0       ****    0 ROOT    
