@<TRIPOS>MOLECULE
ZINC36882916_1888
27   28    1
SMALL
USER_CHARGES


@<TRIPOS>ATOM
      1 C1          6.6237   54.8800   18.5707 C.ar      1 UNK         0.0000 
      2 C2          5.8872   53.7110   18.7483 C.ar      1 UNK         0.0000 
      3 C3          5.3146   53.4116   19.9864 C.ar      1 UNK         0.0000 
      4 C4          5.4947   54.2904   21.0835 C.ar      1 UNK         0.0000 
      5 C5          6.2451   55.4631   20.8788 C.ar      1 UNK         0.0000 
      6 C6          6.7987   55.7567   19.6361 C.ar      1 UNK         0.0000 
      7 F7          7.5039   56.8967   19.4692 F         1 UNK         0.0000 
      8 C8          4.9064   54.0116   22.4530 C.2       1 UNK         0.0000 
      9 O9          3.8232   53.4345   22.5573 O.2       1 UNK         0.0000 
     10 N10         5.6612   54.4181   23.5013 N.am      1 UNK         0.0000 
     11 C11         5.3487   54.4207   24.8714 C.ar      1 UNK         0.0000 
     12 C12         4.0480   54.2510   25.3795 C.ar      1 UNK         0.0000 
     13 C13         3.8549   54.2635   26.7602 C.ar      1 UNK         0.0000 
     14 C14         4.9478   54.4502   27.6035 C.ar      1 UNK         0.0000 
     15 C15         6.2109   54.6181   27.0353 C.ar      1 UNK         0.0000 
     16 N16         6.4177   54.6133   25.6917 N.ar      1 UNK         0.0000 
     17 Br17        4.7039   54.4967   29.4885 Br        1 UNK         0.0000 
     18 N18         4.6289   52.1980   20.0819 N.pl3     1 UNK         0.0000 
     19 H19         7.0591   55.1063   17.6088 H         1 UNK         0.0000 
     20 H20         5.7649   53.0301   17.9169 H         1 UNK         0.0000 
     21 H21         6.3978   56.1750   21.6767 H         1 UNK         0.0000 
     22 H22         6.5877   54.7511   23.2851 H         1 UNK         0.0000 
     23 H23         3.1880   54.1204   24.7420 H         1 UNK         0.0000 
     24 H24         2.8642   54.1356   27.1710 H         1 UNK         0.0000 
     25 H25         7.0756   54.7723   27.6654 H         1 UNK         0.0000 
     26 H26         4.7044   51.5197   19.3194 H         1 UNK         0.0000 
     27 H27         4.0822   52.0107   20.9119 H         1 UNK         0.0000 
@<TRIPOS>BOND
     1    1    6 ar   
     2    1    2 ar   
     3    1   19 1    
     4    2    3 ar   
     5    2   20 1    
     6    3    4 ar   
     7    3   18 1    
     8    4    5 ar   
     9    4    8 1    
    10    5    6 ar   
    11    5   21 1    
    12    6    7 1    
    13    8    9 2    
    14    8   10 am   BACKBONE|DICT|INTERRES
    15   10   11 1    
    16   10   22 1    
    17   11   16 ar   
    18   11   12 ar   
    19   12   13 ar   
    20   12   23 1    
    21   13   14 ar   
    22   13   24 1    
    23   14   15 ar   
    24   14   17 1    
    25   15   16 ar   
    26   15   25 1    
    27   18   26 1    
    28   18   27 1    
@<TRIPOS>SUBSTRUCTURE
     1 UNK         1 GROUP             0       ****    0 ROOT    
