@<TRIPOS>MOLECULE
ZINC22642851_1550
47   50    1
SMALL
USER_CHARGES


@<TRIPOS>ATOM
      1 C1         -4.4712   50.9401   26.7101 C.3       1 UNK         0.0000 
      2 C2         -3.1120   51.5290   26.3189 C.2       1 UNK         0.0000 
      3 O3         -2.9484   51.8447   25.1393 O.2       1 UNK         0.0000 
      4 N4         -2.1623   51.6845   27.2813 N.am      1 UNK         0.0000 
      5 C5         -2.3991   51.2917   28.6766 C.3       1 UNK         0.0000 
      6 C6         -1.1287   51.6965   29.4308 C.3       1 UNK         0.0000 
      7 C7         -0.1700   52.0687   28.3452 C.ar      1 UNK         0.0000 
      8 C8         -0.8140   52.0555   27.1102 C.ar      1 UNK         0.0000 
      9 C9         -0.1112   52.4254   25.9575 C.ar      1 UNK         0.0000 
     10 C10         1.2169   52.8356   26.0613 C.ar      1 UNK         0.0000 
     11 C11         1.8582   52.8749   27.3036 C.ar      1 UNK         0.0000 
     12 C12         1.1605   52.4787   28.4531 C.ar      1 UNK         0.0000 
     13 N13         3.1938   53.2971   27.2761 N.am      1 UNK         0.0000 
     14 C14         4.1325   53.3899   28.2480 C.2       1 UNK         0.0000 
     15 O15         3.9038   53.2477   29.4494 O.2       1 UNK         0.0000 
     16 C16         5.5889   53.6747   27.7964 C.3       1 UNK         0.0000 
     17 N17         5.6956   53.6967   26.3289 N.am      1 UNK         0.0000 
     18 C18         6.1392   54.7079   25.5697 C.2       1 UNK         0.0000 
     19 O19         6.7045   55.6967   26.0355 O.2       1 UNK         0.0000 
     20 C20         5.8953   54.5797   24.0816 C.ar      1 UNK         0.0000 
     21 C21         4.8154   53.8265   23.5599 C.ar      1 UNK         0.0000 
     22 C22         4.5534   53.7760   22.1826 C.ar      1 UNK         0.0000 
     23 C23         5.3942   54.4952   21.3414 C.ar      1 UNK         0.0000 
     24 C24         6.4350   55.2313   21.8254 C.ar      1 UNK         0.0000 
     25 C25         6.7047   55.2983   23.1861 C.ar      1 UNK         0.0000 
     26 O26         7.0460   55.8832   20.8018 O.3       1 UNK         0.0000 
     27 C27         6.4961   55.3334   19.6338 C.3       1 UNK         0.0000 
     28 O28         5.3249   54.6504   19.9936 O.3       1 UNK         0.0000 
     29 H29        -4.3478   49.9444   27.1391 H         1 UNK         0.0000 
     30 H30        -5.1185   50.8527   25.8353 H         1 UNK         0.0000 
     31 H31        -4.9724   51.5800   27.4359 H         1 UNK         0.0000 
     32 H32        -3.3110   51.6960   29.1175 H         1 UNK         0.0000 
     33 H33        -2.4869   50.2049   28.6797 H         1 UNK         0.0000 
     34 H34        -1.2953   52.5726   30.0529 H         1 UNK         0.0000 
     35 H35        -0.7949   50.8968   30.0854 H         1 UNK         0.0000 
     36 H36        -0.5727   52.4212   24.9818 H         1 UNK         0.0000 
     37 H37         1.7410   53.1253   25.1611 H         1 UNK         0.0000 
     38 H38         1.6240   52.4991   29.4268 H         1 UNK         0.0000 
     39 H39         3.5295   53.5100   26.3516 H         1 UNK         0.0000 
     40 H40         5.9140   54.6200   28.2326 H         1 UNK         0.0000 
     41 H41         6.2462   52.8958   28.1844 H         1 UNK         0.0000 
     42 H42         5.4448   52.8361   25.8623 H         1 UNK         0.0000 
     43 H43         4.1424   53.2969   24.2164 H         1 UNK         0.0000 
     44 H44         3.7164   53.2151   21.7927 H         1 UNK         0.0000 
     45 H45         7.5044   55.9237   23.5503 H         1 UNK         0.0000 
     46 H46         7.2071   54.6272   19.2004 H         1 UNK         0.0000 
     47 H47         6.2740   56.1133   18.9052 H         1 UNK         0.0000 
@<TRIPOS>BOND
     1    1    2 1    
     2    1   29 1    
     3    1   30 1    
     4    1   31 1    
     5    2    3 2    
     6    2    4 am   BACKBONE|DICT|INTERRES
     7    4    8 1    
     8    4    5 1    
     9    5    6 1    
    10    5   32 1    
    11    5   33 1    
    12    6    7 1    
    13    6   34 1    
    14    6   35 1    
    15    7   12 ar   
    16    7    8 ar   
    17    8    9 ar   
    18    9   10 ar   
    19    9   36 1    
    20   10   11 ar   
    21   10   37 1    
    22   11   12 ar   
    23   11   13 1    
    24   12   38 1    
    25   13   14 am   BACKBONE|DICT|INTERRES
    26   13   39 1    
    27   14   15 2    
    28   14   16 1    
    29   16   17 1    
    30   16   40 1    
    31   16   41 1    
    32   17   18 am   BACKBONE|DICT|INTERRES
    33   17   42 1    
    34   18   19 2    
    35   18   20 1    
    36   20   25 ar   
    37   20   21 ar   
    38   21   22 ar   
    39   21   43 1    
    40   22   23 ar   
    41   22   44 1    
    42   23   28 1    
    43   23   24 ar   
    44   24   25 ar   
    45   24   26 1    
    46   25   45 1    
    47   26   27 1    
    48   27   28 1    
    49   27   46 1    
    50   27   47 1    
@<TRIPOS>SUBSTRUCTURE
     1 UNK         1 GROUP             0       ****    0 ROOT    
