@<TRIPOS>MOLECULE
ZINC23009445_482
60   63    1
SMALL
USER_CHARGES


@<TRIPOS>ATOM
      1 C1         -3.8770   50.4977   29.1374 C.2       1 UNK         0.0000 
      2 C2         -3.2929   50.8213   27.9088 C.2       1 UNK         0.0000 
      3 C3         -4.1783   51.4490   27.0363 C.2       1 UNK         0.0000 
      4 S4         -5.7455   51.6565   27.7554 S.3       1 UNK         0.0000 
      5 C5         -5.2072   50.8876   29.2128 C.2       1 UNK         0.0000 
      6 S6         -3.8517   52.0585   25.3603 S.o2      1 UNK         0.0000 
      7 O7         -3.7154   53.5153   25.4745 O.2       1 UNK         0.0000 
      8 O8         -4.8870   51.4667   24.5067 O.2       1 UNK         0.0000 
      9 N9         -2.2828   51.3585   24.9100 N.pl3     1 UNK         0.0000 
     10 C10        -2.1715   49.8785   24.8139 C.3       1 UNK         0.0000 
     11 C11        -1.0338   49.4877   23.8400 C.3       1 UNK         0.0000 
     12 C12         0.2927   50.2386   24.1247 C.3       1 UNK         0.0000 
     13 C13         0.0291   51.7684   24.2443 C.3       1 UNK         0.0000 
     14 H14        -0.3153   52.1381   23.2763 H         1 UNK         0.0000 
     15 C15        -1.0360   52.0377   25.3405 C.3       1 UNK         0.0000 
     16 C16         1.3779   52.5031   24.4371 C.2       1 UNK         0.0000 
     17 O17         2.2094   52.4128   23.5342 O.2       1 UNK         0.0000 
     18 N18         1.5947   53.1743   25.5919 N.am      1 UNK         0.0000 
     19 C19         2.8131   53.6973   26.0956 C.ar      1 UNK         0.0000 
     20 C20         3.8658   54.0961   25.2515 C.ar      1 UNK         0.0000 
     21 C21         5.1055   54.4931   25.7712 C.ar      1 UNK         0.0000 
     22 C22         5.2819   54.4983   27.1568 C.ar      1 UNK         0.0000 
     23 C23         4.2365   54.1534   28.0035 C.ar      1 UNK         0.0000 
     24 C24         2.9817   53.7836   27.4982 C.ar      1 UNK         0.0000 
     25 N25         1.9567   53.4414   28.3807 N.pl3     1 UNK         0.0000 
     26 C26         1.8515   54.1369   29.6796 C.3       1 UNK         0.0000 
     27 C27         0.4707   53.9739   30.3442 C.3       1 UNK         0.0000 
     28 C28         0.1057   52.4991   30.4993 C.3       1 UNK         0.0000 
     29 C29         0.2289   51.8078   29.1417 C.3       1 UNK         0.0000 
     30 C30         1.6315   52.0119   28.5392 C.3       1 UNK         0.0000 
     31 C31         6.2428   54.9223   24.8797 C.2       1 UNK         0.0000 
     32 O32         7.1043   55.6962   25.2823 O.2       1 UNK         0.0000 
     33 N33         6.2883   54.4190   23.6465 N.am      1 UNK         0.0000 
     34 H34        -3.3440   49.9913   29.9315 H         1 UNK         0.0000 
     35 H35        -2.2671   50.5745   27.6829 H         1 UNK         0.0000 
     36 H36        -5.8876   50.7492   30.0396 H         1 UNK         0.0000 
     37 H37        -3.1291   49.4513   24.5110 H         1 UNK         0.0000 
     38 H38        -1.8874   49.4861   25.7912 H         1 UNK         0.0000 
     39 H39        -1.3578   49.6959   22.8186 H         1 UNK         0.0000 
     40 H40        -0.8681   48.4099   23.8832 H         1 UNK         0.0000 
     41 H41         0.9668   50.0000   23.2999 H         1 UNK         0.0000 
     42 H42         0.6716   49.8340   25.0664 H         1 UNK         0.0000 
     43 H43        -0.7237   51.5572   26.2680 H         1 UNK         0.0000 
     44 H44        -1.2454   53.0976   25.4769 H         1 UNK         0.0000 
     45 H45         0.8780   53.0909   26.2970 H         1 UNK         0.0000 
     46 H46         3.7225   54.1049   24.1817 H         1 UNK         0.0000 
     47 H47         6.2278   54.7890   27.5951 H         1 UNK         0.0000 
     48 H48         4.4208   54.1817   29.0663 H         1 UNK         0.0000 
     49 H49         2.0332   55.2011   29.5279 H         1 UNK         0.0000 
     50 H50         2.6291   53.7633   30.3455 H         1 UNK         0.0000 
     51 H51        -0.2865   54.4966   29.7631 H         1 UNK         0.0000 
     52 H52         0.4747   54.4553   31.3232 H         1 UNK         0.0000 
     53 H53         0.7685   52.0329   31.2292 H         1 UNK         0.0000 
     54 H54        -0.9016   52.3866   30.8856 H         1 UNK         0.0000 
     55 H55         0.0255   50.7458   29.2567 H         1 UNK         0.0000 
     56 H56        -0.5324   52.1774   28.4537 H         1 UNK         0.0000 
     57 H57         1.6748   51.4966   27.5785 H         1 UNK         0.0000 
     58 H58         2.3920   51.5462   29.1686 H         1 UNK         0.0000 
     59 H59         7.0511   54.6818   23.0413 H         1 UNK         0.0000 
     60 H60         5.5949   53.7546   23.3387 H         1 UNK         0.0000 
@<TRIPOS>BOND
     1    1    5 2    
     2    1    2 1    
     3    1   34 1    
     4    2    3 2    
     5    2   35 1    
     6    3    4 1    
     7    3    6 1    
     8    4    5 1    
     9    5   36 1    
    10    6    7 2    
    11    6    8 2    
    12    6    9 1    
    13    9   15 1    
    14    9   10 1    
    15   10   11 1    
    16   10   37 1    
    17   10   38 1    
    18   11   12 1    
    19   11   39 1    
    20   11   40 1    
    21   12   13 1    
    22   12   41 1    
    23   12   42 1    
    24   13   14 1    
    25   13   15 1    
    26   13   16 1    
    27   15   43 1    
    28   15   44 1    
    29   16   17 2    
    30   16   18 am   BACKBONE|DICT|INTERRES
    31   18   19 1    
    32   18   45 1    
    33   19   24 ar   
    34   19   20 ar   
    35   20   21 ar   
    36   20   46 1    
    37   21   22 ar   
    38   21   31 1    
    39   22   23 ar   
    40   22   47 1    
    41   23   24 ar   
    42   23   48 1    
    43   24   25 1    
    44   25   30 1    
    45   25   26 1    
    46   26   27 1    
    47   26   49 1    
    48   26   50 1    
    49   27   28 1    
    50   27   51 1    
    51   27   52 1    
    52   28   29 1    
    53   28   53 1    
    54   28   54 1    
    55   29   30 1    
    56   29   55 1    
    57   29   56 1    
    58   30   57 1    
    59   30   58 1    
    60   31   32 2    
    61   31   33 am   BACKBONE|DICT|INTERRES
    62   33   59 1    
    63   33   60 1    
@<TRIPOS>SUBSTRUCTURE
     1 UNK         1 GROUP             0       ****    0 ROOT    
