@<TRIPOS>MOLECULE
ZINC12378220_416
61   64    1
SMALL
USER_CHARGES


@<TRIPOS>ATOM
      1 C1          3.5469   52.0487   31.5014 C.3       1 UNK         0.0000 
      2 C2          2.3249   52.4289   30.6490 C.3       1 UNK         0.0000 
      3 C3          2.6245   52.5505   29.1328 C.3       1 UNK         0.0000 
      4 H4          2.7205   51.5421   28.7283 H         1 UNK         0.0000 
      5 C5          3.8985   53.3270   28.7656 C.3       1 UNK         0.0000 
      6 C6          3.7888   54.7733   29.2638 C.3       1 UNK         0.0000 
      7 C7          2.5199   55.4724   28.7091 C.3       1 UNK         0.0000 
      8 C8          1.2181   54.6382   28.7705 C.3       1 UNK         0.0000 
      9 N9          1.4639   53.2038   28.4716 N.pl3     1 UNK         0.0000 
     10 S10         0.4369   52.2929   27.3527 S.o2      1 UNK         0.0000 
     11 O11        -0.8958   52.8967   27.3147 O.2       1 UNK         0.0000 
     12 O12         0.6021   50.8792   27.6681 O.2       1 UNK         0.0000 
     13 C13         1.0963   52.4972   25.7056 C.ar      1 UNK         0.0000 
     14 C14         1.9675   53.5373   25.3956 C.ar      1 UNK         0.0000 
     15 C15         2.4515   53.6749   24.1009 C.ar      1 UNK         0.0000 
     16 C16         2.0941   52.7478   23.1058 C.ar      1 UNK         0.0000 
     17 C17         1.2051   51.7134   23.4298 C.ar      1 UNK         0.0000 
     18 C18         0.7031   51.5923   24.7209 C.ar      1 UNK         0.0000 
     19 C19         2.6660   52.8260   21.7075 C.2       1 UNK         0.0000 
     20 O20         2.1217   52.2208   20.7829 O.2       1 UNK         0.0000 
     21 N21         3.8037   53.5463   21.6055 N.am      1 UNK         0.0000 
     22 C22         4.6018   53.8045   20.4948 C.2       1 UNK         0.0000 
     23 C23         5.8308   54.4969   20.5109 C.2       1 UNK         0.0000 
     24 C24         6.3680   54.6444   19.2013 C.2       1 UNK         0.0000 
     25 C25         5.5898   54.0019   18.2272 C.2       1 UNK         0.0000 
     26 S26         4.1616   53.2969   18.8866 S.3       1 UNK         0.0000 
     27 C27         5.9600   53.8392   16.7599 C.3       1 UNK         0.0000 
     28 C28         7.1040   54.8107   16.4050 C.3       1 UNK         0.0000 
     29 C29         8.2149   54.7982   17.4676 C.3       1 UNK         0.0000 
     30 C30         7.7088   55.3002   18.8364 C.3       1 UNK         0.0000 
     31 C31         6.4542   55.0741   21.6931 C.2       1 UNK         0.0000 
     32 O32         7.1233   56.0967   21.6460 O.2       1 UNK         0.0000 
     33 N33         6.3037   54.4105   22.8425 N.am      1 UNK         0.0000 
     34 H34         3.2403   51.6592   32.4721 H         1 UNK         0.0000 
     35 H35         4.1568   51.2966   31.0119 H         1 UNK         0.0000 
     36 H36         4.2063   52.8959   31.6819 H         1 UNK         0.0000 
     37 H37         1.9034   53.3456   31.0549 H         1 UNK         0.0000 
     38 H38         1.5314   51.6964   30.7867 H         1 UNK         0.0000 
     39 H39         3.9984   53.3575   27.6790 H         1 UNK         0.0000 
     40 H40         4.7967   52.8240   29.1256 H         1 UNK         0.0000 
     41 H41         4.6944   55.2967   28.9666 H         1 UNK         0.0000 
     42 H42         3.7756   54.7946   30.3505 H         1 UNK         0.0000 
     43 H43         2.7046   55.6964   27.6634 H         1 UNK         0.0000 
     44 H44         2.3703   56.4380   29.1942 H         1 UNK         0.0000 
     45 H45         0.4665   55.0237   28.0820 H         1 UNK         0.0000 
     46 H46         0.7724   54.7021   29.7628 H         1 UNK         0.0000 
     47 H47         2.2734   54.2433   26.1465 H         1 UNK         0.0000 
     48 H48         3.1146   54.5035   23.8978 H         1 UNK         0.0000 
     49 H49         0.9059   50.9868   22.6867 H         1 UNK         0.0000 
     50 H50         0.0239   50.7855   24.9620 H         1 UNK         0.0000 
     51 H51         4.1331   53.9650   22.4600 H         1 UNK         0.0000 
     52 H52         5.1019   54.0104   16.1095 H         1 UNK         0.0000 
     53 H53         6.2895   52.8141   16.5844 H         1 UNK         0.0000 
     54 H54         6.7097   55.8235   16.3032 H         1 UNK         0.0000 
     55 H55         7.5160   54.5492   15.4295 H         1 UNK         0.0000 
     56 H56         9.0533   55.4145   17.1403 H         1 UNK         0.0000 
     57 H57         8.6092   53.7855   17.5707 H         1 UNK         0.0000 
     58 H58         8.4710   55.1024   19.5914 H         1 UNK         0.0000 
     59 H59         7.5891   56.3838   18.8146 H         1 UNK         0.0000 
     60 H60         5.9371   53.4717   22.8481 H         1 UNK         0.0000 
     61 H61         6.7739   54.7701   23.6596 H         1 UNK         0.0000 
@<TRIPOS>BOND
     1    1    2 1    
     2    1   34 1    
     3    1   35 1    
     4    1   36 1    
     5    2    3 1    
     6    2   37 1    
     7    2   38 1    
     8    3    4 1    
     9    3    9 1    
    10    3    5 1    
    11    5    6 1    
    12    5   39 1    
    13    5   40 1    
    14    6    7 1    
    15    6   41 1    
    16    6   42 1    
    17    7    8 1    
    18    7   43 1    
    19    7   44 1    
    20    8    9 1    
    21    8   45 1    
    22    8   46 1    
    23    9   10 1    
    24   10   11 2    
    25   10   12 2    
    26   10   13 1    
    27   13   18 ar   
    28   13   14 ar   
    29   14   15 ar   
    30   14   47 1    
    31   15   16 ar   
    32   15   48 1    
    33   16   17 ar   
    34   16   19 1    
    35   17   18 ar   
    36   17   49 1    
    37   18   50 1    
    38   19   20 2    
    39   19   21 am   BACKBONE|DICT|INTERRES
    40   21   22 am   BACKBONE|DICT|INTERRES
    41   21   51 1    
    42   22   26 1    
    43   22   23 2    
    44   23   24 1    
    45   23   31 1    
    46   24   30 1    
    47   24   25 2    
    48   25   26 1    
    49   25   27 1    
    50   27   28 1    
    51   27   52 1    
    52   27   53 1    
    53   28   29 1    
    54   28   54 1    
    55   28   55 1    
    56   29   30 1    
    57   29   56 1    
    58   29   57 1    
    59   30   58 1    
    60   30   59 1    
    61   31   32 2    
    62   31   33 am   BACKBONE|DICT|INTERRES
    63   33   60 1    
    64   33   61 1    
@<TRIPOS>SUBSTRUCTURE
     1 UNK         1 GROUP             0       ****    0 ROOT    
