@<TRIPOS>MOLECULE
ZINC34899120_4389
56   59    1
SMALL
USER_CHARGES


@<TRIPOS>ATOM
      1 C1          4.0137   54.1277   24.5585 C.ar      1 UNK         0.0000 
      2 C2          2.8226   53.7911   25.2228 C.ar      1 UNK         0.0000 
      3 C3          2.8355   53.7747   26.6283 C.ar      1 UNK         0.0000 
      4 C4          3.9953   54.0713   27.3530 C.ar      1 UNK         0.0000 
      5 C5          5.1648   54.3892   26.6604 C.ar      1 UNK         0.0000 
      6 C6          5.1820   54.4257   25.2633 C.ar      1 UNK         0.0000 
      7 C7          6.4735   54.7794   24.5343 C.3       1 UNK         0.0000 
      8 F8          7.2397   53.6969   24.4817 F         1 UNK         0.0000 
      9 F9          6.2980   55.2073   23.2841 F         1 UNK         0.0000 
     10 F10         7.1046   55.7309   25.2157 F         1 UNK         0.0000 
     11 C11         3.9913   54.0422   28.8817 C.3       1 UNK         0.0000 
     12 F12         2.7957   54.3687   29.3801 F         1 UNK         0.0000 
     13 F13         4.3003   52.8140   29.2960 F         1 UNK         0.0000 
     14 F14         4.8877   54.8951   29.3797 F         1 UNK         0.0000 
     15 C15         1.5388   53.4582   24.4264 C.3       1 UNK         0.0000 
     16 H16         1.0084   54.4119   24.4024 H         1 UNK         0.0000 
     17 C17         0.5940   52.4442   25.1363 C.3       1 UNK         0.0000 
     18 C18        -0.7634   52.3023   24.4114 C.3       1 UNK         0.0000 
     19 C19        -0.5239   52.0778   22.9317 C.ar      1 UNK         0.0000 
     20 N20        -1.4104   51.6213   22.0763 N.2       1 UNK         0.0000 
     21 C21        -0.8019   51.5572   20.9002 C.ar      1 UNK         0.0000 
     22 C22         0.4803   52.0979   21.0090 C.ar      1 UNK         0.0000 
     23 N23         0.6488   52.4567   22.3183 N.pl3     1 UNK         0.0000 
     24 C24         1.8376   53.0021   22.9616 C.3       1 UNK         0.0000 
     25 C25        -1.4273   51.0827   19.6931 C.2       1 UNK         0.0000 
     26 O26        -2.6464   51.1328   19.5231 O.2       1 UNK         0.0000 
     27 N27        -0.5561   50.5401   18.8269 N.am      1 UNK         0.0000 
     28 C28        -0.8456   49.9096   17.5278 C.3       1 UNK         0.0000 
     29 H29        -1.4248   50.6347   16.9522 H         1 UNK         0.0000 
     30 C30        -1.6423   48.5884   17.6797 C.3       1 UNK         0.0000 
     31 C31        -1.0125   47.5716   18.6683 C.3       1 UNK         0.0000 
     32 C32         0.4703   47.1940   18.4219 C.3       1 UNK         0.0000 
     33 C33         1.4985   48.3533   18.5198 C.3       1 UNK         0.0000 
     34 N34         1.5044   49.2983   17.3929 N.am      1 UNK         0.0000 
     35 C35         0.4304   49.6748   16.6721 C.2       1 UNK         0.0000 
     36 O36         0.4104   49.6769   15.4450 O.2       1 UNK         0.0000 
     37 H37         4.0556   54.1656   23.4806 H         1 UNK         0.0000 
     38 H38         1.9441   53.5396   27.1875 H         1 UNK         0.0000 
     39 H39         6.0701   54.6085   27.2103 H         1 UNK         0.0000 
     40 H40         1.0859   51.4708   25.2097 H         1 UNK         0.0000 
     41 H41         0.3386   52.7605   26.1467 H         1 UNK         0.0000 
     42 H42        -1.3530   53.2107   24.5512 H         1 UNK         0.0000 
     43 H43        -1.3460   51.4879   24.8458 H         1 UNK         0.0000 
     44 H44         1.2716   52.2638   20.2898 H         1 UNK         0.0000 
     45 H45         2.6015   52.2238   22.9436 H         1 UNK         0.0000 
     46 H46         2.2064   53.8229   22.3442 H         1 UNK         0.0000 
     47 H47         0.4208   50.7361   18.9799 H         1 UNK         0.0000 
     48 H48        -1.7572   48.1021   16.7098 H         1 UNK         0.0000 
     49 H49        -2.6550   48.8157   18.0149 H         1 UNK         0.0000 
     50 H50        -1.1153   47.9517   19.6863 H         1 UNK         0.0000 
     51 H51        -1.6104   46.6586   18.6480 H         1 UNK         0.0000 
     52 H52         0.7415   46.4480   19.1696 H         1 UNK         0.0000 
     53 H53         0.5760   46.6951   17.4578 H         1 UNK         0.0000 
     54 H54         1.3758   48.8988   19.4557 H         1 UNK         0.0000 
     55 H55         2.5033   47.9321   18.5759 H         1 UNK         0.0000 
     56 H56         2.3852   49.2957   16.8713 H         1 UNK         0.0000 
@<TRIPOS>BOND
     1    1    6 ar   
     2    1    2 ar   
     3    1   37 1    
     4    2    3 ar   
     5    2   15 1    
     6    3    4 ar   
     7    3   38 1    
     8    4    5 ar   
     9    4   11 1    
    10    5    6 ar   
    11    5   39 1    
    12    6    7 1    
    13    7    8 1    
    14    7    9 1    
    15    7   10 1    
    16   11   12 1    
    17   11   13 1    
    18   11   14 1    
    19   15   16 1    
    20   15   24 1    
    21   15   17 1    
    22   17   18 1    
    23   17   40 1    
    24   17   41 1    
    25   18   19 1    
    26   18   42 1    
    27   18   43 1    
    28   19   23 ar   
    29   19   20 ar   
    30   20   21 ar   
    31   21   22 ar   
    32   21   25 1    
    33   22   23 ar   
    34   22   44 1    
    35   23   24 1    
    36   24   45 1    
    37   24   46 1    
    38   25   26 2    
    39   25   27 am   BACKBONE|DICT|INTERRES
    40   27   28 1    
    41   27   47 1    
    42   28   29 1    
    43   28   35 1    
    44   28   30 1    
    45   30   31 1    
    46   30   48 1    
    47   30   49 1    
    48   31   32 1    
    49   31   50 1    
    50   31   51 1    
    51   32   33 1    
    52   32   52 1    
    53   32   53 1    
    54   33   34 1    
    55   33   54 1    
    56   33   55 1    
    57   34   35 am   BACKBONE|DICT|INTERRES
    58   34   56 1    
    59   35   36 2    
@<TRIPOS>SUBSTRUCTURE
     1 UNK         1 GROUP             0       ****    0 ROOT    
