@<TRIPOS>MOLECULE
ZINC27981922_4454
42   44    1
SMALL
USER_CHARGES


@<TRIPOS>ATOM
      1 C1         -5.5713   49.3061   28.9747 C.ar      1 UNK         0.0000 
      2 C2         -4.3231   49.8119   28.6131 C.ar      1 UNK         0.0000 
      3 C3         -4.2133   50.8562   27.6769 C.ar      1 UNK         0.0000 
      4 C4         -5.3905   51.3671   27.1080 C.ar      1 UNK         0.0000 
      5 C5         -6.6387   50.8638   27.4741 C.ar      1 UNK         0.0000 
      6 C6         -6.7297   49.8332   28.4077 C.ar      1 UNK         0.0000 
      7 Br7        -8.2191   51.5913   26.7022 Br        1 UNK         0.0000 
      8 C8         -2.8744   51.4429   27.2850 C.2       1 UNK         0.0000 
      9 O9         -2.7610   52.0865   26.2384 O.2       1 UNK         0.0000 
     10 N10        -1.8857   51.2966   28.1946 N.am      1 UNK         0.0000 
     11 C11        -0.5831   51.8161   28.1570 C.ar      1 UNK         0.0000 
     12 C12         0.0210   52.0916   29.3849 C.ar      1 UNK         0.0000 
     13 C13         1.3253   52.5762   29.4279 C.ar      1 UNK         0.0000 
     14 C14         2.0331   52.7859   28.2359 C.ar      1 UNK         0.0000 
     15 C15         1.4315   52.4969   27.0107 C.ar      1 UNK         0.0000 
     16 C16         0.1278   52.0141   26.9671 C.ar      1 UNK         0.0000 
     17 N17         3.3623   53.2350   28.1902 N.am      1 UNK         0.0000 
     18 C18         4.0096   54.0240   29.0716 C.2       1 UNK         0.0000 
     19 O19         3.4980   54.4966   30.0817 O.2       1 UNK         0.0000 
     20 N20         5.2858   54.3109   28.7547 N.am      1 UNK         0.0000 
     21 C21         6.1430   53.6277   27.7809 C.3       1 UNK         0.0000 
     22 C22         5.9859   54.2004   26.3891 C.2       1 UNK         0.0000 
     23 C23         5.0099   54.0967   25.4076 C.2       1 UNK         0.0000 
     24 C24         5.4759   54.7815   24.2907 C.2       1 UNK         0.0000 
     25 C25         6.7044   55.2995   24.6420 C.2       1 UNK         0.0000 
     26 O26         7.0190   54.9427   25.9131 O.3       1 UNK         0.0000 
     27 H27        -5.6354   48.5036   29.6947 H         1 UNK         0.0000 
     28 H28        -3.4472   49.3687   29.0687 H         1 UNK         0.0000 
     29 H29        -5.3475   52.1678   26.3828 H         1 UNK         0.0000 
     30 H30        -7.6964   49.4423   28.6891 H         1 UNK         0.0000 
     31 H31        -2.1032   50.7483   29.0149 H         1 UNK         0.0000 
     32 H32        -0.5104   51.9222   30.3121 H         1 UNK         0.0000 
     33 H33         1.7754   52.7650   30.3904 H         1 UNK         0.0000 
     34 H34         1.9674   52.6348   26.0834 H         1 UNK         0.0000 
     35 H35        -0.3094   51.7765   26.0089 H         1 UNK         0.0000 
     36 H36         3.8665   53.0140   27.3463 H         1 UNK         0.0000 
     37 H37         5.7474   55.0067   29.3241 H         1 UNK         0.0000 
     38 H38         7.1707   53.7434   28.1277 H         1 UNK         0.0000 
     39 H39         5.9656   52.5505   27.7862 H         1 UNK         0.0000 
     40 H40         4.0781   53.5577   25.4757 H         1 UNK         0.0000 
     41 H41         4.9754   54.8910   23.3395 H         1 UNK         0.0000 
     42 H42         7.4418   55.8873   24.1125 H         1 UNK         0.0000 
@<TRIPOS>BOND
     1    1    6 ar   
     2    1    2 ar   
     3    1   27 1    
     4    2    3 ar   
     5    2   28 1    
     6    3    4 ar   
     7    3    8 1    
     8    4    5 ar   
     9    4   29 1    
    10    5    6 ar   
    11    5    7 1    
    12    6   30 1    
    13    8    9 2    
    14    8   10 am   BACKBONE|DICT|INTERRES
    15   10   11 1    
    16   10   31 1    
    17   11   16 ar   
    18   11   12 ar   
    19   12   13 ar   
    20   12   32 1    
    21   13   14 ar   
    22   13   33 1    
    23   14   15 ar   
    24   14   17 1    
    25   15   16 ar   
    26   15   34 1    
    27   16   35 1    
    28   17   18 am   BACKBONE|DICT|INTERRES
    29   17   36 1    
    30   18   19 2    
    31   18   20 am   BACKBONE|DICT|INTERRES
    32   20   21 1    
    33   20   37 1    
    34   21   22 1    
    35   21   38 1    
    36   21   39 1    
    37   22   26 1    
    38   22   23 2    
    39   23   24 1    
    40   23   40 1    
    41   24   25 2    
    42   24   41 1    
    43   25   26 1    
    44   25   42 1    
@<TRIPOS>SUBSTRUCTURE
     1 UNK         1 GROUP             0       ****    0 ROOT    
