@<TRIPOS>MOLECULE
ZINC39275888_559
46   50    1
SMALL
USER_CHARGES


@<TRIPOS>ATOM
      1 C1         -3.3313   50.3306   20.6616 C.ar      1 UNK         0.0000 
      2 C2         -4.6595   50.0809   20.3288 C.ar      1 UNK         0.0000 
      3 C3         -5.5857   49.8048   21.3336 C.ar      1 UNK         0.0000 
      4 C4         -5.1936   49.7723   22.6715 C.ar      1 UNK         0.0000 
      5 C5         -3.8665   50.0208   23.0102 C.ar      1 UNK         0.0000 
      6 C6         -2.9342   50.3038   22.0045 C.ar      1 UNK         0.0000 
      7 N7         -1.5780   50.5602   22.3445 N.am      1 UNK         0.0000 
      8 C8         -1.2839   51.8217   22.8228 C.2       1 UNK         0.0000 
      9 O9         -2.1385   52.7042   22.9808 O.2       1 UNK         0.0000 
     10 C10         0.1414   52.0466   23.1180 C.2       1 UNK         0.0000 
     11 C11         0.5020   53.2161   23.7282 C.2       1 UNK         0.0000 
     12 C12         1.8059   53.7114   24.1347 C.2       1 UNK         0.0000 
     13 C13         2.7604   54.4939   23.4985 C.2       1 UNK         0.0000 
     14 C14         3.8140   54.6767   24.3982 C.2       1 UNK         0.0000 
     15 C15         3.4617   54.0083   25.5549 C.2       1 UNK         0.0000 
     16 O16         2.2523   53.4125   25.3829 O.3       1 UNK         0.0000 
     17 S17         4.2983   53.7458   27.0850 S.3       1 UNK         0.0000 
     18 C18         3.1340   54.4497   28.3136 C.3       1 UNK         0.0000 
     19 H19         3.1920   55.5347   28.2058 H         1 UNK         0.0000 
     20 N20         3.4806   54.0967   29.6819 N.3       1 UNK         0.0000 
     21 C21         2.7203   52.8799   29.8578 C.3       1 UNK         0.0000 
     22 H22         3.2418   52.0603   29.3598 H         1 UNK         0.0000 
     23 C23         2.3759   52.4503   31.2894 C.2       1 UNK         0.0000 
     24 C24         1.1175   52.0969   31.6322 C.2       1 UNK         0.0000 
     25 C25         0.0435   52.1484   30.6453 C.2       1 UNK         0.0000 
     26 C26         0.2146   52.7296   29.4383 C.2       1 UNK         0.0000 
     27 C27         1.4855   53.2630   29.0352 C.2       1 UNK         0.0000 
     28 N28         1.7619   54.0523   28.0861 N.2       1 UNK         0.0000 
     29 C29         1.1067   50.9860   22.7667 C.2       1 UNK         0.0000 
     30 N30         0.6392   49.8296   22.3314 N.2       1 UNK         0.0000 
     31 C31        -0.6421   49.5582   22.1389 C.2       1 UNK         0.0000 
     32 O32        -1.0372   48.4482   21.7686 O.2       1 UNK         0.0000 
     33 O33         2.3043   51.2209   22.8795 O.2       1 UNK         0.0000 
     34 Cl34       -7.2314   49.5004   20.9182 Cl        1 UNK         0.0000 
     35 H35        -2.6118   50.5372   19.8815 H         1 UNK         0.0000 
     36 H36        -4.9717   50.0998   19.2954 H         1 UNK         0.0000 
     37 H37        -5.9166   49.5563   23.4440 H         1 UNK         0.0000 
     38 H38        -3.5621   49.9948   24.0472 H         1 UNK         0.0000 
     39 H39        -0.2617   53.9385   23.9827 H         1 UNK         0.0000 
     40 H40         2.6995   54.8782   22.4902 H         1 UNK         0.0000 
     41 H41         4.7307   55.2203   24.2270 H         1 UNK         0.0000 
     42 H42         4.4731   53.9093   29.7362 H         1 UNK         0.0000 
     43 H43         3.1547   52.4036   32.0373 H         1 UNK         0.0000 
     44 H44         0.8877   51.8039   32.6472 H         1 UNK         0.0000 
     45 H45        -0.9107   51.6973   30.8822 H         1 UNK         0.0000 
     46 H46        -0.6098   52.7173   28.7409 H         1 UNK         0.0000 
@<TRIPOS>BOND
     1    1    6 ar   
     2    1    2 ar   
     3    1   35 1    
     4    2    3 ar   
     5    2   36 1    
     6    3    4 ar   
     7    3   34 1    
     8    4    5 ar   
     9    4   37 1    
    10    5    6 ar   
    11    5   38 1    
    12    6    7 1    
    13    7   31 am   BACKBONE|DICT|INTERRES
    14    7    8 am   BACKBONE|DICT|INTERRES
    15    8    9 2    
    16    8   10 1    
    17   10   11 2    
    18   10   29 1    
    19   11   12 1    
    20   11   39 1    
    21   12   16 1    
    22   12   13 2    
    23   13   14 1    
    24   13   40 1    
    25   14   15 2    
    26   14   41 1    
    27   15   16 1    
    28   15   17 1    
    29   17   18 1    
    30   18   19 1    
    31   18   28 1    
    32   18   20 1    
    33   20   21 1    
    34   20   42 1    
    35   21   22 1    
    36   21   27 1    
    37   21   23 1    
    38   23   24 2    
    39   23   43 1    
    40   24   25 1    
    41   24   44 1    
    42   25   26 2    
    43   25   45 1    
    44   26   27 1    
    45   26   46 1    
    46   27   28 2    
    47   29   30 1    
    48   29   33 2    
    49   30   31 1    
    50   31   32 2    
@<TRIPOS>SUBSTRUCTURE
     1 UNK         1 GROUP             0       ****    0 ROOT    
