ZINC09523010_5287
                    3D
 Schrodinger Suite 2024-2.
 48 50  0  0  1  0            999 V2000
    4.9536   54.5722   28.8546 C   0  0  0  0  0  0
    5.0035   54.4814   27.3390 C   0  0  0  0  0  0
    6.2356   54.5093   26.6780 C   0  0  0  0  0  0
    6.3191   54.4134   25.2869 C   0  0  0  0  0  0
    5.1303   54.2644   24.5588 C   0  0  0  0  0  0
    3.8797   54.2636   25.2300 C   0  0  0  0  0  0
    3.8067   54.3752   26.6244 C   0  0  0  0  0  0
    2.5940   54.0960   24.0402 S   0  0  0  0  0  0
    3.8267   53.9558   22.8143 C   0  0  0  0  0  0
    5.0603   54.0954   23.2128 N   0  0  0  0  0  0
    3.4513   53.6970   21.5263 N   0  0  0  0  0  0
    4.3357   52.5960   20.4648 S   0  0  0  0  0  0
    5.1044   51.6966   21.3278 O   0  0  0  0  0  0
    5.0133   53.4370   19.4745 O   0  0  0  0  0  0
    3.0312   51.5506   19.5774 C   0  0  0  0  0  0
    1.5839   51.8428   20.0069 C   0  0  0  0  0  0
    1.2231   51.3646   21.3446 N   0  0  0  0  0  0
    0.9819   50.0811   21.6744 C   0  0  0  0  0  0
    1.1510   49.1460   20.8903 O   0  0  0  0  0  0
    0.3735   49.8417   23.0371 C   0  0  0  0  0  0
    0.6274   50.6903   24.1258 C   0  0  0  0  0  0
    0.0160   50.4732   25.3689 C   0  0  0  0  0  0
   -0.8382   49.3765   25.5240 C   0  0  0  0  0  0
   -1.0974   48.5083   24.4584 C   0  0  0  0  0  0
   -0.4873   48.7517   23.2230 C   0  0  0  0  0  0
   -2.0578   47.3321   24.6435 C   0  0  0  0  0  0
   -2.0968   46.5363   23.5718 F   0  0  0  0  0  0
   -1.6982   46.5820   25.6820 F   0  0  0  0  0  0
   -3.2893   47.7963   24.8557 F   0  0  0  0  0  0
    0.2440   51.4298   26.5417 C   0  0  0  0  0  0
    0.7441   52.5959   26.1362 F   0  0  0  0  0  0
    1.1039   50.8965   27.4069 F   0  0  0  0  0  0
   -0.9022   51.6812   27.1761 F   0  0  0  0  0  0
    5.9036   54.8962   29.2798 H   0  0  0  0  0  0
    4.1982   55.2943   29.1664 H   0  0  0  0  0  0
    4.6894   53.6051   29.2825 H   0  0  0  0  0  0
    7.1439   54.5969   27.2575 H   0  0  0  0  0  0
    7.2737   54.4192   24.7810 H   0  0  0  0  0  0
    2.8534   54.3567   27.1331 H   0  0  0  0  0  0
    2.8294   54.3232   21.0313 H   0  0  0  0  0  0
    3.2955   50.5203   19.8148 H   0  0  0  0  0  0
    3.1821   51.6172   18.4996 H   0  0  0  0  0  0
    0.9238   51.3322   19.3011 H   0  0  0  0  0  0
    1.3426   52.8967   19.8840 H   0  0  0  0  0  0
    1.1100   52.0707   22.0549 H   0  0  0  0  0  0
    1.3016   51.5257   24.0132 H   0  0  0  0  0  0
   -1.3129   49.2048   26.4812 H   0  0  0  0  0  0
   -0.6954   48.0941   22.3899 H   0  0  0  0  0  0
  1  2  1  0  0  0
  1 34  1  0  0  0
  1 35  1  0  0  0
  1 36  1  0  0  0
  2  7  2  0  0  0
  2  3  1  0  0  0
  3  4  2  0  0  0
  3 37  1  0  0  0
  4  5  1  0  0  0
  4 38  1  0  0  0
  5 10  1  0  0  0
  5  6  2  0  0  0
  6  7  1  0  0  0
  6  8  1  0  0  0
  7 39  1  0  0  0
  8  9  1  0  0  0
  9 10  2  0  0  0
  9 11  1  0  0  0
 11 12  1  0  0  0
 11 40  1  0  0  0
 12 13  2  0  0  0
 12 14  2  0  0  0
 12 15  1  0  0  0
 15 16  1  0  0  0
 15 41  1  0  0  0
 15 42  1  0  0  0
 16 17  1  0  0  0
 16 43  1  0  0  0
 16 44  1  0  0  0
 17 18  1  0  0  0
 17 45  1  0  0  0
 18 19  2  0  0  0
 18 20  1  0  0  0
 20 25  2  0  0  0
 20 21  1  0  0  0
 21 22  2  0  0  0
 21 46  1  0  0  0
 22 23  1  0  0  0
 22 30  1  0  0  0
 23 24  2  0  0  0
 23 47  1  0  0  0
 24 25  1  0  0  0
 24 26  1  0  0  0
 25 48  1  0  0  0
 26 27  1  0  0  0
 26 28  1  0  0  0
 26 29  1  0  0  0
 30 31  1  0  0  0
 30 32  1  0  0  0
 30 33  1  0  0  0
M  END
> <i_i_glide_confnum>
205

> <i_i_glide_lignum>
5288

> <i_i_glide_posenum>
398

> <i_i_glide_rotatable_bonds>
9

> <i_m_Source_File_Index>
533

> <b_m_subgroup_collapsed>
0

> <r_i_docking_score>
-5.88497

> <r_i_glide_ecoul>
-6.44886

> <r_i_glide_eff_state_penalty>
0

> <r_i_glide_einternal>
12.5533

> <r_i_glide_emodel>
-62.4156

> <r_i_glide_energy>
-51.0009

> <r_i_glide_erotb>
0.548377

> <r_i_glide_esite>
-0.299442

> <r_i_glide_evdw>
-44.552

> <r_i_glide_gscore>
-5.88497

> <r_i_glide_hbond>
-0.32

> <r_i_glide_ligand_efficiency>
-0.178332

> <r_i_glide_ligand_efficiency_ln>
-1.30879

> <r_i_glide_ligand_efficiency_sa>
-0.572007

> <r_i_glide_lipo>
-2.38006

> <r_i_glide_metal>
0

> <r_i_glide_rewards>
-0.238913

> <s_i_glide_gridfile>
wee1_glide-grid

> <s_m_Source_File>
wee1_decoys_glide_SP.sdf

> <s_m_Source_Path>
/Users/zhangxujun/Desktop

> <s_m_entry_id>
808

> <s_m_entry_name>
wee1_decoys_glide_SP.533

> <s_m_subgroup_title>
wee1_decoys_glide_SP

> <s_m_subgroupid>
wee1_decoys_glide_SP


$$$$
