@<TRIPOS>MOLECULE
ZINC21734403_3261
62   65    1
SMALL
USER_CHARGES


@<TRIPOS>ATOM
      1 C1          6.6817   53.8058   26.6869 C.3       1 UNK         0.0000 
      2 C2          5.7408   54.9758   26.3164 C.3       1 UNK         0.0000 
      3 C3          6.2299   55.6626   25.0261 C.3       1 UNK         0.0000 
      4 C4          4.1971   54.6861   26.2900 C.3       1 UNK         0.0000 
      5 H5          3.7308   55.6629   26.1419 H         1 UNK         0.0000 
      6 C6          3.6788   54.1441   27.6325 C.ar      1 UNK         0.0000 
      7 C7          4.0943   52.8966   28.0796 C.ar      1 UNK         0.0000 
      8 C8          3.6602   52.3707   29.2856 C.ar      1 UNK         0.0000 
      9 C9          2.7699   53.0762   30.0817 C.ar      1 UNK         0.0000 
     10 C10         2.3260   54.3467   29.6454 C.ar      1 UNK         0.0000 
     11 C11         2.7905   54.8696   28.4336 C.ar      1 UNK         0.0000 
     12 O12         1.4466   55.1101   30.3671 O.3       1 UNK         0.0000 
     13 C13         0.1968   54.5050   30.6352 C.3       1 UNK         0.0000 
     14 C14         0.2516   53.5511   31.8171 C.3       1 UNK         0.0000 
     15 C15         1.0287   52.2711   31.5212 C.3       1 UNK         0.0000 
     16 O16         2.4099   52.4968   31.2770 O.3       1 UNK         0.0000 
     17 N17         3.7550   53.8926   25.1219 N.am      1 UNK         0.0000 
     18 C18         2.4692   53.6485   24.7889 C.2       1 UNK         0.0000 
     19 O19         1.5243   54.0935   25.4279 O.2       1 UNK         0.0000 
     20 C20         2.1886   52.7813   23.5452 C.3       1 UNK         0.0000 
     21 N21         0.8594   52.0936   23.5601 N.am      1 UNK         0.0000 
     22 C22         0.3027   51.4128   24.6016 C.2       1 UNK         0.0000 
     23 O23         0.7044   51.2969   25.7599 O.2       1 UNK         0.0000 
     24 C24        -0.9662   50.7640   24.0757 C.3       1 UNK         0.0000 
     25 N25        -0.7733   51.0110   22.6734 N.am      1 UNK         0.0000 
     26 C26         0.2032   51.8777   22.3898 C.2       1 UNK         0.0000 
     27 O27         0.3142   52.4964   21.3357 O.2       1 UNK         0.0000 
     28 C28        -0.8873   49.2343   24.3502 C.3       1 UNK         0.0000 
     29 C29        -2.2039   51.4750   24.6820 C.ar      1 UNK         0.0000 
     30 C30        -2.7632   51.0258   25.8917 C.ar      1 UNK         0.0000 
     31 C31        -3.8370   51.6958   26.4784 C.ar      1 UNK         0.0000 
     32 C32        -4.3677   52.8324   25.8719 C.ar      1 UNK         0.0000 
     33 C33        -3.8255   53.2969   24.6747 C.ar      1 UNK         0.0000 
     34 C34        -2.7602   52.6190   24.0828 C.ar      1 UNK         0.0000 
     35 F35        -4.3132   54.4174   24.0939 F         1 UNK         0.0000 
     36 F36        -5.3945   53.4915   26.4565 F         1 UNK         0.0000 
     37 H37         6.5247   52.9100   26.0820 H         1 UNK         0.0000 
     38 H38         7.7173   54.1108   26.5864 H         1 UNK         0.0000 
     39 H39         6.5884   53.5259   27.7356 H         1 UNK         0.0000 
     40 H40         5.8979   55.6967   27.1159 H         1 UNK         0.0000 
     41 H41         6.0738   55.0406   24.1440 H         1 UNK         0.0000 
     42 H42         5.7023   56.6022   24.8817 H         1 UNK         0.0000 
     43 H43         7.2911   55.9056   25.0697 H         1 UNK         0.0000 
     44 H44         4.7587   52.3078   27.4731 H         1 UNK         0.0000 
     45 H45         4.0154   51.4024   29.6023 H         1 UNK         0.0000 
     46 H46         2.4325   55.8365   28.1130 H         1 UNK         0.0000 
     47 H47        -0.4954   55.2967   30.8843 H         1 UNK         0.0000 
     48 H48        -0.2229   54.0325   29.7441 H         1 UNK         0.0000 
     49 H49         0.6792   54.0489   32.6877 H         1 UNK         0.0000 
     50 H50        -0.7690   53.2967   32.0816 H         1 UNK         0.0000 
     51 H51         0.9569   51.6129   32.3880 H         1 UNK         0.0000 
     52 H52         0.5782   51.7238   30.6903 H         1 UNK         0.0000 
     53 H53         4.4843   53.5721   24.5034 H         1 UNK         0.0000 
     54 H54         2.1905   53.4935   22.7182 H         1 UNK         0.0000 
     55 H55         2.9975   52.0947   23.3294 H         1 UNK         0.0000 
     56 H56        -1.1785   50.4052   21.9760 H         1 UNK         0.0000 
     57 H57        -0.7439   49.0015   25.4078 H         1 UNK         0.0000 
     58 H58        -1.8014   48.7329   24.0325 H         1 UNK         0.0000 
     59 H59        -0.0593   48.7608   23.8182 H         1 UNK         0.0000 
     60 H60        -2.3578   50.1665   26.4081 H         1 UNK         0.0000 
     61 H61        -4.2476   51.3392   27.4121 H         1 UNK         0.0000 
     62 H62        -2.3531   53.0177   23.1661 H         1 UNK         0.0000 
@<TRIPOS>BOND
     1    1    2 1    
     2    1   37 1    
     3    1   38 1    
     4    1   39 1    
     5    2    3 1    
     6    2    4 1    
     7    2   40 1    
     8    3   41 1    
     9    3   42 1    
    10    3   43 1    
    11    4    5 1    
    12    4    6 1    
    13    4   17 1    
    14    6   11 ar   
    15    6    7 ar   
    16    7    8 ar   
    17    7   44 1    
    18    8    9 ar   
    19    8   45 1    
    20    9   16 1    
    21    9   10 ar   
    22   10   11 ar   
    23   10   12 1    
    24   11   46 1    
    25   12   13 1    
    26   13   14 1    
    27   13   47 1    
    28   13   48 1    
    29   14   15 1    
    30   14   49 1    
    31   14   50 1    
    32   15   16 1    
    33   15   51 1    
    34   15   52 1    
    35   17   18 am   BACKBONE|DICT|INTERRES
    36   17   53 1    
    37   18   19 2    
    38   18   20 1    
    39   20   21 1    
    40   20   54 1    
    41   20   55 1    
    42   21   26 am   BACKBONE|DICT|INTERRES
    43   21   22 am   BACKBONE|DICT|INTERRES
    44   22   23 2    
    45   22   24 1    
    46   24   25 1    
    47   24   28 1    
    48   24   29 1    
    49   25   26 am   BACKBONE|DICT|INTERRES
    50   25   56 1    
    51   26   27 2    
    52   28   57 1    
    53   28   58 1    
    54   28   59 1    
    55   29   34 ar   
    56   29   30 ar   
    57   30   31 ar   
    58   30   60 1    
    59   31   32 ar   
    60   31   61 1    
    61   32   33 ar   
    62   32   36 1    
    63   33   34 ar   
    64   33   35 1    
    65   34   62 1    
@<TRIPOS>SUBSTRUCTURE
     1 UNK         1 GROUP             0       ****    0 ROOT    
