@<TRIPOS>MOLECULE
ZINC20571416_3220
52   56    1
SMALL
USER_CHARGES


@<TRIPOS>ATOM
      1 C1         11.4362   50.5191   13.8978 C.3       1 UNK         0.0000 
      2 C2          9.9783   50.8525   13.6430 C.ar      1 UNK         0.0000 
      3 C3          9.0980   51.0093   14.7136 C.ar      1 UNK         0.0000 
      4 C4          7.7584   51.2970   14.4700 C.ar      1 UNK         0.0000 
      5 C5          7.2966   51.4233   13.1581 C.ar      1 UNK         0.0000 
      6 C6          8.1833   51.2938   12.0871 C.ar      1 UNK         0.0000 
      7 C7          9.5235   51.0079   12.3325 C.ar      1 UNK         0.0000 
      8 S8          5.5521   51.7104   12.8627 S.o2      1 UNK         0.0000 
      9 O9          4.8021   50.7572   13.6844 O.2       1 UNK         0.0000 
     10 O10         5.3509   51.7649   11.4106 O.2       1 UNK         0.0000 
     11 N11         5.2144   53.3465   13.4605 N.pl3     1 UNK         0.0000 
     12 C12         5.3505   53.7325   14.8011 C.ar      1 UNK         0.0000 
     13 C13         4.9061   52.9469   15.8687 C.ar      1 UNK         0.0000 
     14 C14         5.1135   53.3673   17.1815 C.ar      1 UNK         0.0000 
     15 C15         5.7516   54.5908   17.4469 C.ar      1 UNK         0.0000 
     16 C16         6.1582   55.3854   16.3660 C.ar      1 UNK         0.0000 
     17 C17         5.9572   54.9606   15.0568 C.ar      1 UNK         0.0000 
     18 C18         6.0659   55.0426   18.8577 C.2       1 UNK         0.0000 
     19 O19         6.9280   55.9049   19.0390 O.2       1 UNK         0.0000 
     20 N20         5.3244   54.4942   19.8468 N.am      1 UNK         0.0000 
     21 C21         5.5036   54.6533   21.2144 C.2       1 UNK         0.0000 
     22 N22         4.5825   54.2546   22.0475 N.2       1 UNK         0.0000 
     23 C23         4.9842   54.3974   23.3412 C.ar      1 UNK         0.0000 
     24 C24         4.2071   54.0922   24.4693 C.ar      1 UNK         0.0000 
     25 C25         4.8071   54.1883   25.7258 C.ar      1 UNK         0.0000 
     26 C26         6.1271   54.6450   25.8753 C.ar      1 UNK         0.0000 
     27 C27         6.8810   55.0296   24.7734 C.ar      1 UNK         0.0000 
     28 C28         6.3045   54.8967   23.5080 C.ar      1 UNK         0.0000 
     29 S29         6.9759   55.2969   21.9408 S.3       1 UNK         0.0000 
     30 O30         6.7806   54.6525   27.0907 O.3       1 UNK         0.0000 
     31 C31         5.9525   54.3857   28.2295 C.3       1 UNK         0.0000 
     32 C32         4.8357   53.3669   27.9187 C.3       1 UNK         0.0000 
     33 O33         4.0469   53.8211   26.8150 O.3       1 UNK         0.0000 
     34 H34        11.7325   50.7401   14.9235 H         1 UNK         0.0000 
     35 H35        11.6280   49.4667   13.6860 H         1 UNK         0.0000 
     36 H36        12.0790   51.1078   13.2427 H         1 UNK         0.0000 
     37 H37         9.4420   50.8935   15.7317 H         1 UNK         0.0000 
     38 H38         7.0766   51.3890   15.3032 H         1 UNK         0.0000 
     39 H39         7.8386   51.3939   11.0682 H         1 UNK         0.0000 
     40 H40        10.2114   50.8913   11.5062 H         1 UNK         0.0000 
     41 H41         5.3439   54.0713   12.7731 H         1 UNK         0.0000 
     42 H42         4.4168   51.9979   15.7057 H         1 UNK         0.0000 
     43 H43         4.7970   52.7049   17.9762 H         1 UNK         0.0000 
     44 H44         6.6533   56.3330   16.5311 H         1 UNK         0.0000 
     45 H45         6.2969   55.5857   14.2433 H         1 UNK         0.0000 
     46 H46         4.4869   54.0029   19.5746 H         1 UNK         0.0000 
     47 H47         3.1957   53.7291   24.3701 H         1 UNK         0.0000 
     48 H48         7.8960   55.3787   24.8813 H         1 UNK         0.0000 
     49 H49         6.5890   54.0233   29.0355 H         1 UNK         0.0000 
     50 H50         5.4934   55.3047   28.5771 H         1 UNK         0.0000 
     51 H51         5.3021   52.4174   27.6681 H         1 UNK         0.0000 
     52 H52         4.1970   53.2079   28.7873 H         1 UNK         0.0000 
@<TRIPOS>BOND
     1    1    2 1    
     2    1   34 1    
     3    1   35 1    
     4    1   36 1    
     5    2    7 ar   
     6    2    3 ar   
     7    3    4 ar   
     8    3   37 1    
     9    4    5 ar   
    10    4   38 1    
    11    5    6 ar   
    12    5    8 1    
    13    6    7 ar   
    14    6   39 1    
    15    7   40 1    
    16    8    9 2    
    17    8   10 2    
    18    8   11 1    
    19   11   12 1    
    20   11   41 1    
    21   12   17 ar   
    22   12   13 ar   
    23   13   14 ar   
    24   13   42 1    
    25   14   15 ar   
    26   14   43 1    
    27   15   16 ar   
    28   15   18 1    
    29   16   17 ar   
    30   16   44 1    
    31   17   45 1    
    32   18   19 2    
    33   18   20 am   BACKBONE|DICT|INTERRES
    34   20   21 am   BACKBONE|DICT|INTERRES
    35   20   46 1    
    36   21   29 1    
    37   21   22 2    
    38   22   23 1    
    39   23   28 ar   
    40   23   24 ar   
    41   24   25 ar   
    42   24   47 1    
    43   25   33 1    
    44   25   26 ar   
    45   26   27 ar   
    46   26   30 1    
    47   27   28 ar   
    48   27   48 1    
    49   28   29 1    
    50   30   31 1    
    51   31   32 1    
    52   31   49 1    
    53   31   50 1    
    54   32   33 1    
    55   32   51 1    
    56   32   52 1    
@<TRIPOS>SUBSTRUCTURE
     1 UNK         1 GROUP             0       ****    0 ROOT    
