@<TRIPOS>MOLECULE
ZINC57310317_4052
63   67    1
SMALL
USER_CHARGES


@<TRIPOS>ATOM
      1 C1          7.4683   55.7043   22.3719 C.3       1 UNK         0.0000 
      2 C2          7.0485   55.5163   20.9386 C.ar      1 UNK         0.0000 
      3 C3          5.9038   54.8544   20.3653 C.ar      1 UNK         0.0000 
      4 C4          4.7058   54.2129   20.7930 C.ar      1 UNK         0.0000 
      5 C5          3.9052   53.6835   19.7668 C.ar      1 UNK         0.0000 
      6 C6          4.2571   53.7979   18.4165 C.ar      1 UNK         0.0000 
      7 N7          5.4006   54.4076   18.0022 N.ar      1 UNK         0.0000 
      8 C8          6.1695   54.9084   18.9698 C.ar      1 UNK         0.0000 
      9 N9          7.3672   55.5809   18.8145 N.pl3     1 UNK         0.0000 
     10 N10         7.8480   55.9662   20.0073 N.2       1 UNK         0.0000 
     11 C11         8.0588   55.9751   17.5790 C.3       1 UNK         0.0000 
     12 H12         7.7874   55.1935   16.8629 H         1 UNK         0.0000 
     13 C13         7.5687   57.3415   17.0450 C.3       1 UNK         0.0000 
     14 C14         8.4595   57.7476   15.8641 C.3       1 UNK         0.0000 
     15 S15        10.1837   57.2110   16.3584 S.o2      1 UNK         0.0000 
     16 O16        10.8011   56.4847   15.2430 O.2       1 UNK         0.0000 
     17 O17        10.8827   58.3251   17.0099 O.2       1 UNK         0.0000 
     18 C18         9.6068   56.0089   17.6725 C.3       1 UNK         0.0000 
     19 C19         3.3809   53.2454   17.3359 C.ar      1 UNK         0.0000 
     20 C20         1.9845   53.2426   17.4812 C.ar      1 UNK         0.0000 
     21 C21         1.1638   52.7160   16.4873 C.ar      1 UNK         0.0000 
     22 C22         1.7341   52.1850   15.3337 C.ar      1 UNK         0.0000 
     23 C23         3.1143   52.1864   15.1642 C.ar      1 UNK         0.0000 
     24 C24         3.9304   52.7147   16.1590 C.ar      1 UNK         0.0000 
     25 F25         0.9376   51.6724   14.3683 F         1 UNK         0.0000 
     26 C26         4.1894   54.0975   22.2133 C.2       1 UNK         0.0000 
     27 O27         2.9777   54.0114   22.4232 O.2       1 UNK         0.0000 
     28 N28         5.1244   54.0933   23.1838 N.am      1 UNK         0.0000 
     29 C29         4.9717   54.0976   24.5858 C.ar      1 UNK         0.0000 
     30 C30         6.1543   54.0975   25.3316 C.ar      1 UNK         0.0000 
     31 C31         6.1100   54.0335   26.7218 C.ar      1 UNK         0.0000 
     32 C32         4.8790   53.9686   27.3787 C.ar      1 UNK         0.0000 
     33 C33         3.6946   54.0223   26.6394 C.ar      1 UNK         0.0000 
     34 C34         3.7364   54.0966   25.2522 C.ar      1 UNK         0.0000 
     35 C35         4.8472   53.7867   28.8952 C.3       1 UNK         0.0000 
     36 C36         3.7743   54.6312   29.5963 C.3       1 UNK         0.0000 
     37 C37         4.6931   52.3032   29.2819 C.3       1 UNK         0.0000 
     38 H38         6.6815   56.0981   23.0093 H         1 UNK         0.0000 
     39 H39         7.7916   54.7486   22.7791 H         1 UNK         0.0000 
     40 H40         8.3044   56.3981   22.4768 H         1 UNK         0.0000 
     41 H41         2.9819   53.1786   20.0194 H         1 UNK         0.0000 
     42 H42         6.5147   57.3106   16.7587 H         1 UNK         0.0000 
     43 H43         7.6662   58.1006   17.8264 H         1 UNK         0.0000 
     44 H44         8.1710   57.1340   15.0109 H         1 UNK         0.0000 
     45 H45         8.4495   58.7878   15.5419 H         1 UNK         0.0000 
     46 H46         9.9058   56.4784   18.6090 H         1 UNK         0.0000 
     47 H47        10.1368   55.0585   17.6509 H         1 UNK         0.0000 
     48 H48         1.5272   53.6582   18.3673 H         1 UNK         0.0000 
     49 H49         0.0935   52.7186   16.6086 H         1 UNK         0.0000 
     50 H50         3.5498   51.7610   14.2714 H         1 UNK         0.0000 
     51 H51         5.0032   52.6827   16.0244 H         1 UNK         0.0000 
     52 H52         6.0779   54.1313   22.8625 H         1 UNK         0.0000 
     53 H53         7.1191   54.1056   24.8449 H         1 UNK         0.0000 
     54 H54         7.0327   53.9927   27.2808 H         1 UNK         0.0000 
     55 H55         2.7343   53.9690   27.1265 H         1 UNK         0.0000 
     56 H56         2.7930   54.1105   24.7317 H         1 UNK         0.0000 
     57 H57         5.8061   54.1397   29.2815 H         1 UNK         0.0000 
     58 H58         3.8622   55.6942   29.3526 H         1 UNK         0.0000 
     59 H59         3.9048   54.5030   30.6657 H         1 UNK         0.0000 
     60 H60         2.7615   54.3119   29.3537 H         1 UNK         0.0000 
     61 H61         5.5031   51.6970   28.8817 H         1 UNK         0.0000 
     62 H62         4.7022   52.1638   30.3630 H         1 UNK         0.0000 
     63 H63         3.7564   51.8869   28.9111 H         1 UNK         0.0000 
@<TRIPOS>BOND
     1    1    2 1    
     2    1   38 1    
     3    1   39 1    
     4    1   40 1    
     5    2   10 ar   
     6    2    3 ar   
     7    3    8 ar   
     8    3    4 ar   
     9    4    5 ar   
    10    4   26 1    
    11    5    6 ar   
    12    5   41 1    
    13    6    7 ar   
    14    6   19 1    
    15    7    8 ar   
    16    8    9 ar   
    17    9   10 ar   
    18    9   11 1    
    19   11   12 1    
    20   11   18 1    
    21   11   13 1    
    22   13   14 1    
    23   13   42 1    
    24   13   43 1    
    25   14   15 1    
    26   14   44 1    
    27   14   45 1    
    28   15   16 2    
    29   15   17 2    
    30   15   18 1    
    31   18   46 1    
    32   18   47 1    
    33   19   24 ar   
    34   19   20 ar   
    35   20   21 ar   
    36   20   48 1    
    37   21   22 ar   
    38   21   49 1    
    39   22   23 ar   
    40   22   25 1    
    41   23   24 ar   
    42   23   50 1    
    43   24   51 1    
    44   26   27 2    
    45   26   28 am   BACKBONE|DICT|INTERRES
    46   28   29 1    
    47   28   52 1    
    48   29   34 ar   
    49   29   30 ar   
    50   30   31 ar   
    51   30   53 1    
    52   31   32 ar   
    53   31   54 1    
    54   32   33 ar   
    55   32   35 1    
    56   33   34 ar   
    57   33   55 1    
    58   34   56 1    
    59   35   36 1    
    60   35   37 1    
    61   35   57 1    
    62   36   58 1    
    63   36   59 1    
    64   36   60 1    
    65   37   61 1    
    66   37   62 1    
    67   37   63 1    
@<TRIPOS>SUBSTRUCTURE
     1 UNK         1 GROUP             0       ****    0 ROOT    
