@<TRIPOS>MOLECULE
ZINC64921778_3243
68   71    1
SMALL
USER_CHARGES


@<TRIPOS>ATOM
      1 C1         -0.1649   45.8842   14.4457 C.3       1 UNK         0.0000 
      2 C2         -0.4321   46.0052   15.9577 C.3       1 UNK         0.0000 
      3 C3          0.7590   45.6185   16.8800 C.3       1 UNK         0.0000 
      4 H4          1.1195   44.6307   16.5923 H         1 UNK         0.0000 
      5 C5          1.9483   46.6179   16.6828 C.2       1 UNK         0.0000 
      6 O6          2.8085   46.4938   15.8148 O.2       1 UNK         0.0000 
      7 N7          1.9052   47.6473   17.5550 N.am      1 UNK         0.0000 
      8 C8          0.9503   47.8326   18.5594 C.ar      1 UNK         0.0000 
      9 C9          0.7923   49.0492   19.2335 C.ar      1 UNK         0.0000 
     10 C10        -0.2274   49.1848   20.1911 C.ar      1 UNK         0.0000 
     11 C11        -1.0700   48.1016   20.4764 C.ar      1 UNK         0.0000 
     12 C12        -0.8902   46.8792   19.8318 C.ar      1 UNK         0.0000 
     13 C13         0.1122   46.7588   18.8748 C.ar      1 UNK         0.0000 
     14 O14         0.3113   45.5403   18.2591 O.3       1 UNK         0.0000 
     15 S15        -0.5006   50.7376   21.0534 S.o2      1 UNK         0.0000 
     16 O16        -1.9527   50.9577   21.0472 O.2       1 UNK         0.0000 
     17 O17         0.4144   51.7250   20.4660 O.2       1 UNK         0.0000 
     18 N18         0.0010   50.4161   22.7254 N.pl3     1 UNK         0.0000 
     19 C19        -0.8466   49.6411   23.6576 C.3       1 UNK         0.0000 
     20 C20        -1.1810   50.4897   24.9053 C.3       1 UNK         0.0000 
     21 C21         0.1142   51.0964   25.5248 C.3       1 UNK         0.0000 
     22 C22         1.0207   51.8193   24.4713 C.3       1 UNK         0.0000 
     23 C23         1.2915   50.8906   23.2665 C.3       1 UNK         0.0000 
     24 C24        -0.1948   52.0326   26.7230 C.2       1 UNK         0.0000 
     25 O25        -1.3209   52.0963   27.2107 O.2       1 UNK         0.0000 
     26 N26         0.8508   52.6960   27.2447 N.am      1 UNK         0.0000 
     27 C27         0.8445   53.6164   28.3815 C.3       1 UNK         0.0000 
     28 C28         0.9312   52.8965   29.7469 C.3       1 UNK         0.0000 
     29 C29         2.2170   52.0976   30.0597 C.3       1 UNK         0.0000 
     30 C30         3.5045   52.9302   30.2486 C.3       1 UNK         0.0000 
     31 C31         4.5093   52.9284   29.0828 C.3       1 UNK         0.0000 
     32 C32         3.9420   53.1732   27.6809 C.3       1 UNK         0.0000 
     33 C33         3.1895   54.4947   27.4354 C.3       1 UNK         0.0000 
     34 C34         1.8761   54.7668   28.2210 C.3       1 UNK         0.0000 
     35 H35        -1.0703   46.0878   13.8746 H         1 UNK         0.0000 
     36 H36         0.5946   46.5925   14.1102 H         1 UNK         0.0000 
     37 H37         0.1734   44.8811   14.1786 H         1 UNK         0.0000 
     38 H38        -1.2735   45.3554   16.2012 H         1 UNK         0.0000 
     39 H39        -0.7727   47.0162   16.1846 H         1 UNK         0.0000 
     40 H40         2.6283   48.3448   17.3863 H         1 UNK         0.0000 
     41 H41         1.4353   49.8850   18.9939 H         1 UNK         0.0000 
     42 H42        -1.8602   48.2047   21.2009 H         1 UNK         0.0000 
     43 H43        -1.5264   46.0376   20.0645 H         1 UNK         0.0000 
     44 H44        -0.3223   48.7220   23.9205 H         1 UNK         0.0000 
     45 H45        -1.7650   49.3522   23.1475 H         1 UNK         0.0000 
     46 H46        -1.6898   49.8311   25.6118 H         1 UNK         0.0000 
     47 H47        -1.8519   51.2777   24.5550 H         1 UNK         0.0000 
     48 H48         0.7149   50.3056   25.9711 H         1 UNK         0.0000 
     49 H49         0.5142   52.6932   24.0563 H         1 UNK         0.0000 
     50 H50         1.9962   52.0952   24.8750 H         1 UNK         0.0000 
     51 H51         1.8975   50.0242   23.5381 H         1 UNK         0.0000 
     52 H52         1.8349   51.4221   22.4850 H         1 UNK         0.0000 
     53 H53         1.7425   52.5933   26.7841 H         1 UNK         0.0000 
     54 H54        -0.1337   54.1039   28.3788 H         1 UNK         0.0000 
     55 H55         0.0869   52.2067   29.8177 H         1 UNK         0.0000 
     56 H56         0.7619   53.6222   30.5442 H         1 UNK         0.0000 
     57 H57         2.3646   51.3004   29.3302 H         1 UNK         0.0000 
     58 H58         2.0237   51.5977   31.0088 H         1 UNK         0.0000 
     59 H59         4.0298   52.5650   31.1340 H         1 UNK         0.0000 
     60 H60         3.2542   53.9598   30.4817 H         1 UNK         0.0000 
     61 H61         5.0315   51.9722   29.0775 H         1 UNK         0.0000 
     62 H62         5.2789   53.6777   29.2790 H         1 UNK         0.0000 
     63 H63         3.3223   52.3255   27.4047 H         1 UNK         0.0000 
     64 H64         4.7771   53.1325   26.9789 H         1 UNK         0.0000 
     65 H65         2.9695   54.5455   26.3685 H         1 UNK         0.0000 
     66 H66         3.8965   55.2970   27.6248 H         1 UNK         0.0000 
     67 H67         2.1039   55.2084   29.1882 H         1 UNK         0.0000 
     68 H68         1.3697   55.5747   27.6962 H         1 UNK         0.0000 
@<TRIPOS>BOND
     1    1    2 1    
     2    1   35 1    
     3    1   36 1    
     4    1   37 1    
     5    2    3 1    
     6    2   38 1    
     7    2   39 1    
     8    3    4 1    
     9    3   14 1    
    10    3    5 1    
    11    5    6 2    
    12    5    7 am   BACKBONE|DICT|INTERRES
    13    7    8 1    
    14    7   40 1    
    15    8   13 ar   
    16    8    9 ar   
    17    9   10 ar   
    18    9   41 1    
    19   10   11 ar   
    20   10   15 1    
    21   11   12 ar   
    22   11   42 1    
    23   12   13 ar   
    24   12   43 1    
    25   13   14 1    
    26   15   16 2    
    27   15   17 2    
    28   15   18 1    
    29   18   23 1    
    30   18   19 1    
    31   19   20 1    
    32   19   44 1    
    33   19   45 1    
    34   20   21 1    
    35   20   46 1    
    36   20   47 1    
    37   21   22 1    
    38   21   24 1    
    39   21   48 1    
    40   22   23 1    
    41   22   49 1    
    42   22   50 1    
    43   23   51 1    
    44   23   52 1    
    45   24   25 2    
    46   24   26 am   BACKBONE|DICT|INTERRES
    47   26   27 1    
    48   26   53 1    
    49   27   34 1    
    50   27   28 1    
    51   27   54 1    
    52   28   29 1    
    53   28   55 1    
    54   28   56 1    
    55   29   30 1    
    56   29   57 1    
    57   29   58 1    
    58   30   31 1    
    59   30   59 1    
    60   30   60 1    
    61   31   32 1    
    62   31   61 1    
    63   31   62 1    
    64   32   33 1    
    65   32   63 1    
    66   32   64 1    
    67   33   34 1    
    68   33   65 1    
    69   33   66 1    
    70   34   67 1    
    71   34   68 1    
@<TRIPOS>SUBSTRUCTURE
     1 UNK         1 GROUP             0       ****    0 ROOT    
