@<TRIPOS>MOLECULE
ZINC39977209_1150
44   47    1
SMALL
USER_CHARGES


@<TRIPOS>ATOM
      1 C1          4.9097   55.8031   16.9342 C.2       1 UNK         0.0000 
      2 C2          5.9364   56.5196   17.6975 C.2       1 UNK         0.0000 
      3 C3          6.2073   56.1556   18.9746 C.2       1 UNK         0.0000 
      4 C4          5.5056   55.0800   19.6429 C.2       1 UNK         0.0000 
      5 N5          5.7423   54.7491   20.8642 N.2       1 UNK         0.0000 
      6 C6          5.0495   53.7374   21.5378 C.2       1 UNK         0.0000 
      7 N7          5.2481   53.3620   22.7377 N.2       1 UNK         0.0000 
      8 S8          6.4964   54.1454   23.6911 S.o2      1 UNK         0.0000 
      9 O9          7.6706   53.2999   23.9218 O.2       1 UNK         0.0000 
     10 O10         6.7416   55.5769   23.4841 O.2       1 UNK         0.0000 
     11 C11         5.6631   54.1734   25.2941 C.ar      1 UNK         0.0000 
     12 C12         4.2744   54.3273   25.3931 C.ar      1 UNK         0.0000 
     13 C13         3.6700   54.3791   26.6480 C.ar      1 UNK         0.0000 
     14 C14         4.4486   54.2910   27.8021 C.ar      1 UNK         0.0000 
     15 C15         5.8297   54.1485   27.7098 C.ar      1 UNK         0.0000 
     16 C16         6.4329   54.0961   26.4589 C.ar      1 UNK         0.0000 
     17 Br17        3.6213   54.3906   29.5151 Br        1 UNK         0.0000 
     18 C18         3.9310   52.9659   20.7724 C.3       1 UNK         0.0000 
     19 H19         4.2832   51.9370   20.6855 H         1 UNK         0.0000 
     20 N20         3.7558   53.3990   19.3429 N.pl3     1 UNK         0.0000 
     21 C21         4.4467   54.3814   18.7821 C.2       1 UNK         0.0000 
     22 C22         4.1991   54.7730   17.4654 C.2       1 UNK         0.0000 
     23 N23         2.6796   52.9941   21.5364 N.pl3     1 UNK         0.0000 
     24 C24         2.0266   51.8236   21.9317 C.ar      1 UNK         0.0000 
     25 C25         1.3474   51.8148   23.1529 C.ar      1 UNK         0.0000 
     26 C26         0.6727   50.6665   23.5724 C.ar      1 UNK         0.0000 
     27 C27         0.6493   49.5380   22.7532 C.ar      1 UNK         0.0000 
     28 C28         1.3005   49.5605   21.5196 C.ar      1 UNK         0.0000 
     29 C29         2.0013   50.6915   21.1163 C.ar      1 UNK         0.0000 
     30 F30         1.2410   48.4958   20.6965 F         1 UNK         0.0000 
     31 H31         4.7157   56.1076   15.9147 H         1 UNK         0.0000 
     32 H32         6.4786   57.3362   17.2361 H         1 UNK         0.0000 
     33 H33         6.9762   56.6969   19.5038 H         1 UNK         0.0000 
     34 H34         3.6610   54.4126   24.5113 H         1 UNK         0.0000 
     35 H35         2.6000   54.4975   26.7286 H         1 UNK         0.0000 
     36 H36         6.4305   54.0912   28.6056 H         1 UNK         0.0000 
     37 H37         7.5041   53.9962   26.4015 H         1 UNK         0.0000 
     38 H38         3.4528   54.2567   16.8752 H         1 UNK         0.0000 
     39 H39         2.4776   53.8414   22.0477 H         1 UNK         0.0000 
     40 H40         1.3542   52.6865   23.7908 H         1 UNK         0.0000 
     41 H41         0.1629   50.6539   24.5260 H         1 UNK         0.0000 
     42 H42         0.1176   48.6541   23.0680 H         1 UNK         0.0000 
     43 H43         2.4909   50.6813   20.1560 H         1 UNK         0.0000 
     44 H44         3.0458   52.9233   18.7928 H         1 UNK         0.0000 
@<TRIPOS>BOND
     1    1   22 2    
     2    1    2 1    
     3    1   31 1    
     4    2    3 2    
     5    2   32 1    
     6    3    4 1    
     7    3   33 1    
     8    4   21 1    
     9    4    5 2    
    10    5    6 1    
    11    6    7 2    
    12    6   18 1    
    13    7    8 1    
    14    8    9 2    
    15    8   10 2    
    16    8   11 1    
    17   11   16 ar   
    18   11   12 ar   
    19   12   13 ar   
    20   12   34 1    
    21   13   14 ar   
    22   13   35 1    
    23   14   15 ar   
    24   14   17 1    
    25   15   16 ar   
    26   15   36 1    
    27   16   37 1    
    28   18   19 1    
    29   18   20 1    
    30   18   23 1    
    31   20   21 2    
    32   20   44 1    
    33   21   22 1    
    34   22   38 1    
    35   23   24 1    
    36   23   39 1    
    37   24   29 ar   
    38   24   25 ar   
    39   25   26 ar   
    40   25   40 1    
    41   26   27 ar   
    42   26   41 1    
    43   27   28 ar   
    44   27   42 1    
    45   28   29 ar   
    46   28   30 1    
    47   29   43 1    
@<TRIPOS>SUBSTRUCTURE
     1 UNK         1 GROUP             0       ****    0 ROOT    
