@<TRIPOS>MOLECULE
ZINC16610526_2865
67   69    1
SMALL
USER_CHARGES


@<TRIPOS>ATOM
      1 C1         -0.8777   48.7632   25.4314 C.3       1 UNK         0.0000 
      2 C2         -1.3521   50.1128   26.0036 C.3       1 UNK         0.0000 
      3 N3         -0.6112   51.2827   25.4466 N.pl3     1 UNK         0.0000 
      4 C4          0.5162   51.8177   26.0807 C.2       1 UNK         0.0000 
      5 C5          1.2249   52.8579   25.5443 C.2       1 UNK         0.0000 
      6 C6          0.8994   53.4011   24.1336 C.3       1 UNK         0.0000 
      7 H7          0.8413   54.4930   24.1856 H         1 UNK         0.0000 
      8 N8         -0.4314   52.9003   23.7579 N.pl3     1 UNK         0.0000 
      9 C9         -1.1289   51.8591   24.2877 C.2       1 UNK         0.0000 
     10 S10        -2.4958   51.4534   23.4136 S.2       1 UNK         0.0000 
     11 C11         1.9637   53.1133   23.0624 C.ar      1 UNK         0.0000 
     12 C12         2.9066   54.0979   22.7753 C.ar      1 UNK         0.0000 
     13 C13         3.8334   53.9212   21.7589 C.ar      1 UNK         0.0000 
     14 C14         3.8000   52.7630   20.9740 C.ar      1 UNK         0.0000 
     15 C15         2.8819   51.7547   21.2756 C.ar      1 UNK         0.0000 
     16 C16         1.9647   51.9287   22.3128 C.ar      1 UNK         0.0000 
     17 N17         4.6603   52.5553   19.8811 N.am      1 UNK         0.0000 
     18 C18         5.2907   53.4902   19.1417 C.2       1 UNK         0.0000 
     19 O19         5.1682   54.7088   19.2695 O.2       1 UNK         0.0000 
     20 N20         6.0757   52.8967   18.2246 N.am      1 UNK         0.0000 
     21 C21         6.8694   53.5358   17.2607 C.ar      1 UNK         0.0000 
     22 C22         6.7327   53.0805   15.9449 C.ar      1 UNK         0.0000 
     23 C23         7.4886   53.6468   14.9224 C.ar      1 UNK         0.0000 
     24 C24         8.3926   54.6674   15.2112 C.ar      1 UNK         0.0000 
     25 C25         8.5535   55.1104   16.5241 C.ar      1 UNK         0.0000 
     26 C26         7.8087   54.5428   17.5743 C.ar      1 UNK         0.0000 
     27 O27         7.9763   54.8956   18.9045 O.3       1 UNK         0.0000 
     28 C28         8.9149   55.9040   19.2543 C.3       1 UNK         0.0000 
     29 C29         2.3596   53.5217   26.2243 C.2       1 UNK         0.0000 
     30 O30         3.3696   53.9040   25.6294 O.2       1 UNK         0.0000 
     31 O31         2.1608   53.7539   27.5527 O.3       1 UNK         0.0000 
     32 C32         3.1480   54.4317   28.3300 C.3       1 UNK         0.0000 
     33 C33         4.4253   53.5885   28.5840 C.3       1 UNK         0.0000 
     34 C34         5.6282   54.4961   28.8815 C.3       1 UNK         0.0000 
     35 C35         4.2098   52.5251   29.6753 C.3       1 UNK         0.0000 
     36 C36         0.9228   51.1208   27.3932 C.3       1 UNK         0.0000 
     37 H37        -1.4197   47.9444   25.9030 H         1 UNK         0.0000 
     38 H38        -1.0503   48.6958   24.3582 H         1 UNK         0.0000 
     39 H39         0.1823   48.5901   25.6201 H         1 UNK         0.0000 
     40 H40        -1.2813   50.0969   27.0893 H         1 UNK         0.0000 
     41 H41        -2.4301   50.2024   25.8682 H         1 UNK         0.0000 
     42 H42        -0.8481   53.2540   22.9104 H         1 UNK         0.0000 
     43 H43         2.9258   55.0159   23.3411 H         1 UNK         0.0000 
     44 H44         4.5481   54.7080   21.5847 H         1 UNK         0.0000 
     45 H45         2.8519   50.8464   20.6914 H         1 UNK         0.0000 
     46 H46         1.2436   51.1512   22.5159 H         1 UNK         0.0000 
     47 H47         4.7150   51.6067   19.5268 H         1 UNK         0.0000 
     48 H48         5.9041   51.9039   18.0811 H         1 UNK         0.0000 
     49 H49         6.0335   52.2891   15.7112 H         1 UNK         0.0000 
     50 H50         7.3732   53.2956   13.9058 H         1 UNK         0.0000 
     51 H51         8.9758   55.1088   14.4143 H         1 UNK         0.0000 
     52 H52         9.2721   55.8914   16.7043 H         1 UNK         0.0000 
     53 H53         8.9740   55.9807   20.3413 H         1 UNK         0.0000 
     54 H54         9.9043   55.6556   18.8819 H         1 UNK         0.0000 
     55 H55         8.6181   56.8795   18.8638 H         1 UNK         0.0000 
     56 H56         2.7028   54.7277   29.2790 H         1 UNK         0.0000 
     57 H57         3.4056   55.3571   27.8168 H         1 UNK         0.0000 
     58 H58         4.6832   53.0520   27.6701 H         1 UNK         0.0000 
     59 H59         5.5038   55.0397   29.8187 H         1 UNK         0.0000 
     60 H60         5.7777   55.2335   28.0905 H         1 UNK         0.0000 
     61 H61         6.5515   53.9185   28.9455 H         1 UNK         0.0000 
     62 H62         3.9982   52.9799   30.6435 H         1 UNK         0.0000 
     63 H63         3.3729   51.8701   29.4321 H         1 UNK         0.0000 
     64 H64         5.0885   51.8936   29.7877 H         1 UNK         0.0000 
     65 H65         1.9332   51.3461   27.7161 H         1 UNK         0.0000 
     66 H66         0.2421   51.3869   28.2025 H         1 UNK         0.0000 
     67 H67         0.9241   50.0409   27.2775 H         1 UNK         0.0000 
@<TRIPOS>BOND
     1    1    2 1    
     2    1   37 1    
     3    1   38 1    
     4    1   39 1    
     5    2    3 1    
     6    2   40 1    
     7    2   41 1    
     8    3    9 1    
     9    3    4 1    
    10    4    5 2    
    11    4   36 1    
    12    5    6 1    
    13    5   29 1    
    14    6    7 1    
    15    6    8 1    
    16    6   11 1    
    17    8    9 1    
    18    8   42 1    
    19    9   10 2    
    20   11   16 ar   
    21   11   12 ar   
    22   12   13 ar   
    23   12   43 1    
    24   13   14 ar   
    25   13   44 1    
    26   14   15 ar   
    27   14   17 1    
    28   15   16 ar   
    29   15   45 1    
    30   16   46 1    
    31   17   18 am   BACKBONE|DICT|INTERRES
    32   17   47 1    
    33   18   19 2    
    34   18   20 am   BACKBONE|DICT|INTERRES
    35   20   21 1    
    36   20   48 1    
    37   21   26 ar   
    38   21   22 ar   
    39   22   23 ar   
    40   22   49 1    
    41   23   24 ar   
    42   23   50 1    
    43   24   25 ar   
    44   24   51 1    
    45   25   26 ar   
    46   25   52 1    
    47   26   27 1    
    48   27   28 1    
    49   28   53 1    
    50   28   54 1    
    51   28   55 1    
    52   29   30 2    
    53   29   31 1    
    54   31   32 1    
    55   32   33 1    
    56   32   56 1    
    57   32   57 1    
    58   33   34 1    
    59   33   35 1    
    60   33   58 1    
    61   34   59 1    
    62   34   60 1    
    63   34   61 1    
    64   35   62 1    
    65   35   63 1    
    66   35   64 1    
    67   36   65 1    
    68   36   66 1    
    69   36   67 1    
@<TRIPOS>SUBSTRUCTURE
     1 UNK         1 GROUP             0       ****    0 ROOT    
