ZINC33009227_3427
                    3D
 Schrodinger Suite 2024-2.
 57 60  0  0  1  0            999 V2000
    1.7447   54.2364   28.0202 C   0  0  0  0  0  0
    3.2346   54.3504   27.7493 C   0  0  0  0  0  0
    4.1416   54.3633   28.8116 C   0  0  0  0  0  0
    5.5049   54.4672   28.5573 C   0  0  0  0  0  0
    5.9765   54.5438   27.2501 C   0  0  0  0  0  0
    5.0854   54.5308   26.1703 C   0  0  0  0  0  0
    3.7069   54.4308   26.4364 C   0  0  0  0  0  0
    5.6131   54.6546   24.7618 C   0  0  0  0  0  0
    6.6911   55.2143   24.5484 O   0  0  0  0  0  0
    4.8291   54.0978   23.8146 N   0  0  0  0  0  0
    4.9960   54.0518   22.4214 C   0  0  0  0  0  0
    5.8329   54.8965   21.6892 C   0  0  0  0  0  0
    5.9156   54.7659   20.3057 C   0  0  0  0  0  0
    5.2002   53.7794   19.6009 C   0  0  0  0  0  0
    4.3841   52.9007   20.3619 C   0  0  0  0  0  0
    4.2574   53.0860   21.7473 C   0  0  0  0  0  0
    3.7666   51.7944   19.7502 N   0  0  0  0  0  0
    2.6379   51.1372   20.0722 C   0  0  0  0  0  0
    1.8637   51.4600   20.9750 O   0  0  0  0  0  0
    2.5247   50.0511   19.2820 N   0  0  0  0  0  0
    1.5890   49.0006   19.3170 C   0  0  0  0  0  0
    1.8462   47.9355   18.4506 C   0  0  0  0  0  0
    1.0046   46.8274   18.4276 C   0  0  0  0  0  0
   -0.1019   46.7813   19.2725 C   0  0  0  0  0  0
   -0.3838   47.8496   20.1218 C   0  0  0  0  0  0
    0.4593   48.9581   20.1482 C   0  0  0  0  0  0
   -1.2192   45.2379   19.2845 Br  0  0  0  0  0  0
    5.3756   53.7015   18.1942 N   0  0  0  0  0  0
    6.4190   54.3982   17.4248 C   0  0  0  0  0  0
    6.0908   54.3143   15.9348 C   0  0  0  0  0  0
    5.2054   53.0952   15.8507 C   0  0  0  0  0  0
    4.4712   53.1267   17.1841 C   0  0  0  0  0  0
    1.2452   53.6821   27.2240 H   0  0  0  0  0  0
    1.5539   53.6901   28.9453 H   0  0  0  0  0  0
    1.2948   55.2277   28.0883 H   0  0  0  0  0  0
    3.7965   54.3083   29.8331 H   0  0  0  0  0  0
    6.2142   54.4970   29.3689 H   0  0  0  0  0  0
    7.0439   54.6184   27.0890 H   0  0  0  0  0  0
    2.9851   54.4358   25.6325 H   0  0  0  0  0  0
    4.0299   53.5894   24.1620 H   0  0  0  0  0  0
    6.4125   55.6689   22.1707 H   0  0  0  0  0  0
    6.5660   55.4539   19.7935 H   0  0  0  0  0  0
    3.6274   52.4241   22.3239 H   0  0  0  0  0  0
    4.2383   51.4779   18.9060 H   0  0  0  0  0  0
    3.2529   49.9375   18.5849 H   0  0  0  0  0  0
    2.7034   47.9559   17.7936 H   0  0  0  0  0  0
    1.2169   46.0026   17.7630 H   0  0  0  0  0  0
   -1.2461   47.8141   20.7718 H   0  0  0  0  0  0
    0.2162   49.7630   20.8212 H   0  0  0  0  0  0
    6.4156   55.4593   17.6737 H   0  0  0  0  0  0
    7.4092   53.9859   17.6401 H   0  0  0  0  0  0
    5.5589   55.2124   15.6045 H   0  0  0  0  0  0
    6.9876   54.2142   15.3206 H   0  0  0  0  0  0
    5.7822   52.1733   15.7613 H   0  0  0  0  0  0
    4.5190   53.1343   15.0037 H   0  0  0  0  0  0
    4.2012   52.0972   17.4140 H   0  0  0  0  0  0
    3.5422   53.7010   17.1318 H   0  0  0  0  0  0
  1  2  1  0  0  0
  1 33  1  0  0  0
  1 34  1  0  0  0
  1 35  1  0  0  0
  2  7  2  0  0  0
  2  3  1  0  0  0
  3  4  2  0  0  0
  3 36  1  0  0  0
  4  5  1  0  0  0
  4 37  1  0  0  0
  5  6  2  0  0  0
  5 38  1  0  0  0
  6  7  1  0  0  0
  6  8  1  0  0  0
  7 39  1  0  0  0
  8  9  2  0  0  0
  8 10  1  0  0  0
 10 11  1  0  0  0
 10 40  1  0  0  0
 11 16  2  0  0  0
 11 12  1  0  0  0
 12 13  2  0  0  0
 12 41  1  0  0  0
 13 14  1  0  0  0
 13 42  1  0  0  0
 14 15  2  0  0  0
 14 28  1  0  0  0
 15 16  1  0  0  0
 15 17  1  0  0  0
 16 43  1  0  0  0
 17 18  1  0  0  0
 17 44  1  0  0  0
 18 19  2  0  0  0
 18 20  1  0  0  0
 20 21  1  0  0  0
 20 45  1  0  0  0
 21 26  2  0  0  0
 21 22  1  0  0  0
 22 23  2  0  0  0
 22 46  1  0  0  0
 23 24  1  0  0  0
 23 47  1  0  0  0
 24 25  2  0  0  0
 24 27  1  0  0  0
 25 26  1  0  0  0
 25 48  1  0  0  0
 26 49  1  0  0  0
 28 32  1  0  0  0
 28 29  1  0  0  0
 29 30  1  0  0  0
 29 50  1  0  0  0
 29 51  1  0  0  0
 30 31  1  0  0  0
 30 52  1  0  0  0
 30 53  1  0  0  0
 31 32  1  0  0  0
 31 54  1  0  0  0
 31 55  1  0  0  0
 32 56  1  0  0  0
 32 57  1  0  0  0
M  END
> <i_i_glide_confnum>
1

> <i_i_glide_lignum>
3428

> <i_i_glide_posenum>
357

> <i_i_glide_rotatable_bonds>
8

> <i_m_Source_File_Index>
3461

> <b_m_subgroup_collapsed>
0

> <r_i_docking_score>
-5.59594

> <r_i_glide_ecoul>
-4.12665

> <r_i_glide_eff_state_penalty>
0

> <r_i_glide_einternal>
2.13409

> <r_i_glide_emodel>
-61.8993

> <r_i_glide_energy>
-45.8066

> <r_i_glide_erotb>
0.585766

> <r_i_glide_esite>
-0.259523

> <r_i_glide_evdw>
-41.68

> <r_i_glide_gscore>
-5.59594

> <r_i_glide_hbond>
-0.293365

> <r_i_glide_ligand_efficiency>
-0.174873

> <r_i_glide_ligand_efficiency_ln>
-1.25308

> <r_i_glide_ligand_efficiency_sa>
-0.555188

> <r_i_glide_lipo>
-2.38961

> <r_i_glide_metal>
0

> <r_i_glide_rewards>
-0.536208

> <s_i_glide_gridfile>
wee1_glide-grid

> <s_m_Source_File>
wee1_decoys_glide_SP.sdf

> <s_m_Source_Path>
/Users/zhangxujun/Desktop

> <s_m_entry_id>
3736

> <s_m_entry_name>
wee1_decoys_glide_SP.3461

> <s_m_subgroup_title>
wee1_decoys_glide_SP

> <s_m_subgroupid>
wee1_decoys_glide_SP


$$$$
