@<TRIPOS>MOLECULE
ZINC18110115_2074
59   62    1
SMALL
USER_CHARGES


@<TRIPOS>ATOM
      1 C1         10.9471   52.9996   16.8762 C.3       1 UNK         0.0000 
      2 C2          9.6116   53.6391   17.2222 C.ar      1 UNK         0.0000 
      3 C3          9.5980   54.8850   17.8583 C.ar      1 UNK         0.0000 
      4 C4          8.3939   55.4891   18.2074 C.ar      1 UNK         0.0000 
      5 C5          7.1848   54.8516   17.9205 C.ar      1 UNK         0.0000 
      6 C6          7.1879   53.6069   17.2857 C.ar      1 UNK         0.0000 
      7 C7          8.3945   52.9954   16.9329 C.ar      1 UNK         0.0000 
      8 C8          8.3583   51.6331   16.2556 C.3       1 UNK         0.0000 
      9 S9          5.6282   55.6059   18.3722 S.o2      1 UNK         0.0000 
     10 O10         4.7528   55.5150   17.1994 O.2       1 UNK         0.0000 
     11 O11         5.9026   56.8971   19.0146 O.2       1 UNK         0.0000 
     12 N12         4.9160   54.5235   19.5846 N.pl3     1 UNK         0.0000 
     13 C13         5.2545   54.5247   20.9421 C.ar      1 UNK         0.0000 
     14 C14         4.3839   53.9041   21.8344 C.ar      1 UNK         0.0000 
     15 C15         4.6634   53.8951   23.1974 C.ar      1 UNK         0.0000 
     16 C16         5.8333   54.4964   23.6906 C.ar      1 UNK         0.0000 
     17 C17         6.7030   55.1167   22.7830 C.ar      1 UNK         0.0000 
     18 C18         6.4187   55.1279   21.4237 C.ar      1 UNK         0.0000 
     19 C19         6.1558   54.5435   25.1705 C.2       1 UNK         0.0000 
     20 O20         7.0876   55.2390   25.5753 O.2       1 UNK         0.0000 
     21 N21         5.3733   53.7968   25.9774 N.am      1 UNK         0.0000 
     22 C22         5.4193   53.5775   27.4348 C.3       1 UNK         0.0000 
     23 H23         5.7985   52.5602   27.5424 H         1 UNK         0.0000 
     24 C24         6.3672   54.4947   28.2210 C.3       1 UNK         0.0000 
     25 C25         4.0336   53.6025   28.0877 C.ar      1 UNK         0.0000 
     26 C26         2.9697   54.3244   27.5239 C.ar      1 UNK         0.0000 
     27 C27         1.7101   54.3248   28.1207 C.ar      1 UNK         0.0000 
     28 C28         1.4981   53.5893   29.2824 C.ar      1 UNK         0.0000 
     29 C29         2.5558   52.8782   29.8707 C.ar      1 UNK         0.0000 
     30 C30         3.8124   52.8762   29.2671 C.ar      1 UNK         0.0000 
     31 O31         2.3819   52.0976   30.9987 O.3       1 UNK         0.0000 
     32 C32         1.1484   52.3250   31.6995 C.3       1 UNK         0.0000 
     33 C33        -0.0259   52.5333   30.7188 C.3       1 UNK         0.0000 
     34 O34         0.2414   53.6329   29.8443 O.3       1 UNK         0.0000 
     35 H35        11.0592   52.9289   15.7936 H         1 UNK         0.0000 
     36 H36        11.7917   53.5567   17.2829 H         1 UNK         0.0000 
     37 H37        11.0008   51.9861   17.2758 H         1 UNK         0.0000 
     38 H38        10.5276   55.3879   18.0880 H         1 UNK         0.0000 
     39 H39         8.4111   56.4531   18.6965 H         1 UNK         0.0000 
     40 H40         6.2486   53.1104   17.0774 H         1 UNK         0.0000 
     41 H41         8.8535   50.8929   16.8866 H         1 UNK         0.0000 
     42 H42         7.3383   51.2973   16.0646 H         1 UNK         0.0000 
     43 H43         8.8870   51.6653   15.3028 H         1 UNK         0.0000 
     44 H44         4.2232   53.8665   19.2598 H         1 UNK         0.0000 
     45 H45         3.4742   53.4471   21.4757 H         1 UNK         0.0000 
     46 H46         3.9464   53.4234   23.8537 H         1 UNK         0.0000 
     47 H47         7.5891   55.6283   23.1230 H         1 UNK         0.0000 
     48 H48         7.1171   55.6140   20.7624 H         1 UNK         0.0000 
     49 H49         4.7043   53.2087   25.5080 H         1 UNK         0.0000 
     50 H50         6.3310   54.2849   29.2811 H         1 UNK         0.0000 
     51 H51         7.4070   54.3587   27.9206 H         1 UNK         0.0000 
     52 H52         6.1072   55.5451   28.0815 H         1 UNK         0.0000 
     53 H53         3.1172   54.8976   26.6208 H         1 UNK         0.0000 
     54 H54         0.8983   54.8866   27.6831 H         1 UNK         0.0000 
     55 H55         4.6145   52.3059   29.7132 H         1 UNK         0.0000 
     56 H56         0.9482   51.4897   32.3720 H         1 UNK         0.0000 
     57 H57         1.2259   53.2150   32.3212 H         1 UNK         0.0000 
     58 H58        -0.1930   51.6264   30.1367 H         1 UNK         0.0000 
     59 H59        -0.9283   52.7434   31.2816 H         1 UNK         0.0000 
@<TRIPOS>BOND
     1    1    2 1    
     2    1   35 1    
     3    1   36 1    
     4    1   37 1    
     5    2    7 ar   
     6    2    3 ar   
     7    3    4 ar   
     8    3   38 1    
     9    4    5 ar   
    10    4   39 1    
    11    5    6 ar   
    12    5    9 1    
    13    6    7 ar   
    14    6   40 1    
    15    7    8 1    
    16    8   41 1    
    17    8   42 1    
    18    8   43 1    
    19    9   10 2    
    20    9   11 2    
    21    9   12 1    
    22   12   13 1    
    23   12   44 1    
    24   13   18 ar   
    25   13   14 ar   
    26   14   15 ar   
    27   14   45 1    
    28   15   16 ar   
    29   15   46 1    
    30   16   17 ar   
    31   16   19 1    
    32   17   18 ar   
    33   17   47 1    
    34   18   48 1    
    35   19   20 2    
    36   19   21 am   BACKBONE|DICT|INTERRES
    37   21   22 1    
    38   21   49 1    
    39   22   23 1    
    40   22   24 1    
    41   22   25 1    
    42   24   50 1    
    43   24   51 1    
    44   24   52 1    
    45   25   30 ar   
    46   25   26 ar   
    47   26   27 ar   
    48   26   53 1    
    49   27   28 ar   
    50   27   54 1    
    51   28   34 1    
    52   28   29 ar   
    53   29   30 ar   
    54   29   31 1    
    55   30   55 1    
    56   31   32 1    
    57   32   33 1    
    58   32   56 1    
    59   32   57 1    
    60   33   34 1    
    61   33   58 1    
    62   33   59 1    
@<TRIPOS>SUBSTRUCTURE
     1 UNK         1 GROUP             0       ****    0 ROOT    
