@<TRIPOS>MOLECULE
ZINC21565977_1432
51   53    1
SMALL
USER_CHARGES


@<TRIPOS>ATOM
      1 C1          6.5438   54.4071   24.2902 C.3       1 UNK         0.0000 
      2 C2          5.4466   54.3050   25.3327 C.ar      1 UNK         0.0000 
      3 C3          4.1121   54.1686   24.9441 C.ar      1 UNK         0.0000 
      4 C4          3.1047   54.0965   25.9065 C.ar      1 UNK         0.0000 
      5 C5          3.4203   54.1680   27.2656 C.ar      1 UNK         0.0000 
      6 C6          4.7644   54.2948   27.6647 C.ar      1 UNK         0.0000 
      7 C7          5.7675   54.3592   26.6913 C.ar      1 UNK         0.0000 
      8 C8          5.1595   54.3699   29.1336 C.3       1 UNK         0.0000 
      9 N9          2.3718   54.1834   28.2082 N.pl3     1 UNK         0.0000 
     10 C10         1.5047   53.1851   28.6201 C.ar      1 UNK         0.0000 
     11 N11         0.7245   53.6572   29.5658 N.2       1 UNK         0.0000 
     12 N12         1.1037   54.9789   29.7592 N.2       1 UNK         0.0000 
     13 N13         2.1127   55.3103   28.8839 N.2       1 UNK         0.0000 
     14 S14         1.5045   51.4974   28.0826 S.3       1 UNK         0.0000 
     15 C15        -0.0947   51.2317   27.2223 C.3       1 UNK         0.0000 
     16 H16        -0.3944   50.2244   27.4926 H         1 UNK         0.0000 
     17 C17        -1.2736   52.0966   27.7082 C.3       1 UNK         0.0000 
     18 C18         0.1038   51.3407   25.6905 C.2       1 UNK         0.0000 
     19 O19         0.1395   52.4767   25.2061 O.2       1 UNK         0.0000 
     20 N20         0.4173   50.2378   24.9483 N.am      1 UNK         0.0000 
     21 C21         0.7583   50.3980   23.5212 C.3       1 UNK         0.0000 
     22 C22        -0.5504   50.2383   22.7146 C.3       1 UNK         0.0000 
     23 C23        -1.2414   48.8857   22.9935 C.3       1 UNK         0.0000 
     24 C24        -1.3791   48.6439   24.5242 C.3       1 UNK         0.0000 
     25 H25        -2.1231   49.3418   24.9160 H         1 UNK         0.0000 
     26 C26        -0.0323   48.8650   25.2725 C.3       1 UNK         0.0000 
     27 C27        -1.9603   47.2491   24.8336 C.2       1 UNK         0.0000 
     28 O28        -2.0945   46.3823   23.9722 O.2       1 UNK         0.0000 
     29 N29        -2.3504   47.0155   26.0818 N.am      1 UNK         0.0000 
     30 H30         7.1675   55.2821   24.4853 H         1 UNK         0.0000 
     31 H31         7.1893   53.5276   24.3265 H         1 UNK         0.0000 
     32 H32         6.1401   54.5078   23.2805 H         1 UNK         0.0000 
     33 H33         3.8455   54.1280   23.8976 H         1 UNK         0.0000 
     34 H34         2.0776   54.0184   25.5854 H         1 UNK         0.0000 
     35 H35         6.8006   54.4574   26.9911 H         1 UNK         0.0000 
     36 H36         6.2385   54.3116   29.2807 H         1 UNK         0.0000 
     37 H37         4.8079   55.2966   29.5835 H         1 UNK         0.0000 
     38 H38         4.7099   53.5421   29.6823 H         1 UNK         0.0000 
     39 H39        -2.2013   51.8327   27.2012 H         1 UNK         0.0000 
     40 H40        -1.4379   51.9593   28.7774 H         1 UNK         0.0000 
     41 H41        -1.0887   53.1562   27.5331 H         1 UNK         0.0000 
     42 H42         1.4640   49.6050   23.2707 H         1 UNK         0.0000 
     43 H43         1.3197   51.3121   23.3207 H         1 UNK         0.0000 
     44 H44        -0.3339   50.3300   21.6491 H         1 UNK         0.0000 
     45 H45        -1.2256   51.0640   22.9465 H         1 UNK         0.0000 
     46 H46        -0.5882   48.1333   22.5485 H         1 UNK         0.0000 
     47 H47        -2.2133   48.9029   22.4991 H         1 UNK         0.0000 
     48 H48        -0.0352   48.6331   26.3375 H         1 UNK         0.0000 
     49 H49         0.7203   48.1755   24.8852 H         1 UNK         0.0000 
     50 H50        -2.7705   46.1354   26.3255 H         1 UNK         0.0000 
     51 H51        -2.0953   47.6551   26.8359 H         1 UNK         0.0000 
@<TRIPOS>BOND
     1    1    2 1    
     2    1   30 1    
     3    1   31 1    
     4    1   32 1    
     5    2    7 ar   
     6    2    3 ar   
     7    3    4 ar   
     8    3   33 1    
     9    4    5 ar   
    10    4   34 1    
    11    5    6 ar   
    12    5    9 1    
    13    6    7 ar   
    14    6    8 1    
    15    7   35 1    
    16    8   36 1    
    17    8   37 1    
    18    8   38 1    
    19    9   13 ar   
    20    9   10 ar   
    21   10   11 ar   
    22   10   14 1    
    23   11   12 ar   
    24   12   13 ar   
    25   14   15 1    
    26   15   16 1    
    27   15   17 1    
    28   15   18 1    
    29   17   39 1    
    30   17   40 1    
    31   17   41 1    
    32   18   19 2    
    33   18   20 am   BACKBONE|DICT|INTERRES
    34   20   26 1    
    35   20   21 1    
    36   21   22 1    
    37   21   42 1    
    38   21   43 1    
    39   22   23 1    
    40   22   44 1    
    41   22   45 1    
    42   23   24 1    
    43   23   46 1    
    44   23   47 1    
    45   24   25 1    
    46   24   26 1    
    47   24   27 1    
    48   26   48 1    
    49   26   49 1    
    50   27   28 2    
    51   27   29 am   BACKBONE|DICT|INTERRES
    52   29   50 1    
    53   29   51 1    
@<TRIPOS>SUBSTRUCTURE
     1 UNK         1 GROUP             0       ****    0 ROOT    
