@<TRIPOS>MOLECULE
ZINC28308631_5200
58   60    1
SMALL
USER_CHARGES


@<TRIPOS>ATOM
      1 C1         -2.3030   51.4695   23.0420 C.3       1 UNK         0.0000 
      2 C2         -1.5956   50.6460   24.1345 C.3       1 UNK         0.0000 
      3 N3         -0.5778   51.3883   24.8875 N.pl3     1 UNK         0.0000 
      4 C4         -0.0958   50.6468   26.0606 C.3       1 UNK         0.0000 
      5 C5          0.7026   51.5022   27.0580 C.3       1 UNK         0.0000 
      6 C6          0.4553   51.8953   24.0703 C.ar      1 UNK         0.0000 
      7 C7          0.5857   53.2787   23.9537 C.ar      1 UNK         0.0000 
      8 C8          1.5733   53.8255   23.1413 C.ar      1 UNK         0.0000 
      9 C9          2.4428   52.9898   22.4410 C.ar      1 UNK         0.0000 
     10 C10         2.3040   51.6043   22.5348 C.ar      1 UNK         0.0000 
     11 C11         1.3232   51.0568   23.3584 C.ar      1 UNK         0.0000 
     12 C12         3.4638   53.5534   21.5411 C.2       1 UNK         0.0000 
     13 C13         4.7455   53.9309   21.8021 C.2       1 UNK         0.0000 
     14 C14         5.3642   53.8830   23.1402 C.2       1 UNK         0.0000 
     15 O15         6.5751   53.6964   23.2814 O.2       1 UNK         0.0000 
     16 N16         4.5275   54.0998   24.1781 N.am      1 UNK         0.0000 
     17 C17         4.7950   54.1732   25.5578 C.ar      1 UNK         0.0000 
     18 C18         3.6799   54.0976   26.3957 C.ar      1 UNK         0.0000 
     19 C19         3.8353   54.1564   27.7776 C.ar      1 UNK         0.0000 
     20 C20         5.1089   54.3017   28.3218 C.ar      1 UNK         0.0000 
     21 C21         6.2276   54.3841   27.4975 C.ar      1 UNK         0.0000 
     22 C22         6.0750   54.3287   26.1143 C.ar      1 UNK         0.0000 
     23 N23         5.5066   54.2946   20.7159 N.am      1 UNK         0.0000 
     24 C24         6.3856   55.3190   20.5944 C.2       1 UNK         0.0000 
     25 O25         6.6942   56.0967   21.4993 O.2       1 UNK         0.0000 
     26 C26         7.0838   55.4094   19.2616 C.ar      1 UNK         0.0000 
     27 C27         8.4372   55.7705   19.2234 C.ar      1 UNK         0.0000 
     28 C28         9.1123   55.8415   18.0091 C.ar      1 UNK         0.0000 
     29 C29         8.4344   55.5651   16.8247 C.ar      1 UNK         0.0000 
     30 C30         7.0865   55.2147   16.8464 C.ar      1 UNK         0.0000 
     31 C31         6.4097   55.1344   18.0616 C.ar      1 UNK         0.0000 
     32 Br32        9.3566   55.6692   15.1633 Br        1 UNK         0.0000 
     33 H33        -3.0916   50.8819   22.5733 H         1 UNK         0.0000 
     34 H34        -2.7615   52.3669   23.4580 H         1 UNK         0.0000 
     35 H35        -1.6150   51.7766   22.2539 H         1 UNK         0.0000 
     36 H36        -1.1503   49.7578   23.6843 H         1 UNK         0.0000 
     37 H37        -2.3559   50.2867   24.8296 H         1 UNK         0.0000 
     38 H38        -0.9473   50.2188   26.5926 H         1 UNK         0.0000 
     39 H39         0.5178   49.8024   25.7432 H         1 UNK         0.0000 
     40 H40         1.0107   50.9027   27.9155 H         1 UNK         0.0000 
     41 H41         1.6026   51.9202   26.6104 H         1 UNK         0.0000 
     42 H42         0.1001   52.3276   27.4348 H         1 UNK         0.0000 
     43 H43        -0.0944   53.9264   24.4817 H         1 UNK         0.0000 
     44 H44         1.6526   54.8965   23.0448 H         1 UNK         0.0000 
     45 H45         2.9605   50.9482   21.9804 H         1 UNK         0.0000 
     46 H46         1.2314   49.9835   23.4358 H         1 UNK         0.0000 
     47 H47         3.1108   53.6354   20.5204 H         1 UNK         0.0000 
     48 H48         3.5489   54.1302   23.9341 H         1 UNK         0.0000 
     49 H49         2.6877   53.9834   25.9835 H         1 UNK         0.0000 
     50 H50         2.9721   54.0932   28.4235 H         1 UNK         0.0000 
     51 H51         5.2309   54.3572   29.3930 H         1 UNK         0.0000 
     52 H52         7.2093   54.4982   27.9340 H         1 UNK         0.0000 
     53 H53         6.9583   54.4101   25.5016 H         1 UNK         0.0000 
     54 H54         5.2209   53.8840   19.8397 H         1 UNK         0.0000 
     55 H55         8.9820   55.9804   20.1352 H         1 UNK         0.0000 
     56 H56        10.1595   56.1063   17.9888 H         1 UNK         0.0000 
     57 H57         6.5674   55.0061   15.9222 H         1 UNK         0.0000 
     58 H58         5.3616   54.8675   18.0509 H         1 UNK         0.0000 
@<TRIPOS>BOND
     1    1    2 1    
     2    1   33 1    
     3    1   34 1    
     4    1   35 1    
     5    2    3 1    
     6    2   36 1    
     7    2   37 1    
     8    3    4 1    
     9    3    6 1    
    10    4    5 1    
    11    4   38 1    
    12    4   39 1    
    13    5   40 1    
    14    5   41 1    
    15    5   42 1    
    16    6   11 ar   
    17    6    7 ar   
    18    7    8 ar   
    19    7   43 1    
    20    8    9 ar   
    21    8   44 1    
    22    9   10 ar   
    23    9   12 1    
    24   10   11 ar   
    25   10   45 1    
    26   11   46 1    
    27   12   13 2    
    28   12   47 1    
    29   13   14 1    
    30   13   23 1    
    31   14   15 2    
    32   14   16 am   BACKBONE|DICT|INTERRES
    33   16   17 1    
    34   16   48 1    
    35   17   22 ar   
    36   17   18 ar   
    37   18   19 ar   
    38   18   49 1    
    39   19   20 ar   
    40   19   50 1    
    41   20   21 ar   
    42   20   51 1    
    43   21   22 ar   
    44   21   52 1    
    45   22   53 1    
    46   23   24 am   BACKBONE|DICT|INTERRES
    47   23   54 1    
    48   24   25 2    
    49   24   26 1    
    50   26   31 ar   
    51   26   27 ar   
    52   27   28 ar   
    53   27   55 1    
    54   28   29 ar   
    55   28   56 1    
    56   29   30 ar   
    57   29   32 1    
    58   30   31 ar   
    59   30   57 1    
    60   31   58 1    
@<TRIPOS>SUBSTRUCTURE
     1 UNK         1 GROUP             0       ****    0 ROOT    
