@<TRIPOS>MOLECULE
ZINC20800105_1431
53   55    1
SMALL
USER_CHARGES


@<TRIPOS>ATOM
      1 C1          4.1950   57.1230   17.2157 C.3       1 UNK         0.0000 
      2 C2          3.5679   55.7662   16.9194 C.ar      1 UNK         0.0000 
      3 C3          2.7994   55.6384   15.7589 C.ar      1 UNK         0.0000 
      4 C4          2.1155   54.4557   15.4851 C.ar      1 UNK         0.0000 
      5 C5          2.2070   53.3656   16.3512 C.ar      1 UNK         0.0000 
      6 C6          2.9817   53.4832   17.5115 C.ar      1 UNK         0.0000 
      7 C7          3.6613   54.6689   17.8022 C.ar      1 UNK         0.0000 
      8 N8          4.3039   54.7216   19.0458 N.am      1 UNK         0.0000 
      9 C9          5.6016   55.0342   19.2806 C.2       1 UNK         0.0000 
     10 O10         6.4242   55.2600   18.3891 O.2       1 UNK         0.0000 
     11 C11         5.9759   55.1557   20.7227 C.2       1 UNK         0.0000 
     12 O12         6.8664   55.9351   21.0765 O.2       1 UNK         0.0000 
     13 N13         5.2731   54.3622   21.5757 N.am      1 UNK         0.0000 
     14 C14         5.3599   54.3310   22.9758 C.ar      1 UNK         0.0000 
     15 C15         4.1818   54.0985   23.6842 C.ar      1 UNK         0.0000 
     16 C16         4.1941   54.0969   25.0779 C.ar      1 UNK         0.0000 
     17 C17         5.3877   54.2827   25.7962 C.ar      1 UNK         0.0000 
     18 C18         6.5633   54.4956   25.0607 C.ar      1 UNK         0.0000 
     19 C19         6.5593   54.5189   23.6699 C.ar      1 UNK         0.0000 
     20 N20         5.4099   54.2563   27.2199 N.pl3     1 UNK         0.0000 
     21 C21         6.6854   54.0946   27.9219 C.3       1 UNK         0.0000 
     22 C22         4.2190   53.8281   27.9552 C.3       1 UNK         0.0000 
     23 N23         1.4210   52.2311   16.0820 N.pl3     1 UNK         0.0000 
     24 C24         1.9917   50.9051   16.3005 C.3       1 UNK         0.0000 
     25 C25         1.5477   50.3698   17.6833 C.3       1 UNK         0.0000 
     26 C26         0.4058   51.2486   18.2353 C.3       1 UNK         0.0000 
     27 S27        -0.2318   52.1488   16.7210 S.o2      1 UNK         0.0000 
     28 O28        -0.7538   53.4682   17.0961 O.2       1 UNK         0.0000 
     29 O29        -1.0554   51.1880   15.9782 O.2       1 UNK         0.0000 
     30 H30         5.1975   57.1848   16.7889 H         1 UNK         0.0000 
     31 H31         3.5924   57.9402   16.8135 H         1 UNK         0.0000 
     32 H32         4.2562   57.2949   18.2879 H         1 UNK         0.0000 
     33 H33         2.7030   56.4724   15.0784 H         1 UNK         0.0000 
     34 H34         1.5011   54.3921   14.5978 H         1 UNK         0.0000 
     35 H35         3.0371   52.6578   18.2055 H         1 UNK         0.0000 
     36 H36         3.6890   54.5395   19.8234 H         1 UNK         0.0000 
     37 H37         4.5639   53.7626   21.1857 H         1 UNK         0.0000 
     38 H38         3.2458   53.9500   23.1638 H         1 UNK         0.0000 
     39 H39         3.2572   53.9257   25.5833 H         1 UNK         0.0000 
     40 H40         7.5050   54.6431   25.5547 H         1 UNK         0.0000 
     41 H41         7.4911   54.6812   23.1459 H         1 UNK         0.0000 
     42 H42         7.3836   54.8944   27.6774 H         1 UNK         0.0000 
     43 H43         6.5604   54.0928   29.0050 H         1 UNK         0.0000 
     44 H44         7.1505   53.1494   27.6404 H         1 UNK         0.0000 
     45 H45         3.9930   52.7832   27.7335 H         1 UNK         0.0000 
     46 H46         4.3505   53.9238   29.0336 H         1 UNK         0.0000 
     47 H47         3.3463   54.4203   27.6771 H         1 UNK         0.0000 
     48 H48         3.0850   50.9533   16.3269 H         1 UNK         0.0000 
     49 H49         1.8277   50.2028   15.4833 H         1 UNK         0.0000 
     50 H50         1.2319   49.3311   17.5771 H         1 UNK         0.0000 
     51 H51         2.3927   50.3398   18.3740 H         1 UNK         0.0000 
     52 H52        -0.4103   50.6690   18.6642 H         1 UNK         0.0000 
     53 H53         0.7378   51.9864   18.9648 H         1 UNK         0.0000 
@<TRIPOS>BOND
     1    1    2 1    
     2    1   30 1    
     3    1   31 1    
     4    1   32 1    
     5    2    7 ar   
     6    2    3 ar   
     7    3    4 ar   
     8    3   33 1    
     9    4    5 ar   
    10    4   34 1    
    11    5    6 ar   
    12    5   23 1    
    13    6    7 ar   
    14    6   35 1    
    15    7    8 1    
    16    8    9 am   BACKBONE|DICT|INTERRES
    17    8   36 1    
    18    9   10 2    
    19    9   11 1    
    20   11   12 2    
    21   11   13 am   BACKBONE|DICT|INTERRES
    22   13   14 1    
    23   13   37 1    
    24   14   19 ar   
    25   14   15 ar   
    26   15   16 ar   
    27   15   38 1    
    28   16   17 ar   
    29   16   39 1    
    30   17   18 ar   
    31   17   20 1    
    32   18   19 ar   
    33   18   40 1    
    34   19   41 1    
    35   20   21 1    
    36   20   22 1    
    37   21   42 1    
    38   21   43 1    
    39   21   44 1    
    40   22   45 1    
    41   22   46 1    
    42   22   47 1    
    43   23   27 1    
    44   23   24 1    
    45   24   25 1    
    46   24   48 1    
    47   24   49 1    
    48   25   26 1    
    49   25   50 1    
    50   25   51 1    
    51   26   27 1    
    52   26   52 1    
    53   26   53 1    
    54   27   28 2    
    55   27   29 2    
@<TRIPOS>SUBSTRUCTURE
     1 UNK         1 GROUP             0       ****    0 ROOT    
