@<TRIPOS>MOLECULE
ZINC63062011_4712
31   32    1
SMALL
USER_CHARGES


@<TRIPOS>ATOM
      1 C1          6.6224   54.1788   23.9364 C.3       1 UNK         0.0000 
      2 C2          5.4857   54.2756   24.9407 C.ar      1 UNK         0.0000 
      3 C3          5.7671   54.2964   26.3127 C.ar      1 UNK         0.0000 
      4 C4          4.7296   54.3904   27.2402 C.ar      1 UNK         0.0000 
      5 C5          3.4085   54.4362   26.8048 C.ar      1 UNK         0.0000 
      6 C6          3.1234   54.4198   25.4409 C.ar      1 UNK         0.0000 
      7 C7          4.1540   54.3482   24.5013 C.ar      1 UNK         0.0000 
      8 O8          3.8658   54.4217   23.1578 O.3       1 UNK         0.0000 
      9 C9          3.4387   53.2951   22.4977 C.ar      1 UNK         0.0000 
     10 C10         2.3047   52.5705   22.8773 C.ar      1 UNK         0.0000 
     11 C11         1.9454   51.4519   22.1274 C.ar      1 UNK         0.0000 
     12 C12         2.6974   51.0622   21.0038 C.ar      1 UNK         0.0000 
     13 C13         3.8134   51.8684   20.6993 C.ar      1 UNK         0.0000 
     14 N14         4.1817   52.9613   21.4152 N.ar      1 UNK         0.0000 
     15 C15         2.3031   49.8759   20.2001 C.2       1 UNK         0.0000 
     16 N16         1.6427   48.9382   20.7641 N.2       1 UNK         0.0000 
     17 O17         1.3423   47.8483   19.9195 O.3       1 UNK         0.0000 
     18 N18         2.7044   49.9878   18.8817 N.pl3     1 UNK         0.0000 
     19 Br19        5.1044   54.4971   29.1015 Br        1 UNK         0.0000 
     20 H20         7.5930   54.0922   24.4229 H         1 UNK         0.0000 
     21 H21         6.4858   53.3046   23.2978 H         1 UNK         0.0000 
     22 H22         6.6332   55.0571   23.2903 H         1 UNK         0.0000 
     23 H23         6.7868   54.2503   26.6658 H         1 UNK         0.0000 
     24 H24         2.6052   54.5107   27.5227 H         1 UNK         0.0000 
     25 H25         2.0994   54.4966   25.1114 H         1 UNK         0.0000 
     26 H26         1.7068   52.8555   23.7267 H         1 UNK         0.0000 
     27 H27         1.0694   50.8926   22.4258 H         1 UNK         0.0000 
     28 H28         4.4493   51.6638   19.8493 H         1 UNK         0.0000 
     29 H29         1.7786   48.0956   19.1024 H         1 UNK         0.0000 
     30 H30         2.4840   49.3034   18.1746 H         1 UNK         0.0000 
     31 H31         3.5593   50.4972   18.6642 H         1 UNK         0.0000 
@<TRIPOS>BOND
     1    1    2 1    
     2    1   20 1    
     3    1   21 1    
     4    1   22 1    
     5    2    7 ar   
     6    2    3 ar   
     7    3    4 ar   
     8    3   23 1    
     9    4    5 ar   
    10    4   19 1    
    11    5    6 ar   
    12    5   24 1    
    13    6    7 ar   
    14    6   25 1    
    15    7    8 1    
    16    8    9 1    
    17    9   14 ar   
    18    9   10 ar   
    19   10   11 ar   
    20   10   26 1    
    21   11   12 ar   
    22   11   27 1    
    23   12   13 ar   
    24   12   15 1    
    25   13   14 ar   
    26   13   28 1    
    27   15   16 2    
    28   15   18 1    
    29   16   17 1    
    30   17   29 1    
    31   18   30 1    
    32   18   31 1    
@<TRIPOS>SUBSTRUCTURE
     1 UNK         1 GROUP             0       ****    0 ROOT    
