ZINC27550437_688
                    3D
 Schrodinger Suite 2024-2.
 51 54  0  0  1  0            999 V2000
   -3.5427   50.6733   22.8684 C   0  0  0  0  0  0
   -2.3307   51.5553   22.5373 C   0  0  0  0  0  0
   -1.8756   52.8969   23.6816 S   0  0  0  0  0  0
   -2.4100   52.2729   25.2345 C   0  0  0  0  0  0
   -1.6555   51.6121   26.2217 C   0  0  0  0  0  0
   -2.4791   51.2967   27.3184 C   0  0  0  0  0  0
   -3.7967   51.6962   27.1888 C   0  0  0  0  0  0
   -4.0615   52.5347   25.7101 S   0  0  0  0  0  0
   -0.1617   51.2491   26.1908 C   0  0  2  0  0  0
   -0.0410   50.4451   26.9231 H   0  0  0  0  0  0
    0.7123   52.3846   26.6918 C   0  0  0  0  0  0
    1.6132   53.0074   25.9007 C   0  0  0  0  0  0
    1.9044   52.5791   24.5778 N   0  0  0  0  0  0
    1.2964   51.3727   24.0878 C   0  0  0  0  0  0
    0.3867   50.6903   24.8603 C   0  0  0  0  0  0
   -0.1827   49.3842   24.4631 C   0  0  0  0  0  0
   -1.1196   48.8551   25.0594 O   0  0  0  0  0  0
    0.3091   48.7593   23.1667 C   0  0  0  0  0  0
    1.6953   49.2373   22.7136 C   0  0  0  0  0  0
    1.7810   50.7335   22.7464 C   0  0  0  0  0  0
    2.8684   53.2967   23.7727 C   0  0  0  0  0  0
    4.1205   53.6967   24.2953 C   0  0  0  0  0  0
    5.1276   54.2377   23.5041 C   0  0  0  0  0  0
    4.9216   54.4328   22.1385 C   0  0  0  0  0  0
    3.6712   54.0968   21.6112 C   0  0  0  0  0  0
    2.6412   53.5964   22.4167 C   0  0  0  0  0  0
    1.1044   53.3007   21.6817 Cl  0  0  0  0  0  0
    5.9884   55.0039   21.2801 N   0  3  0  0  0  0
    7.0386   55.3580   21.8090 O   0  0  0  0  0  0
    5.7778   55.1145   20.0768 O   0  5  0  0  0  0
    2.2910   54.0967   26.4032 N   0  0  0  0  0  0
    0.4622   52.8555   28.0219 C   0  0  0  0  0  0
    0.2897   53.2725   29.0875 N   0  0  0  0  0  0
   -3.7217   49.9470   22.0756 H   0  0  0  0  0  0
   -3.3881   50.1131   23.7912 H   0  0  0  0  0  0
   -4.4482   51.2695   22.9805 H   0  0  0  0  0  0
   -2.4953   52.0210   21.5660 H   0  0  0  0  0  0
   -1.4500   50.9347   22.4004 H   0  0  0  0  0  0
   -2.1128   50.7852   28.1962 H   0  0  0  0  0  0
   -4.6023   51.5537   27.8936 H   0  0  0  0  0  0
   -0.4121   49.0367   22.4002 H   0  0  0  0  0  0
    0.2302   47.6967   23.3015 H   0  0  0  0  0  0
    1.8876   48.8743   21.7021 H   0  0  0  0  0  0
    2.5287   48.8967   23.2817 H   0  0  0  0  0  0
    1.1582   50.9612   21.8912 H   0  0  0  0  0  0
    2.8264   50.9485   22.5251 H   0  0  0  0  0  0
    4.3816   53.4869   25.3217 H   0  0  0  0  0  0
    6.0789   54.4797   23.9579 H   0  0  0  0  0  0
    3.5045   54.2373   20.5535 H   0  0  0  0  0  0
    2.1246   54.3946   27.3542 H   0  0  0  0  0  0
    2.6870   54.7804   25.7757 H   0  0  0  0  0  0
  1  2  1  0  0  0
  1 34  1  0  0  0
  1 35  1  0  0  0
  1 36  1  0  0  0
  2  3  1  0  0  0
  2 37  1  0  0  0
  2 38  1  0  0  0
  3  4  1  0  0  0
  4  8  1  0  0  0
  4  5  2  0  0  0
  5  6  1  0  0  0
  5  9  1  0  0  0
  6  7  2  0  0  0
  6 39  1  0  0  0
  7  8  1  0  0  0
  7 40  1  0  0  0
  9 10  1  0  0  0
  9 15  1  0  0  0
  9 11  1  0  0  0
 11 12  2  0  0  0
 11 32  1  0  0  0
 12 13  1  0  0  0
 12 31  1  0  0  0
 13 14  1  0  0  0
 13 21  1  0  0  0
 14 20  1  0  0  0
 14 15  2  0  0  0
 15 16  1  0  0  0
 16 17  2  0  0  0
 16 18  1  0  0  0
 18 19  1  0  0  0
 18 41  1  0  0  0
 18 42  1  0  0  0
 19 20  1  0  0  0
 19 43  1  0  0  0
 19 44  1  0  0  0
 20 45  1  0  0  0
 20 46  1  0  0  0
 21 26  2  0  0  0
 21 22  1  0  0  0
 22 23  2  0  0  0
 22 47  1  0  0  0
 23 24  1  0  0  0
 23 48  1  0  0  0
 24 25  2  0  0  0
 24 28  1  0  0  0
 25 26  1  0  0  0
 25 49  1  0  0  0
 26 27  1  0  0  0
 28 29  2  0  0  0
 28 30  1  0  0  0
 31 50  1  0  0  0
 31 51  1  0  0  0
 32 33  3  0  0  0
M  CHG  2  28   1  30  -1
M  END
> <i_i_glide_confnum>
8

> <i_i_glide_lignum>
689

> <i_i_glide_posenum>
132

> <i_i_glide_rotatable_bonds>
6

> <i_m_Source_File_Index>
781

> <b_m_subgroup_collapsed>
0

> <r_i_docking_score>
-3.54825

> <r_i_glide_ecoul>
-1.1062

> <r_i_glide_eff_state_penalty>
0

> <r_i_glide_einternal>
14.683

> <r_i_glide_emodel>
-29.2205

> <r_i_glide_energy>
-29.833

> <r_i_glide_erotb>
0.257115

> <r_i_glide_esite>
-0.0234282

> <r_i_glide_evdw>
-28.7268

> <r_i_glide_gscore>
-3.54825

> <r_i_glide_hbond>
0

> <r_i_glide_ligand_efficiency>
-0.110883

> <r_i_glide_ligand_efficiency_ln>
-0.794549

> <r_i_glide_ligand_efficiency_sa>
-0.352031

> <r_i_glide_lipo>
-1.45313

> <r_i_glide_metal>
0

> <r_i_glide_rewards>
-0.726533

> <s_i_glide_gridfile>
wee1_glide-grid

> <s_m_Source_File>
wee1_decoys_glide_SP.sdf

> <s_m_Source_Path>
/Users/zhangxujun/Desktop

> <s_m_entry_id>
1056

> <s_m_entry_name>
wee1_decoys_glide_SP.781

> <s_m_subgroup_title>
wee1_decoys_glide_SP

> <s_m_subgroupid>
wee1_decoys_glide_SP


$$$$
