@<TRIPOS>MOLECULE
ZINC05010614_4815
38   41    1
SMALL
USER_CHARGES


@<TRIPOS>ATOM
      1 C1          5.1075   54.1943   20.1940 C.ar      1 UNK         0.0000 
      2 C2          6.3021   54.9189   20.2110 C.ar      1 UNK         0.0000 
      3 C3          6.9091   55.2967   21.4121 C.ar      1 UNK         0.0000 
      4 C4          6.2741   54.9214   22.6031 C.ar      1 UNK         0.0000 
      5 C5          5.0472   54.2063   22.5969 C.ar      1 UNK         0.0000 
      6 C6          4.4635   53.8299   21.3780 C.ar      1 UNK         0.0000 
      7 N7          4.5111   53.9731   23.8249 N.2       1 UNK         0.0000 
      8 C8          5.2553   54.4524   24.7884 C.2       1 UNK         0.0000 
      9 S9          6.7044   55.2834   24.2628 S.3       1 UNK         0.0000 
     10 C10         4.9149   54.3178   26.2190 C.ar      1 UNK         0.0000 
     11 C11         5.7893   54.4987   27.3072 C.ar      1 UNK         0.0000 
     12 C12         5.0707   54.2717   28.4559 C.ar      1 UNK         0.0000 
     13 N13         3.7820   53.9182   28.1475 N.pl3     1 UNK         0.0000 
     14 C14         3.6698   53.9686   26.7649 C.ar      1 UNK         0.0000 
     15 N15         2.4835   53.6964   26.1347 N.pl3     1 UNK         0.0000 
     16 C16         2.7676   53.5608   29.1524 C.3       1 UNK         0.0000 
     17 C17         1.5841   54.5413   29.2442 C.3       1 UNK         0.0000 
     18 C18         0.4277   53.6666   29.7348 C.3       1 UNK         0.0000 
     19 C19         0.6361   52.3330   29.0162 C.3       1 UNK         0.0000 
     20 C20         2.1577   52.1526   28.9534 C.3       1 UNK         0.0000 
     21 O21         7.1042   54.8683   27.2820 O.3       1 UNK         0.0000 
     22 H22         4.6696   53.9168   19.2449 H         1 UNK         0.0000 
     23 H23         6.7666   55.1869   19.2720 H         1 UNK         0.0000 
     24 H24         7.8352   55.8547   21.4232 H         1 UNK         0.0000 
     25 H25         3.5293   53.2879   21.3513 H         1 UNK         0.0000 
     26 H26         5.3862   54.3289   29.4858 H         1 UNK         0.0000 
     27 H27         2.4285   53.6898   25.1258 H         1 UNK         0.0000 
     28 H28         1.6597   53.4092   26.6447 H         1 UNK         0.0000 
     29 H29         3.2902   53.5453   30.1110 H         1 UNK         0.0000 
     30 H30         1.7821   55.3754   29.9180 H         1 UNK         0.0000 
     31 H31         1.3206   54.9524   28.2676 H         1 UNK         0.0000 
     32 H32         0.4859   53.5253   30.8159 H         1 UNK         0.0000 
     33 H33        -0.5474   54.0969   29.5140 H         1 UNK         0.0000 
     34 H34         0.1379   51.5065   29.5274 H         1 UNK         0.0000 
     35 H35         0.2223   52.3835   28.0072 H         1 UNK         0.0000 
     36 H36         2.4607   51.6705   28.0223 H         1 UNK         0.0000 
     37 H37         2.4829   51.4945   29.7583 H         1 UNK         0.0000 
     38 H38         7.2917   55.4269   28.0463 H         1 UNK         0.0000 
@<TRIPOS>BOND
     1    1    6 ar   
     2    1    2 ar   
     3    1   22 1    
     4    2    3 ar   
     5    2   23 1    
     6    3    4 ar   
     7    3   24 1    
     8    4    9 1    
     9    4    5 ar   
    10    5    6 ar   
    11    5    7 1    
    12    6   25 1    
    13    7    8 2    
    14    8    9 1    
    15    8   10 1    
    16   10   14 ar   
    17   10   11 ar   
    18   11   12 ar   
    19   11   21 1    
    20   12   13 ar   
    21   12   26 1    
    22   13   14 ar   
    23   13   16 1    
    24   14   15 1    
    25   15   27 1    
    26   15   28 1    
    27   16   20 1    
    28   16   17 1    
    29   16   29 1    
    30   17   18 1    
    31   17   30 1    
    32   17   31 1    
    33   18   19 1    
    34   18   32 1    
    35   18   33 1    
    36   19   20 1    
    37   19   34 1    
    38   19   35 1    
    39   20   36 1    
    40   20   37 1    
    41   21   38 1    
@<TRIPOS>SUBSTRUCTURE
     1 UNK         1 GROUP             0       ****    0 ROOT    
