@<TRIPOS>MOLECULE
ZINC35890752_1133
61   64    1
SMALL
USER_CHARGES


@<TRIPOS>ATOM
      1 C1          6.3535   55.2050   19.1603 C.3       1 UNK         0.0000 
      2 C2          6.0554   54.9387   20.6254 C.ar      1 UNK         0.0000 
      3 C3          4.8518   54.3410   20.9921 C.ar      1 UNK         0.0000 
      4 C4          4.5795   54.0966   22.3355 C.ar      1 UNK         0.0000 
      5 C5          5.4986   54.4463   23.3405 C.ar      1 UNK         0.0000 
      6 C6          6.7044   55.0455   22.9461 C.ar      1 UNK         0.0000 
      7 C7          6.9815   55.2965   21.6056 C.ar      1 UNK         0.0000 
      8 C8          5.1766   54.2115   24.7848 C.ar      1 UNK         0.0000 
      9 N9          6.1549   54.2996   25.7028 N.pl3     1 UNK         0.0000 
     10 C10         5.9301   54.0820   27.0123 C.ar      1 UNK         0.0000 
     11 C11         4.6332   53.7489   27.4444 C.ar      1 UNK         0.0000 
     12 C12         3.6110   53.6983   26.4591 C.ar      1 UNK         0.0000 
     13 N13         3.9024   53.9120   25.1431 N.ar      1 UNK         0.0000 
     14 N14         2.2694   53.4094   26.7234 N.pl3     1 UNK         0.0000 
     15 C15         1.5628   53.7840   27.9548 C.3       1 UNK         0.0000 
     16 C16         0.7630   52.6353   28.5770 C.3       1 UNK         0.0000 
     17 N17        -0.1638   52.1119   27.5602 N.am      1 UNK         0.0000 
     18 C18         0.4350   51.7248   26.2642 C.3       1 UNK         0.0000 
     19 C19         1.3279   52.8685   25.7255 C.3       1 UNK         0.0000 
     20 C20        -1.3742   51.6601   27.9879 C.2       1 UNK         0.0000 
     21 O21        -1.6931   51.6962   29.1763 O.2       1 UNK         0.0000 
     22 N22        -2.2369   51.2836   27.0155 N.am      1 UNK         0.0000 
     23 C23        -3.5722   50.8266   27.1281 C.ar      1 UNK         0.0000 
     24 C24        -4.0841   50.2554   28.3101 C.ar      1 UNK         0.0000 
     25 C25        -5.4042   49.8255   28.3834 C.ar      1 UNK         0.0000 
     26 C26        -6.2363   49.9462   27.2772 C.ar      1 UNK         0.0000 
     27 C27        -5.7419   50.4871   26.0915 C.ar      1 UNK         0.0000 
     28 C28        -4.4109   50.9254   25.9956 C.ar      1 UNK         0.0000 
     29 C29        -3.8969   51.4834   24.6591 C.3       1 UNK         0.0000 
     30 F30        -3.6034   52.7774   24.7966 F         1 UNK         0.0000 
     31 F31        -2.7941   50.8364   24.2758 F         1 UNK         0.0000 
     32 F32        -4.7953   51.3588   23.6816 F         1 UNK         0.0000 
     33 C33         4.4332   53.2754   28.8904 C.3       1 UNK         0.0000 
     34 C34         7.1205   54.1136   27.9464 C.3       1 UNK         0.0000 
     35 H35         5.4465   55.5031   18.6333 H         1 UNK         0.0000 
     36 H36         7.0693   56.0201   19.0416 H         1 UNK         0.0000 
     37 H37         6.7517   54.3074   18.6812 H         1 UNK         0.0000 
     38 H38         4.1248   54.0641   20.2398 H         1 UNK         0.0000 
     39 H39         3.6359   53.6361   22.5865 H         1 UNK         0.0000 
     40 H40         7.4453   55.3476   23.6717 H         1 UNK         0.0000 
     41 H41         7.9212   55.7564   21.3347 H         1 UNK         0.0000 
     42 H42         2.2007   54.2573   28.6929 H         1 UNK         0.0000 
     43 H43         0.8768   54.5848   27.6817 H         1 UNK         0.0000 
     44 H44         0.2435   53.0401   29.4463 H         1 UNK         0.0000 
     45 H45         1.4529   51.8546   28.8991 H         1 UNK         0.0000 
     46 H46         1.0987   50.8766   26.4421 H         1 UNK         0.0000 
     47 H47        -0.2906   51.4533   25.4976 H         1 UNK         0.0000 
     48 H48         1.8639   52.5049   24.8469 H         1 UNK         0.0000 
     49 H49         0.7093   53.6963   25.3810 H         1 UNK         0.0000 
     50 H50        -1.9078   51.3676   26.0651 H         1 UNK         0.0000 
     51 H51        -3.4556   50.0974   29.1757 H         1 UNK         0.0000 
     52 H52        -5.7759   49.3825   29.2963 H         1 UNK         0.0000 
     53 H53        -7.2615   49.6120   27.3317 H         1 UNK         0.0000 
     54 H54        -6.4074   50.5554   25.2441 H         1 UNK         0.0000 
     55 H55         5.3086   52.7580   29.2788 H         1 UNK         0.0000 
     56 H56         4.2242   54.1128   29.5576 H         1 UNK         0.0000 
     57 H57         3.6454   52.5296   28.9683 H         1 UNK         0.0000 
     58 H58         6.8139   54.4838   28.9234 H         1 UNK         0.0000 
     59 H59         7.5276   53.1092   28.0666 H         1 UNK         0.0000 
     60 H60         7.9036   54.7843   27.6006 H         1 UNK         0.0000 
     61 H61         7.0939   54.4831   25.3858 H         1 UNK         0.0000 
@<TRIPOS>BOND
     1    1    2 1    
     2    1   35 1    
     3    1   36 1    
     4    1   37 1    
     5    2    7 ar   
     6    2    3 ar   
     7    3    4 ar   
     8    3   38 1    
     9    4    5 ar   
    10    4   39 1    
    11    5    6 ar   
    12    5    8 1    
    13    6    7 ar   
    14    6   40 1    
    15    7   41 1    
    16    8   13 ar   
    17    8    9 ar   
    18    9   10 ar   
    19    9   61 1    
    20   10   11 ar   
    21   10   34 1    
    22   11   12 ar   
    23   11   33 1    
    24   12   13 ar   
    25   12   14 1    
    26   14   19 1    
    27   14   15 1    
    28   15   16 1    
    29   15   42 1    
    30   15   43 1    
    31   16   17 1    
    32   16   44 1    
    33   16   45 1    
    34   17   18 1    
    35   17   20 am   BACKBONE|DICT|INTERRES
    36   18   19 1    
    37   18   46 1    
    38   18   47 1    
    39   19   48 1    
    40   19   49 1    
    41   20   21 2    
    42   20   22 am   BACKBONE|DICT|INTERRES
    43   22   23 1    
    44   22   50 1    
    45   23   28 ar   
    46   23   24 ar   
    47   24   25 ar   
    48   24   51 1    
    49   25   26 ar   
    50   25   52 1    
    51   26   27 ar   
    52   26   53 1    
    53   27   28 ar   
    54   27   54 1    
    55   28   29 1    
    56   29   30 1    
    57   29   31 1    
    58   29   32 1    
    59   33   55 1    
    60   33   56 1    
    61   33   57 1    
    62   34   58 1    
    63   34   59 1    
    64   34   60 1    
@<TRIPOS>SUBSTRUCTURE
     1 UNK         1 GROUP             0       ****    0 ROOT    
