@<TRIPOS>MOLECULE
ZINC65481675_1397
54   57    1
SMALL
USER_CHARGES


@<TRIPOS>ATOM
      1 C1          7.1046   54.0320   26.9978 C.3       1 UNK         0.0000 
      2 C2          5.5976   54.1591   27.0615 C.ar      1 UNK         0.0000 
      3 C3          4.9821   54.0844   28.3133 C.ar      1 UNK         0.0000 
      4 C4          3.6006   54.1901   28.4234 C.ar      1 UNK         0.0000 
      5 C5          2.8390   54.4420   27.2815 C.ar      1 UNK         0.0000 
      6 C6          3.4392   54.4965   26.0308 C.ar      1 UNK         0.0000 
      7 C7          4.8223   54.3460   25.9006 C.ar      1 UNK         0.0000 
      8 N8          5.4616   54.4091   24.6495 N.am      1 UNK         0.0000 
      9 C9          4.9670   54.0965   23.4272 C.2       1 UNK         0.0000 
     10 O10         3.8036   53.7243   23.2553 O.2       1 UNK         0.0000 
     11 N11         5.8480   54.2134   22.3935 N.am      1 UNK         0.0000 
     12 C12         7.2746   54.5927   22.5832 C.3       1 UNK         0.0000 
     13 C13         7.6214   55.6922   21.5608 C.3       1 UNK         0.0000 
     14 C14         7.2922   55.2860   20.1097 C.3       1 UNK         0.0000 
     15 C15         5.7851   54.9538   20.0398 C.3       1 UNK         0.0000 
     16 C16         5.4116   53.8271   21.0236 C.3       1 UNK         0.0000 
     17 C17         7.5665   56.5007   19.2029 C.2       1 UNK         0.0000 
     18 O18         6.9971   57.5705   19.4308 O.2       1 UNK         0.0000 
     19 N19         8.4553   56.3251   18.2072 N.am      1 UNK         0.0000 
     20 C20         8.9514   57.2868   17.2114 C.3       1 UNK         0.0000 
     21 C21         8.0770   58.4075   16.6838 C.3       1 UNK         0.0000 
     22 C22         9.2376   58.7221   17.6010 C.3       1 UNK         0.0000 
     23 O23         3.0098   54.0568   29.6586 O.3       1 UNK         0.0000 
     24 C24         1.8617   53.3029   29.8065 C.ar      1 UNK         0.0000 
     25 N25         1.0801   53.6770   30.8450 N.ar      1 UNK         0.0000 
     26 C26        -0.0954   53.0168   30.9685 C.ar      1 UNK         0.0000 
     27 C27        -0.4970   52.0151   30.0816 C.ar      1 UNK         0.0000 
     28 C28         0.3818   51.6968   29.0484 C.ar      1 UNK         0.0000 
     29 N29         1.5795   52.3143   28.9058 N.ar      1 UNK         0.0000 
     30 H30         7.5699   54.1142   27.9830 H         1 UNK         0.0000 
     31 H31         7.3834   53.0827   26.5433 H         1 UNK         0.0000 
     32 H32         7.5046   54.8338   26.3804 H         1 UNK         0.0000 
     33 H33         5.5671   53.9204   29.2051 H         1 UNK         0.0000 
     34 H34         1.7687   54.5615   27.3569 H         1 UNK         0.0000 
     35 H35         2.8098   54.6801   25.1750 H         1 UNK         0.0000 
     36 H36         6.4462   54.6172   24.6855 H         1 UNK         0.0000 
     37 H37         7.9198   53.7251   22.4817 H         1 UNK         0.0000 
     38 H38         7.4739   55.0535   23.5492 H         1 UNK         0.0000 
     39 H39         8.6852   55.9117   21.6804 H         1 UNK         0.0000 
     40 H40         6.9995   56.5224   21.8816 H         1 UNK         0.0000 
     41 H41         7.9267   54.4767   19.7573 H         1 UNK         0.0000 
     42 H42         5.1625   55.8021   20.3262 H         1 UNK         0.0000 
     43 H43         5.5062   54.5948   19.0460 H         1 UNK         0.0000 
     44 H44         5.9039   52.9019   20.7302 H         1 UNK         0.0000 
     45 H45         4.3320   53.6834   20.9484 H         1 UNK         0.0000 
     46 H46         8.8569   55.4043   18.1272 H         1 UNK         0.0000 
     47 H47         9.6358   56.8218   16.4997 H         1 UNK         0.0000 
     48 H48         7.0567   58.5230   17.0532 H         1 UNK         0.0000 
     49 H49         8.1525   58.6664   15.6262 H         1 UNK         0.0000 
     50 H50        10.1283   59.1949   17.1893 H         1 UNK         0.0000 
     51 H51         9.0376   59.0377   18.6251 H         1 UNK         0.0000 
     52 H52        -0.7064   53.2975   31.8131 H         1 UNK         0.0000 
     53 H53        -1.4232   51.4754   30.2159 H         1 UNK         0.0000 
     54 H54         0.1486   50.9087   28.3454 H         1 UNK         0.0000 
@<TRIPOS>BOND
     1    1    2 1    
     2    1   30 1    
     3    1   31 1    
     4    1   32 1    
     5    2    7 ar   
     6    2    3 ar   
     7    3    4 ar   
     8    3   33 1    
     9    4    5 ar   
    10    4   23 1    
    11    5    6 ar   
    12    5   34 1    
    13    6    7 ar   
    14    6   35 1    
    15    7    8 1    
    16    8    9 am   BACKBONE|DICT|INTERRES
    17    8   36 1    
    18    9   10 2    
    19    9   11 am   BACKBONE|DICT|INTERRES
    20   11   16 1    
    21   11   12 1    
    22   12   13 1    
    23   12   37 1    
    24   12   38 1    
    25   13   14 1    
    26   13   39 1    
    27   13   40 1    
    28   14   15 1    
    29   14   17 1    
    30   14   41 1    
    31   15   16 1    
    32   15   42 1    
    33   15   43 1    
    34   16   44 1    
    35   16   45 1    
    36   17   18 2    
    37   17   19 am   BACKBONE|DICT|INTERRES
    38   19   20 1    
    39   19   46 1    
    40   20   22 1    
    41   20   21 1    
    42   20   47 1    
    43   21   22 1    
    44   21   48 1    
    45   21   49 1    
    46   22   50 1    
    47   22   51 1    
    48   23   24 1    
    49   24   29 ar   
    50   24   25 ar   
    51   25   26 ar   
    52   26   27 ar   
    53   26   52 1    
    54   27   28 ar   
    55   27   53 1    
    56   28   29 ar   
    57   28   54 1    
@<TRIPOS>SUBSTRUCTURE
     1 UNK         1 GROUP             0       ****    0 ROOT    
