@<TRIPOS>MOLECULE
ZINC01124226_3515
51   53    1
SMALL
USER_CHARGES


@<TRIPOS>ATOM
      1 C1          0.0544   52.2884   22.6533 C.3       1 UNK         0.0000 
      2 C2          0.0617   51.3080   23.8186 C.ar      1 UNK         0.0000 
      3 C3         -0.1192   51.8125   25.1108 C.ar      1 UNK         0.0000 
      4 C4         -0.0359   50.9691   26.2257 C.ar      1 UNK         0.0000 
      5 C5          0.1384   49.5981   26.0418 C.ar      1 UNK         0.0000 
      6 C6          0.3098   49.0824   24.7611 C.ar      1 UNK         0.0000 
      7 C7          0.3052   49.9282   23.6497 C.ar      1 UNK         0.0000 
      8 N8          0.6413   49.3518   22.4185 N.am      1 UNK         0.0000 
      9 C9         -0.1472   49.3017   21.3272 C.2       1 UNK         0.0000 
     10 O10        -1.3065   49.7173   21.2762 O.2       1 UNK         0.0000 
     11 C11         0.4939   48.7057   20.1850 C.2       1 UNK         0.0000 
     12 C12         1.8367   48.5962   19.8169 C.2       1 UNK         0.0000 
     13 C13         1.8622   48.0282   18.5431 C.2       1 UNK         0.0000 
     14 C14         0.5424   47.8374   18.1742 C.2       1 UNK         0.0000 
     15 O15        -0.2869   48.2669   19.1601 O.3       1 UNK         0.0000 
     16 N16        -0.0956   51.4763   27.5341 N.pl3     1 UNK         0.0000 
     17 C17         0.6765   52.4560   28.0950 C.2       1 UNK         0.0000 
     18 S18         0.3216   52.8883   29.6702 S.2       1 UNK         0.0000 
     19 N19         1.6842   52.9460   27.2967 N.am      1 UNK         0.0000 
     20 C20         2.5632   53.9722   27.4270 C.2       1 UNK         0.0000 
     21 O21         2.6259   54.7442   28.3864 O.2       1 UNK         0.0000 
     22 C22         3.5043   54.1343   26.2502 C.ar      1 UNK         0.0000 
     23 C23         3.0354   53.9176   24.9418 C.ar      1 UNK         0.0000 
     24 C24         3.8679   54.0943   23.8407 C.ar      1 UNK         0.0000 
     25 C25         5.1837   54.4960   24.0219 C.ar      1 UNK         0.0000 
     26 C26         5.6667   54.7490   25.3037 C.ar      1 UNK         0.0000 
     27 C27         4.8414   54.5537   26.4238 C.ar      1 UNK         0.0000 
     28 O28         5.3556   54.8404   27.6679 O.3       1 UNK         0.0000 
     29 C29         5.9037   53.7304   28.3648 C.3       1 UNK         0.0000 
     30 C30         7.0804   55.2695   25.4633 C.3       1 UNK         0.0000 
     31 Br31        3.2093   53.7974   22.0818 Br        1 UNK         0.0000 
     32 H32         0.3069   53.2969   22.9801 H         1 UNK         0.0000 
     33 H33         0.7983   52.0177   21.9035 H         1 UNK         0.0000 
     34 H34        -0.9249   52.3063   22.1748 H         1 UNK         0.0000 
     35 H35        -0.2907   52.8702   25.2528 H         1 UNK         0.0000 
     36 H36         0.1803   48.9211   26.8817 H         1 UNK         0.0000 
     37 H37         0.4948   48.0238   24.6490 H         1 UNK         0.0000 
     38 H38         1.5401   48.8967   22.3735 H         1 UNK         0.0000 
     39 H39         2.7012   48.9069   20.3872 H         1 UNK         0.0000 
     40 H40         2.7382   47.8149   17.9455 H         1 UNK         0.0000 
     41 H41         0.0673   47.4564   17.2821 H         1 UNK         0.0000 
     42 H42        -0.7653   51.0245   28.1422 H         1 UNK         0.0000 
     43 H43         1.8014   52.4285   26.4390 H         1 UNK         0.0000 
     44 H44         2.0123   53.6271   24.7567 H         1 UNK         0.0000 
     45 H45         5.8173   54.6391   23.1591 H         1 UNK         0.0000 
     46 H46         6.3864   54.0963   29.2723 H         1 UNK         0.0000 
     47 H47         5.1315   53.0164   28.6561 H         1 UNK         0.0000 
     48 H48         6.6582   53.2059   27.7743 H         1 UNK         0.0000 
     49 H49         7.5038   55.6173   24.5205 H         1 UNK         0.0000 
     50 H50         7.0846   56.1045   26.1566 H         1 UNK         0.0000 
     51 H51         7.7028   54.4967   25.8953 H         1 UNK         0.0000 
@<TRIPOS>BOND
     1    1    2 1    
     2    1   32 1    
     3    1   33 1    
     4    1   34 1    
     5    2    7 ar   
     6    2    3 ar   
     7    3    4 ar   
     8    3   35 1    
     9    4    5 ar   
    10    4   16 1    
    11    5    6 ar   
    12    5   36 1    
    13    6    7 ar   
    14    6   37 1    
    15    7    8 1    
    16    8    9 am   BACKBONE|DICT|INTERRES
    17    8   38 1    
    18    9   10 2    
    19    9   11 1    
    20   11   15 1    
    21   11   12 2    
    22   12   13 1    
    23   12   39 1    
    24   13   14 2    
    25   13   40 1    
    26   14   15 1    
    27   14   41 1    
    28   16   17 1    
    29   16   42 1    
    30   17   18 2    
    31   17   19 am   BACKBONE|DICT|INTERRES
    32   19   20 am   BACKBONE|DICT|INTERRES
    33   19   43 1    
    34   20   21 2    
    35   20   22 1    
    36   22   27 ar   
    37   22   23 ar   
    38   23   24 ar   
    39   23   44 1    
    40   24   25 ar   
    41   24   31 1    
    42   25   26 ar   
    43   25   45 1    
    44   26   27 ar   
    45   26   30 1    
    46   27   28 1    
    47   28   29 1    
    48   29   46 1    
    49   29   47 1    
    50   29   48 1    
    51   30   49 1    
    52   30   50 1    
    53   30   51 1    
@<TRIPOS>SUBSTRUCTURE
     1 UNK         1 GROUP             0       ****    0 ROOT    
