@<TRIPOS>MOLECULE
ZINC25258314_2469
58   61    1
SMALL
USER_CHARGES


@<TRIPOS>ATOM
      1 C1          4.2580   51.9623   21.4596 C.3       1 UNK         0.0000 
      2 C2          4.9129   53.2109   20.8796 C.ar      1 UNK         0.0000 
      3 C3          4.9630   53.3449   19.4895 C.ar      1 UNK         0.0000 
      4 C4          5.5653   54.4521   18.8822 C.ar      1 UNK         0.0000 
      5 C5          6.1427   55.4267   19.7032 C.ar      1 UNK         0.0000 
      6 C6          6.1021   55.3075   21.0900 C.ar      1 UNK         0.0000 
      7 C7          5.4796   54.2055   21.6979 C.ar      1 UNK         0.0000 
      8 N8          5.3719   54.0483   23.0949 N.am      1 UNK         0.0000 
      9 C9          5.9280   54.7584   24.0990 C.2       1 UNK         0.0000 
     10 O10         6.7126   55.6962   23.9703 O.2       1 UNK         0.0000 
     11 C11         5.5359   54.2975   25.4714 C.ar      1 UNK         0.0000 
     12 C12         4.2165   53.9391   25.7667 C.ar      1 UNK         0.0000 
     13 C13         3.8997   53.4391   27.0250 C.ar      1 UNK         0.0000 
     14 C14         4.8824   53.2999   28.0168 C.ar      1 UNK         0.0000 
     15 C15         6.1813   53.7136   27.7207 C.ar      1 UNK         0.0000 
     16 C16         6.5076   54.2115   26.4673 C.ar      1 UNK         0.0000 
     17 N17         4.6743   52.8231   29.2817 N.2       1 UNK         0.0000 
     18 S18         3.3400   52.2246   29.8228 S.o2      1 UNK         0.0000 
     19 O19         2.6034   51.3805   28.8810 O.2       1 UNK         0.0000 
     20 O20         3.4979   51.6969   31.1817 O.2       1 UNK         0.0000 
     21 C21         2.2207   53.6183   30.0569 C.2       1 UNK         0.0000 
     22 C22         1.0203   53.5279   30.7421 C.2       1 UNK         0.0000 
     23 C23         0.4053   54.7687   30.8819 C.2       1 UNK         0.0000 
     24 C24         1.1044   55.8000   30.2679 C.2       1 UNK         0.0000 
     25 S25         2.5120   55.2280   29.4530 S.3       1 UNK         0.0000 
     26 N26         5.5921   54.5474   17.4958 N.pl3     1 UNK         0.0000 
     27 C27         6.2217   53.4567   16.7286 C.3       1 UNK         0.0000 
     28 C28         5.7885   53.3836   15.2514 C.3       1 UNK         0.0000 
     29 N29         6.0368   54.7504   14.5865 N.4       1 UNK         0.0000 
     30 C30         5.2439   55.8371   15.3391 C.3       1 UNK         0.0000 
     31 C31         5.6804   55.8545   16.8192 C.3       1 UNK         0.0000 
     32 C32         5.6273   54.7114   13.0983 C.3       1 UNK         0.0000 
     33 H33         4.9756   51.4259   22.0812 H         1 UNK         0.0000 
     34 H34         3.4035   52.2315   22.0807 H         1 UNK         0.0000 
     35 H35         3.9117   51.2764   20.6843 H         1 UNK         0.0000 
     36 H36         4.5235   52.5744   18.8706 H         1 UNK         0.0000 
     37 H37         6.6315   56.2880   19.2723 H         1 UNK         0.0000 
     38 H38         6.5515   56.0967   21.6678 H         1 UNK         0.0000 
     39 H39         4.7855   53.2852   23.3905 H         1 UNK         0.0000 
     40 H40         3.4340   54.0199   25.0244 H         1 UNK         0.0000 
     41 H41         2.8770   53.1536   27.2140 H         1 UNK         0.0000 
     42 H42         6.9560   53.6411   28.4713 H         1 UNK         0.0000 
     43 H43         7.5254   54.4981   26.2670 H         1 UNK         0.0000 
     44 H44         0.6395   52.6131   31.1752 H         1 UNK         0.0000 
     45 H45        -0.4981   54.8970   31.4482 H         1 UNK         0.0000 
     46 H46         0.8511   56.8498   30.2434 H         1 UNK         0.0000 
     47 H47         6.0758   52.4906   17.2108 H         1 UNK         0.0000 
     48 H48         7.2919   53.6693   16.7533 H         1 UNK         0.0000 
     49 H49         6.4103   52.6644   14.7143 H         1 UNK         0.0000 
     50 H50         4.7326   53.1248   15.1371 H         1 UNK         0.0000 
     51 H51         5.5002   56.7849   14.8624 H         1 UNK         0.0000 
     52 H52         4.1780   55.6302   15.2182 H         1 UNK         0.0000 
     53 H53         6.7384   56.1250   16.8477 H         1 UNK         0.0000 
     54 H54         5.1202   56.6167   17.3655 H         1 UNK         0.0000 
     55 H55         4.5610   54.4841   13.0408 H         1 UNK         0.0000 
     56 H56         5.8481   55.6909   12.6720 H         1 UNK         0.0000 
     57 H57         6.2242   53.9369   12.6128 H         1 UNK         0.0000 
     58 H58         7.0230   54.9662   14.6571 H         1 UNK         0.0000 
@<TRIPOS>BOND
     1    1    2 1    
     2    1   33 1    
     3    1   34 1    
     4    1   35 1    
     5    2    7 ar   
     6    2    3 ar   
     7    3    4 ar   
     8    3   36 1    
     9    4    5 ar   
    10    4   26 1    
    11    5    6 ar   
    12    5   37 1    
    13    6    7 ar   
    14    6   38 1    
    15    7    8 1    
    16    8    9 am   BACKBONE|DICT|INTERRES
    17    8   39 1    
    18    9   10 2    
    19    9   11 1    
    20   11   16 ar   
    21   11   12 ar   
    22   12   13 ar   
    23   12   40 1    
    24   13   14 ar   
    25   13   41 1    
    26   14   15 ar   
    27   14   17 1    
    28   15   16 ar   
    29   15   42 1    
    30   16   43 1    
    31   17   18 1    
    32   18   19 2    
    33   18   20 2    
    34   18   21 1    
    35   21   25 1    
    36   21   22 2    
    37   22   23 1    
    38   22   44 1    
    39   23   24 2    
    40   23   45 1    
    41   24   25 1    
    42   24   46 1    
    43   26   31 1    
    44   26   27 1    
    45   27   28 1    
    46   27   47 1    
    47   27   48 1    
    48   28   29 1    
    49   28   49 1    
    50   28   50 1    
    51   29   30 1    
    52   29   32 1    
    53   29   58 1    
    54   30   31 1    
    55   30   51 1    
    56   30   52 1    
    57   31   53 1    
    58   31   54 1    
    59   32   55 1    
    60   32   56 1    
    61   32   57 1    
@<TRIPOS>SUBSTRUCTURE
     1 UNK         1 GROUP             0       ****    0 ROOT    
