ZINC42755484_1685
                    3D
 Schrodinger Suite 2024-2.
 28 29  0  0  1  0            999 V2000
    5.2893   54.9051   18.0980 C   0  0  0  0  0  0
    4.7362   54.8679   16.8203 C   0  0  0  0  0  0
    4.6085   56.0402   16.0813 C   0  0  0  0  0  0
    5.0334   57.2542   16.6104 C   0  0  0  0  0  0
    5.5927   57.2937   17.8856 C   0  0  0  0  0  0
    5.7273   56.1222   18.6486 C   0  0  0  0  0  0
    6.3045   56.2090   20.0491 C   0  0  0  0  0  0
    6.7044   57.2945   20.4820 O   0  0  0  0  0  0
    6.3247   55.0578   20.7592 N   0  0  0  0  0  0
    6.8482   55.0698   22.0582 N   0  0  0  0  0  0
    6.0882   54.5013   23.0195 C   0  0  0  0  0  0
    4.9751   54.0025   22.8262 O   0  0  0  0  0  0
    6.6759   54.6181   24.2293 N   0  0  0  0  0  0
    6.0515   54.5211   25.4747 C   0  0  0  0  0  0
    6.7443   54.5657   26.5846 N   0  0  0  0  0  0
    5.9828   54.4848   27.6576 C   0  0  0  0  0  0
    4.6142   54.3751   27.4316 C   0  0  0  0  0  0
    4.3219   54.3958   25.7193 S   0  0  0  0  0  0
    4.0699   55.9959   14.8413 F   0  0  0  0  0  0
    5.3587   53.9737   18.6425 H   0  0  0  0  0  0
    4.4029   53.9282   16.4032 H   0  0  0  0  0  0
    4.9286   58.1642   16.0367 H   0  0  0  0  0  0
    5.9068   58.2538   18.2742 H   0  0  0  0  0  0
    6.4765   54.1754   20.2968 H   0  0  0  0  0  0
    7.8455   54.8984   22.0436 H   0  0  0  0  0  0
    7.6433   54.9086   24.2436 H   0  0  0  0  0  0
    6.4566   54.4982   28.6301 H   0  0  0  0  0  0
    3.8082   54.2871   28.1444 H   0  0  0  0  0  0
  1  6  2  0  0  0
  1  2  1  0  0  0
  1 20  1  0  0  0
  2  3  2  0  0  0
  2 21  1  0  0  0
  3  4  1  0  0  0
  3 19  1  0  0  0
  4  5  2  0  0  0
  4 22  1  0  0  0
  5  6  1  0  0  0
  5 23  1  0  0  0
  6  7  1  0  0  0
  7  8  2  0  0  0
  7  9  1  0  0  0
  9 10  1  0  0  0
  9 24  1  0  0  0
 10 11  1  0  0  0
 10 25  1  0  0  0
 11 12  2  0  0  0
 11 13  1  0  0  0
 13 14  1  0  0  0
 13 26  1  0  0  0
 14 18  1  0  0  0
 14 15  2  0  0  0
 15 16  1  0  0  0
 16 17  2  0  0  0
 16 27  1  0  0  0
 17 18  1  0  0  0
 17 28  1  0  0  0
M  END
> <i_i_glide_confnum>
13

> <i_i_glide_lignum>
1686

> <i_i_glide_posenum>
250

> <i_i_glide_rotatable_bonds>
6

> <i_m_Source_File_Index>
859

> <b_m_subgroup_collapsed>
0

> <r_i_docking_score>
-6.47869

> <r_i_glide_ecoul>
-6.48418

> <r_i_glide_eff_state_penalty>
0

> <r_i_glide_einternal>
2.75293

> <r_i_glide_emodel>
-52.7759

> <r_i_glide_energy>
-37.1492

> <r_i_glide_erotb>
0.643622

> <r_i_glide_esite>
0

> <r_i_glide_evdw>
-30.665

> <r_i_glide_gscore>
-6.47869

> <r_i_glide_hbond>
-0.671879

> <r_i_glide_ligand_efficiency>
-0.340984

> <r_i_glide_ligand_efficiency_ln>
-1.64249

> <r_i_glide_ligand_efficiency_sa>
-0.909881

> <r_i_glide_lipo>
-1.18956

> <r_i_glide_metal>
0

> <r_i_glide_rewards>
-2.75499

> <s_i_glide_gridfile>
wee1_glide-grid

> <s_m_Source_File>
wee1_decoys_glide_SP.sdf

> <s_m_Source_Path>
/Users/zhangxujun/Desktop

> <s_m_entry_id>
1134

> <s_m_entry_name>
wee1_decoys_glide_SP.859

> <s_m_subgroup_title>
wee1_decoys_glide_SP

> <s_m_subgroupid>
wee1_decoys_glide_SP


$$$$
