@<TRIPOS>MOLECULE
ZINC36235453_2882
70   72    1
SMALL
USER_CHARGES


@<TRIPOS>ATOM
      1 C1          2.9456   53.0098   27.7021 C.3       1 UNK         0.0000 
      2 C2          3.5041   54.4144   27.4324 C.3       1 UNK         0.0000 
      3 N3          4.7657   54.4207   26.6771 N.pl3     1 UNK         0.0000 
      4 C4          6.0614   54.2449   27.3569 C.3       1 UNK         0.0000 
      5 C5          6.0419   54.0985   28.8817 C.3       1 UNK         0.0000 
      6 C6          4.7512   54.3656   25.2544 C.ar      1 UNK         0.0000 
      7 C7          3.5773   54.0957   24.5335 C.ar      1 UNK         0.0000 
      8 C8          3.5903   53.9697   23.1462 C.ar      1 UNK         0.0000 
      9 C9          4.7734   54.1463   22.4170 C.ar      1 UNK         0.0000 
     10 C10         5.9356   54.4941   23.1252 C.ar      1 UNK         0.0000 
     11 C11         5.9247   54.5772   24.5142 C.ar      1 UNK         0.0000 
     12 O12         7.1109   54.7894   22.4840 O.3       1 UNK         0.0000 
     13 C13         4.7889   54.0050   20.9545 C.2       1 UNK         0.0000 
     14 N14         3.8905   53.3974   20.2924 N.2       1 UNK         0.0000 
     15 N15         4.1367   53.4313   18.9722 N.am      1 UNK         0.0000 
     16 C16         3.2873   52.9758   18.0240 C.2       1 UNK         0.0000 
     17 O17         2.1797   52.4920   18.2798 O.2       1 UNK         0.0000 
     18 C18         3.7909   53.1300   16.6582 C.2       1 UNK         0.0000 
     19 C19         2.9663   53.4642   15.6229 C.2       1 UNK         0.0000 
     20 C20         1.5314   53.8313   15.5927 C.ar      1 UNK         0.0000 
     21 C21         0.9464   54.6707   16.5448 C.ar      1 UNK         0.0000 
     22 C22        -0.4035   54.9981   16.4584 C.ar      1 UNK         0.0000 
     23 C23        -1.2060   54.5016   15.4162 C.ar      1 UNK         0.0000 
     24 C24        -0.5989   53.6702   14.4602 C.ar      1 UNK         0.0000 
     25 C25         0.7489   53.3395   14.5480 C.ar      1 UNK         0.0000 
     26 N26        -2.5871   54.8370   15.3248 N.pl3     1 UNK         0.0000 
     27 C27        -3.4381   54.1693   14.3380 C.3       1 UNK         0.0000 
     28 C28        -3.2711   55.4105   16.4813 C.3       1 UNK         0.0000 
     29 N29         5.1430   52.8889   16.5110 N.am      1 UNK         0.0000 
     30 C30         6.0162   53.3772   15.6003 C.2       1 UNK         0.0000 
     31 O31         5.7190   54.2163   14.7462 O.2       1 UNK         0.0000 
     32 C32         7.4349   52.8473   15.6871 C.ar      1 UNK         0.0000 
     33 C33         7.8798   52.0919   16.7863 C.ar      1 UNK         0.0000 
     34 C34         9.1824   51.6050   16.8320 C.ar      1 UNK         0.0000 
     35 C35        10.0614   51.8807   15.7890 C.ar      1 UNK         0.0000 
     36 C36         9.6455   52.6372   14.6976 C.ar      1 UNK         0.0000 
     37 C37         8.3395   53.1180   14.6477 C.ar      1 UNK         0.0000 
     38 H38         2.0289   53.0664   28.2894 H         1 UNK         0.0000 
     39 H39         2.7042   52.4965   26.7731 H         1 UNK         0.0000 
     40 H40         3.6509   52.3864   28.2502 H         1 UNK         0.0000 
     41 H41         3.6255   54.9578   28.3687 H         1 UNK         0.0000 
     42 H42         2.7554   54.9920   26.8916 H         1 UNK         0.0000 
     43 H43         6.5663   53.3752   26.9323 H         1 UNK         0.0000 
     44 H44         6.6905   55.1049   27.1240 H         1 UNK         0.0000 
     45 H45         7.0633   54.0106   29.2541 H         1 UNK         0.0000 
     46 H46         5.6051   54.9738   29.3624 H         1 UNK         0.0000 
     47 H47         5.5018   53.2161   29.2258 H         1 UNK         0.0000 
     48 H48         2.6346   53.9353   25.0301 H         1 UNK         0.0000 
     49 H49         2.6642   53.7322   22.6401 H         1 UNK         0.0000 
     50 H50         6.8494   54.8291   25.0066 H         1 UNK         0.0000 
     51 H51         7.8478   54.9490   23.0834 H         1 UNK         0.0000 
     52 H52         5.6477   54.4757   20.4758 H         1 UNK         0.0000 
     53 H53         5.0001   53.8792   18.7055 H         1 UNK         0.0000 
     54 H54         3.4068   53.4999   14.6371 H         1 UNK         0.0000 
     55 H55         1.5338   55.0775   17.3562 H         1 UNK         0.0000 
     56 H56        -0.8022   55.6491   17.2191 H         1 UNK         0.0000 
     57 H57        -1.1568   53.2593   13.6338 H         1 UNK         0.0000 
     58 H58         1.1832   52.6931   13.7975 H         1 UNK         0.0000 
     59 H59        -3.0393   54.2847   13.3299 H         1 UNK         0.0000 
     60 H60        -3.4945   53.1008   14.5514 H         1 UNK         0.0000 
     61 H61        -4.4548   54.5649   14.3374 H         1 UNK         0.0000 
     62 H62        -2.7877   56.3275   16.8162 H         1 UNK         0.0000 
     63 H63        -4.3148   55.6431   16.2687 H         1 UNK         0.0000 
     64 H64        -3.2419   54.6989   17.3065 H         1 UNK         0.0000 
     65 H65         5.5049   52.1908   17.1514 H         1 UNK         0.0000 
     66 H66         7.2297   51.8372   17.6124 H         1 UNK         0.0000 
     67 H67         9.5065   51.0113   17.6748 H         1 UNK         0.0000 
     68 H68        11.0730   51.5022   15.8268 H         1 UNK         0.0000 
     69 H69        10.3326   52.8466   13.8906 H         1 UNK         0.0000 
     70 H70         8.0363   53.6999   13.7881 H         1 UNK         0.0000 
@<TRIPOS>BOND
     1    1    2 1    
     2    1   38 1    
     3    1   39 1    
     4    1   40 1    
     5    2    3 1    
     6    2   41 1    
     7    2   42 1    
     8    3    4 1    
     9    3    6 1    
    10    4    5 1    
    11    4   43 1    
    12    4   44 1    
    13    5   45 1    
    14    5   46 1    
    15    5   47 1    
    16    6   11 ar   
    17    6    7 ar   
    18    7    8 ar   
    19    7   48 1    
    20    8    9 ar   
    21    8   49 1    
    22    9   10 ar   
    23    9   13 1    
    24   10   11 ar   
    25   10   12 1    
    26   11   50 1    
    27   12   51 1    
    28   13   14 2    
    29   13   52 1    
    30   14   15 1    
    31   15   16 am   BACKBONE|DICT|INTERRES
    32   15   53 1    
    33   16   17 2    
    34   16   18 1    
    35   18   19 2    
    36   18   29 1    
    37   19   20 1    
    38   19   54 1    
    39   20   25 ar   
    40   20   21 ar   
    41   21   22 ar   
    42   21   55 1    
    43   22   23 ar   
    44   22   56 1    
    45   23   24 ar   
    46   23   26 1    
    47   24   25 ar   
    48   24   57 1    
    49   25   58 1    
    50   26   27 1    
    51   26   28 1    
    52   27   59 1    
    53   27   60 1    
    54   27   61 1    
    55   28   62 1    
    56   28   63 1    
    57   28   64 1    
    58   29   30 am   BACKBONE|DICT|INTERRES
    59   29   65 1    
    60   30   31 2    
    61   30   32 1    
    62   32   37 ar   
    63   32   33 ar   
    64   33   34 ar   
    65   33   66 1    
    66   34   35 ar   
    67   34   67 1    
    68   35   36 ar   
    69   35   68 1    
    70   36   37 ar   
    71   36   69 1    
    72   37   70 1    
@<TRIPOS>SUBSTRUCTURE
     1 UNK         1 GROUP             0       ****    0 ROOT    
