@<TRIPOS>MOLECULE
ZINC21363255_5848
47   50    1
SMALL
USER_CHARGES


@<TRIPOS>ATOM
      1 C1          0.0148   53.2999   31.3046 C.3       1 UNK         0.0000 
      2 C2          0.8606   53.5089   30.0642 C.ar      1 UNK         0.0000 
      3 C3          0.9090   52.5209   29.0795 C.ar      1 UNK         0.0000 
      4 C4          1.6927   52.7114   27.9425 C.ar      1 UNK         0.0000 
      5 C5          2.4372   53.8857   27.7910 C.ar      1 UNK         0.0000 
      6 C6          2.3752   54.8775   28.7766 C.ar      1 UNK         0.0000 
      7 C7          1.5774   54.6968   29.9022 C.ar      1 UNK         0.0000 
      8 C8          3.2974   54.1008   26.5902 C.2       1 UNK         0.0000 
      9 C9          4.5383   54.7189   26.5190 C.2       1 UNK         0.0000 
     10 O10         4.9355   54.7097   25.2276 O.3       1 UNK         0.0000 
     11 C11         3.9211   54.0751   24.5866 C.2       1 UNK         0.0000 
     12 N12         2.9402   53.6997   25.3806 N.2       1 UNK         0.0000 
     13 C13         4.0343   53.8380   23.1128 C.ar      1 UNK         0.0000 
     14 C14         3.0367   53.1250   22.4412 C.ar      1 UNK         0.0000 
     15 C15         3.1318   52.9046   21.0707 C.ar      1 UNK         0.0000 
     16 C16         4.2163   53.4277   20.3503 C.ar      1 UNK         0.0000 
     17 C17         5.2253   54.1133   21.0253 C.ar      1 UNK         0.0000 
     18 C18         5.1417   54.3105   22.4007 C.ar      1 UNK         0.0000 
     19 N19         4.3767   53.2930   18.9608 N.am      1 UNK         0.0000 
     20 C20         3.4446   53.0084   18.0303 C.2       1 UNK         0.0000 
     21 O21         2.2370   52.8838   18.2556 O.2       1 UNK         0.0000 
     22 N22         4.0022   52.8988   16.8114 N.am      1 UNK         0.0000 
     23 C23         3.3592   52.5466   15.6151 C.ar      1 UNK         0.0000 
     24 C24         3.8471   53.1072   14.4341 C.ar      1 UNK         0.0000 
     25 C25         3.2588   52.7774   13.2143 C.ar      1 UNK         0.0000 
     26 C26         2.1955   51.8760   13.1781 C.ar      1 UNK         0.0000 
     27 C27         1.7200   51.2948   14.3504 C.ar      1 UNK         0.0000 
     28 C28         2.3003   51.6270   15.5710 C.ar      1 UNK         0.0000 
     29 F29         1.6268   51.5560   11.9945 F         1 UNK         0.0000 
     30 H30        -0.8768   52.7163   31.0708 H         1 UNK         0.0000 
     31 H31         0.5771   52.7684   32.0737 H         1 UNK         0.0000 
     32 H32        -0.3277   54.2492   31.7174 H         1 UNK         0.0000 
     33 H33         0.3451   51.6048   29.1935 H         1 UNK         0.0000 
     34 H34         1.7293   51.9382   27.1882 H         1 UNK         0.0000 
     35 H35         2.9373   55.7937   28.6669 H         1 UNK         0.0000 
     36 H36         1.5255   55.4735   30.6514 H         1 UNK         0.0000 
     37 H37         5.1965   55.1806   27.2388 H         1 UNK         0.0000 
     38 H38         2.1834   52.7348   22.9767 H         1 UNK         0.0000 
     39 H39         2.3461   52.3435   20.5869 H         1 UNK         0.0000 
     40 H40         6.0764   54.5088   20.4872 H         1 UNK         0.0000 
     41 H41         5.9316   54.8507   22.9041 H         1 UNK         0.0000 
     42 H42         5.3112   53.4596   18.6218 H         1 UNK         0.0000 
     43 H43         4.9783   53.1392   16.7251 H         1 UNK         0.0000 
     44 H44         4.6750   53.8028   14.4520 H         1 UNK         0.0000 
     45 H45         3.6217   53.2166   12.2968 H         1 UNK         0.0000 
     46 H46         0.9105   50.5795   14.3139 H         1 UNK         0.0000 
     47 H47         1.9476   51.1463   16.4719 H         1 UNK         0.0000 
@<TRIPOS>BOND
     1    1    2 1    
     2    1   30 1    
     3    1   31 1    
     4    1   32 1    
     5    2    7 ar   
     6    2    3 ar   
     7    3    4 ar   
     8    3   33 1    
     9    4    5 ar   
    10    4   34 1    
    11    5    6 ar   
    12    5    8 1    
    13    6    7 ar   
    14    6   35 1    
    15    7   36 1    
    16    8   12 1    
    17    8    9 2    
    18    9   10 1    
    19    9   37 1    
    20   10   11 1    
    21   11   12 2    
    22   11   13 1    
    23   13   18 ar   
    24   13   14 ar   
    25   14   15 ar   
    26   14   38 1    
    27   15   16 ar   
    28   15   39 1    
    29   16   17 ar   
    30   16   19 1    
    31   17   18 ar   
    32   17   40 1    
    33   18   41 1    
    34   19   20 am   BACKBONE|DICT|INTERRES
    35   19   42 1    
    36   20   21 2    
    37   20   22 am   BACKBONE|DICT|INTERRES
    38   22   23 1    
    39   22   43 1    
    40   23   28 ar   
    41   23   24 ar   
    42   24   25 ar   
    43   24   44 1    
    44   25   26 ar   
    45   25   45 1    
    46   26   27 ar   
    47   26   29 1    
    48   27   28 ar   
    49   27   46 1    
    50   28   47 1    
@<TRIPOS>SUBSTRUCTURE
     1 UNK         1 GROUP             0       ****    0 ROOT    
