ZINC39688190_3086
                    3D
 Schrodinger Suite 2024-2.
 64 67  0  0  1  0            999 V2000
    5.4815   54.0971   24.4272 C   0  0  0  0  0  0
    5.8303   54.1273   23.0813 C   0  0  0  0  0  0
    4.8389   54.1714   22.1056 C   0  0  0  0  0  0
    3.4967   54.2119   22.4834 C   0  0  0  0  0  0
    3.1472   54.1920   23.8305 C   0  0  0  0  0  0
    4.1347   54.1007   24.8252 C   0  0  0  0  0  0
    3.8210   54.0508   26.3143 C   0  0  0  0  0  0
    4.6673   54.4915   27.0988 O   0  0  0  0  0  0
    2.6757   53.4739   26.7816 N   0  0  0  0  0  0
    1.6410   52.7861   26.0033 C   0  0  0  0  0  0
    0.9376   51.8478   27.0133 C   0  0  1  0  0  0
    1.4198   50.8703   26.9919 H   0  0  0  0  0  0
    1.1570   52.5324   28.4060 C   0  0  0  0  0  0
    2.5183   53.2304   28.2171 C   0  0  0  0  0  0
    1.1462   51.4924   29.5406 C   0  0  0  0  0  0
    1.5336   52.0969   30.9143 C   0  0  0  0  0  0
    0.4660   53.1460   31.2806 N   0  3  0  0  0  0
    0.3256   54.2374   30.1922 C   0  0  0  0  0  0
    0.0629   53.5601   28.8235 C   0  0  0  0  0  0
   -0.5434   51.6510   26.5663 C   0  0  0  0  0  0
   -1.1385   52.5011   25.9110 O   0  0  0  0  0  0
   -1.1510   50.4972   26.8817 N   0  0  0  0  0  0
   -2.6044   50.2894   26.8116 C   0  0  0  0  0  0
   -3.2835   50.6920   28.1370 C   0  0  0  0  0  0
   -4.6989   50.5237   28.0856 O   0  0  0  0  0  0
   -5.4282   50.5149   29.2630 C   0  0  0  0  0  0
   -6.8173   50.5212   29.1239 C   0  0  0  0  0  0
   -7.6435   50.5215   30.2467 C   0  0  0  0  0  0
   -7.0793   50.5126   31.5205 C   0  0  0  0  0  0
   -5.6968   50.5001   31.6781 C   0  0  0  0  0  0
   -4.8719   50.4986   30.5565 C   0  0  0  0  0  0
   -7.8787   50.5150   32.6116 F   0  0  0  0  0  0
    5.2212   54.2467   20.7882 O   0  0  0  0  0  0
    4.8143   53.1751   19.9394 C   0  0  0  0  0  0
    5.5062   53.2958   18.8097 F   0  0  0  0  0  0
    5.1019   51.9904   20.4821 F   0  0  0  0  0  0
    3.5180   53.2440   19.6435 F   0  0  0  0  0  0
    6.2758   54.0508   25.1609 H   0  0  0  0  0  0
    6.8715   54.1227   22.7928 H   0  0  0  0  0  0
    2.7229   54.2951   21.7353 H   0  0  0  0  0  0
    2.0996   54.2882   24.0647 H   0  0  0  0  0  0
    2.0321   52.1886   25.1779 H   0  0  0  0  0  0
    0.9552   53.5742   25.6948 H   0  0  0  0  0  0
    2.7235   54.0716   28.8784 H   0  0  0  0  0  0
    3.2890   52.4926   28.4547 H   0  0  0  0  0  0
    0.1850   50.9724   29.5776 H   0  0  0  0  0  0
    1.8848   50.7356   29.2818 H   0  0  0  0  0  0
    1.5157   51.3786   31.7354 H   0  0  0  0  0  0
    2.5020   52.5983   30.9109 H   0  0  0  0  0  0
   -0.4185   52.6692   31.4346 H   0  0  0  0  0  0
   -0.4957   54.8782   30.5116 H   0  0  0  0  0  0
    1.2404   54.8307   30.2158 H   0  0  0  0  0  0
   -0.0264   54.3490   28.0817 H   0  0  0  0  0  0
   -0.8954   53.0566   28.8514 H   0  0  0  0  0  0
   -0.6547   49.7494   27.3532 H   0  0  0  0  0  0
   -2.8041   49.2360   26.6156 H   0  0  0  0  0  0
   -3.0646   50.8244   25.9778 H   0  0  0  0  0  0
   -3.0591   51.7297   28.3769 H   0  0  0  0  0  0
   -2.8438   50.0967   28.9315 H   0  0  0  0  0  0
   -7.2563   50.5297   28.1364 H   0  0  0  0  0  0
   -8.7166   50.5281   30.1336 H   0  0  0  0  0  0
   -5.2622   50.4965   32.6701 H   0  0  0  0  0  0
   -3.8068   50.4830   30.7266 H   0  0  0  0  0  0
    0.6935   53.5657   32.1715 H   0  0  0  0  0  0
  1  6  2  0  0  0
  1  2  1  0  0  0
  1 38  1  0  0  0
  2  3  2  0  0  0
  2 39  1  0  0  0
  3  4  1  0  0  0
  3 33  1  0  0  0
  4  5  2  0  0  0
  4 40  1  0  0  0
  5  6  1  0  0  0
  5 41  1  0  0  0
  6  7  1  0  0  0
  7  8  2  0  0  0
  7  9  1  0  0  0
  9 14  1  0  0  0
  9 10  1  0  0  0
 10 11  1  0  0  0
 10 42  1  0  0  0
 10 43  1  0  0  0
 11 12  1  0  0  0
 11 13  1  0  0  0
 11 20  1  0  0  0
 13 19  1  0  0  0
 13 14  1  0  0  0
 13 15  1  0  0  0
 14 44  1  0  0  0
 14 45  1  0  0  0
 15 16  1  0  0  0
 15 46  1  0  0  0
 15 47  1  0  0  0
 16 17  1  0  0  0
 16 48  1  0  0  0
 16 49  1  0  0  0
 17 18  1  0  0  0
 17 50  1  0  0  0
 17 64  1  0  0  0
 18 19  1  0  0  0
 18 51  1  0  0  0
 18 52  1  0  0  0
 19 53  1  0  0  0
 19 54  1  0  0  0
 20 21  2  0  0  0
 20 22  1  0  0  0
 22 23  1  0  0  0
 22 55  1  0  0  0
 23 24  1  0  0  0
 23 56  1  0  0  0
 23 57  1  0  0  0
 24 25  1  0  0  0
 24 58  1  0  0  0
 24 59  1  0  0  0
 25 26  1  0  0  0
 26 31  2  0  0  0
 26 27  1  0  0  0
 27 28  2  0  0  0
 27 60  1  0  0  0
 28 29  1  0  0  0
 28 61  1  0  0  0
 29 30  2  0  0  0
 29 32  1  0  0  0
 30 31  1  0  0  0
 30 62  1  0  0  0
 31 63  1  0  0  0
 33 34  1  0  0  0
 34 35  1  0  0  0
 34 36  1  0  0  0
 34 37  1  0  0  0
M  CHG  1  17   1
M  END
> <i_i_glide_confnum>
15

> <i_i_glide_lignum>
3087

> <i_i_glide_posenum>
359

> <i_i_glide_rotatable_bonds>
10

> <i_m_Source_File_Index>
1675

> <b_m_subgroup_collapsed>
0

> <r_i_docking_score>
-3.69118

> <r_i_glide_ecoul>
-2.65937

> <r_i_glide_eff_state_penalty>
0

> <r_i_glide_einternal>
10.0692

> <r_i_glide_emodel>
-40.4269

> <r_i_glide_energy>
-39.6598

> <r_i_glide_erotb>
0.628887

> <r_i_glide_esite>
-0.351891

> <r_i_glide_evdw>
-37.0004

> <r_i_glide_gscore>
-3.69118

> <r_i_glide_hbond>
-0.151984

> <r_i_glide_ligand_efficiency>
-0.102533

> <r_i_glide_ligand_efficiency_ln>
-0.805316

> <r_i_glide_ligand_efficiency_sa>
-0.338556

> <r_i_glide_lipo>
-2.24092

> <r_i_glide_metal>
0

> <r_i_glide_rewards>
0.673653

> <s_i_glide_gridfile>
wee1_glide-grid

> <s_m_Source_File>
wee1_decoys_glide_SP.sdf

> <s_m_Source_Path>
/Users/zhangxujun/Desktop

> <s_m_entry_id>
1950

> <s_m_entry_name>
wee1_decoys_glide_SP.1675

> <s_m_subgroup_title>
wee1_decoys_glide_SP

> <s_m_subgroupid>
wee1_decoys_glide_SP


$$$$
