@<TRIPOS>MOLECULE
ZINC39980655_35
44   48    1
SMALL
USER_CHARGES


@<TRIPOS>ATOM
      1 C1          2.9497   53.6972   28.5081 C.ar      1 UNK         0.0000 
      2 C2          4.0863   53.9571   29.2736 C.ar      1 UNK         0.0000 
      3 C3          5.3044   54.2941   28.6803 C.ar      1 UNK         0.0000 
      4 C4          5.3527   54.3504   27.2851 C.ar      1 UNK         0.0000 
      5 C5          4.2023   54.0970   26.4944 C.ar      1 UNK         0.0000 
      6 C6          2.9854   53.7681   27.1130 C.ar      1 UNK         0.0000 
      7 N7          4.3887   54.1997   25.1542 N.2       1 UNK         0.0000 
      8 C8          5.6312   54.4978   24.8673 C.2       1 UNK         0.0000 
      9 S9          6.7039   54.7151   26.2257 S.3       1 UNK         0.0000 
     10 N10         6.1738   54.7076   23.6074 N.am      1 UNK         0.0000 
     11 C11         5.5507   54.4922   22.4244 C.2       1 UNK         0.0000 
     12 O12         4.4293   53.9905   22.3017 O.2       1 UNK         0.0000 
     13 C13         6.3036   54.9235   21.2618 C.ar      1 UNK         0.0000 
     14 C14         7.6012   55.4812   21.2441 C.ar      1 UNK         0.0000 
     15 C15         7.9275   55.6577   19.9153 C.ar      1 UNK         0.0000 
     16 N16         6.8427   55.1877   19.1991 N.pl3     1 UNK         0.0000 
     17 N17         5.8479   54.8241   20.0275 N.2       1 UNK         0.0000 
     18 C18         6.6789   55.2509   17.7336 C.3       1 UNK         0.0000 
     19 H19         6.1290   56.1691   17.5225 H         1 UNK         0.0000 
     20 C20         8.0997   55.3882   17.1214 C.3       1 UNK         0.0000 
     21 C21         8.9630   56.4276   17.8674 C.3       1 UNK         0.0000 
     22 H22         8.4416   57.3852   17.8550 H         1 UNK         0.0000 
     23 N23         9.0898   56.0256   19.2693 N.pl3     1 UNK         0.0000 
     24 C24        10.3246   56.6187   17.2286 C.2       1 UNK         0.0000 
     25 C25        10.9265   57.6585   16.5305 C.2       1 UNK         0.0000 
     26 C26        12.2056   57.2272   16.1736 C.2       1 UNK         0.0000 
     27 C27        12.3224   55.9300   16.6478 C.2       1 UNK         0.0000 
     28 O28        11.1811   55.5614   17.2814 O.3       1 UNK         0.0000 
     29 C29         5.8606   54.0880   17.1133 C.3       1 UNK         0.0000 
     30 F30         5.8285   54.1870   15.7820 F         1 UNK         0.0000 
     31 F31         6.4072   52.9050   17.3992 F         1 UNK         0.0000 
     32 F32         4.5928   54.0727   17.5308 F         1 UNK         0.0000 
     33 H33         2.0255   53.4327   29.0023 H         1 UNK         0.0000 
     34 H34         4.0255   53.8877   30.3485 H         1 UNK         0.0000 
     35 H35         6.1803   54.4968   29.2798 H         1 UNK         0.0000 
     36 H36         2.1024   53.5675   26.5238 H         1 UNK         0.0000 
     37 H37         7.1424   54.9963   23.5785 H         1 UNK         0.0000 
     38 H38         8.2497   55.6901   22.0808 H         1 UNK         0.0000 
     39 H39         8.5993   54.4177   17.1267 H         1 UNK         0.0000 
     40 H40         8.0162   55.6501   16.0649 H         1 UNK         0.0000 
     41 H41         9.8565   56.4728   19.7545 H         1 UNK         0.0000 
     42 H42        10.4889   58.6203   16.3096 H         1 UNK         0.0000 
     43 H43        12.9533   57.7855   15.6285 H         1 UNK         0.0000 
     44 H44        13.1076   55.1867   16.6075 H         1 UNK         0.0000 
@<TRIPOS>BOND
     1    1    6 ar   
     2    1    2 ar   
     3    1   33 1    
     4    2    3 ar   
     5    2   34 1    
     6    3    4 ar   
     7    3   35 1    
     8    4    9 1    
     9    4    5 ar   
    10    5    6 ar   
    11    5    7 1    
    12    6   36 1    
    13    7    8 2    
    14    8    9 1    
    15    8   10 am   BACKBONE|DICT|INTERRES
    16   10   11 am   BACKBONE|DICT|INTERRES
    17   10   37 1    
    18   11   12 2    
    19   11   13 1    
    20   13   17 ar   
    21   13   14 ar   
    22   14   15 ar   
    23   14   38 1    
    24   15   23 1    
    25   15   16 ar   
    26   16   17 ar   
    27   16   18 1    
    28   18   19 1    
    29   18   20 1    
    30   18   29 1    
    31   20   21 1    
    32   20   39 1    
    33   20   40 1    
    34   21   22 1    
    35   21   23 1    
    36   21   24 1    
    37   23   41 1    
    38   24   28 1    
    39   24   25 2    
    40   25   26 1    
    41   25   42 1    
    42   26   27 2    
    43   26   43 1    
    44   27   28 1    
    45   27   44 1    
    46   29   30 1    
    47   29   31 1    
    48   29   32 1    
@<TRIPOS>SUBSTRUCTURE
     1 UNK         1 GROUP             0       ****    0 ROOT    
