@<TRIPOS>MOLECULE
ZINC01326716_501
55   59    1
SMALL
USER_CHARGES


@<TRIPOS>ATOM
      1 C1         -5.3015   49.7502   30.4959 C.3       1 UNK         0.0000 
      2 C2         -4.6705   50.5745   29.3783 C.2       1 UNK         0.0000 
      3 O3         -5.3873   51.2693   28.6612 O.2       1 UNK         0.0000 
      4 N4         -3.3307   50.5005   29.2876 N.am      1 UNK         0.0000 
      5 C5         -2.4764   51.1318   28.3691 C.ar      1 UNK         0.0000 
      6 C6         -2.8379   51.4535   27.0550 C.ar      1 UNK         0.0000 
      7 C7         -1.8744   51.9278   26.1682 C.ar      1 UNK         0.0000 
      8 C8         -0.5379   52.0796   26.5841 C.ar      1 UNK         0.0000 
      9 C9         -0.1941   51.7805   27.9033 C.ar      1 UNK         0.0000 
     10 C10        -1.1584   51.3120   28.7890 C.ar      1 UNK         0.0000 
     11 N11         0.5271   52.4964   25.7588 N.am      1 UNK         0.0000 
     12 C12         0.5028   52.8983   24.4686 C.2       1 UNK         0.0000 
     13 O13        -0.4984   52.9129   23.7493 O.2       1 UNK         0.0000 
     14 C14         1.7790   53.3523   23.9485 C.ar      1 UNK         0.0000 
     15 C15         1.9733   53.6997   22.6085 C.ar      1 UNK         0.0000 
     16 C16         3.2935   54.0419   22.4784 C.ar      1 UNK         0.0000 
     17 N17         3.8452   53.9320   23.7353 N.pl3     1 UNK         0.0000 
     18 N18         2.9102   53.5209   24.6219 N.2       1 UNK         0.0000 
     19 C19         5.2895   53.9331   24.0280 C.3       1 UNK         0.0000 
     20 H20         5.5793   52.8967   24.0408 H         1 UNK         0.0000 
     21 C21         6.0705   54.5193   22.8250 C.3       1 UNK         0.0000 
     22 C22         5.4552   54.2337   21.4254 C.3       1 UNK         0.0000 
     23 H23         5.5693   53.1727   21.1957 H         1 UNK         0.0000 
     24 N24         4.0213   54.4898   21.4084 N.pl3     1 UNK         0.0000 
     25 C25         6.1213   54.9935   20.2804 C.ar      1 UNK         0.0000 
     26 C26         6.4650   54.3141   19.0931 C.ar      1 UNK         0.0000 
     27 C27         6.9767   55.0029   17.9857 C.ar      1 UNK         0.0000 
     28 C28         7.1070   56.3813   18.0947 C.ar      1 UNK         0.0000 
     29 C29         6.7882   57.0458   19.2445 C.ar      1 UNK         0.0000 
     30 C30         6.2997   56.3858   20.3626 C.ar      1 UNK         0.0000 
     31 O31         7.0319   58.3713   19.0805 O.3       1 UNK         0.0000 
     32 C32         7.2062   58.5322   17.7016 C.3       1 UNK         0.0000 
     33 O33         7.5428   57.2760   17.1695 O.3       1 UNK         0.0000 
     34 C34         5.6949   54.4779   25.4209 C.3       1 UNK         0.0000 
     35 F35         7.0208   54.5433   25.5481 F         1 UNK         0.0000 
     36 F36         5.2274   55.7009   25.6279 F         1 UNK         0.0000 
     37 F37         5.2489   53.7080   26.4132 F         1 UNK         0.0000 
     38 H38        -6.1737   50.2644   30.8990 H         1 UNK         0.0000 
     39 H39        -4.5993   49.5840   31.3120 H         1 UNK         0.0000 
     40 H40        -5.6202   48.7815   30.1138 H         1 UNK         0.0000 
     41 H41        -2.8500   49.8935   29.9473 H         1 UNK         0.0000 
     42 H42        -3.8425   51.2899   26.6977 H         1 UNK         0.0000 
     43 H43        -2.1913   52.1311   25.1592 H         1 UNK         0.0000 
     44 H44         0.8261   51.8822   28.2494 H         1 UNK         0.0000 
     45 H45        -0.8671   51.0483   29.7976 H         1 UNK         0.0000 
     46 H46         1.4285   52.5333   26.2101 H         1 UNK         0.0000 
     47 H47         1.2348   53.6927   21.8195 H         1 UNK         0.0000 
     48 H48         6.1676   55.5819   22.9904 H         1 UNK         0.0000 
     49 H49         7.1046   54.1720   22.8531 H         1 UNK         0.0000 
     50 H50         3.6338   54.3148   20.4917 H         1 UNK         0.0000 
     51 H51         6.3120   53.2472   19.0117 H         1 UNK         0.0000 
     52 H52         7.2306   54.4786   17.0770 H         1 UNK         0.0000 
     53 H53         6.0158   56.9341   21.2454 H         1 UNK         0.0000 
     54 H54         7.9544   59.2911   17.4772 H         1 UNK         0.0000 
     55 H55         6.2623   58.8720   17.2668 H         1 UNK         0.0000 
@<TRIPOS>BOND
     1    1    2 1    
     2    1   38 1    
     3    1   39 1    
     4    1   40 1    
     5    2    3 2    
     6    2    4 am   BACKBONE|DICT|INTERRES
     7    4    5 1    
     8    4   41 1    
     9    5   10 ar   
    10    5    6 ar   
    11    6    7 ar   
    12    6   42 1    
    13    7    8 ar   
    14    7   43 1    
    15    8    9 ar   
    16    8   11 1    
    17    9   10 ar   
    18    9   44 1    
    19   10   45 1    
    20   11   12 am   BACKBONE|DICT|INTERRES
    21   11   46 1    
    22   12   13 2    
    23   12   14 1    
    24   14   18 ar   
    25   14   15 ar   
    26   15   16 ar   
    27   15   47 1    
    28   16   24 1    
    29   16   17 ar   
    30   17   18 ar   
    31   17   19 1    
    32   19   20 1    
    33   19   21 1    
    34   19   34 1    
    35   21   22 1    
    36   21   48 1    
    37   21   49 1    
    38   22   23 1    
    39   22   24 1    
    40   22   25 1    
    41   24   50 1    
    42   25   30 ar   
    43   25   26 ar   
    44   26   27 ar   
    45   26   51 1    
    46   27   28 ar   
    47   27   52 1    
    48   28   33 1    
    49   28   29 ar   
    50   29   30 ar   
    51   29   31 1    
    52   30   53 1    
    53   31   32 1    
    54   32   33 1    
    55   32   54 1    
    56   32   55 1    
    57   34   35 1    
    58   34   36 1    
    59   34   37 1    
@<TRIPOS>SUBSTRUCTURE
     1 UNK         1 GROUP             0       ****    0 ROOT    
