@<TRIPOS>MOLECULE
ZINC02196000_2692
49   53    1
SMALL
USER_CHARGES


@<TRIPOS>ATOM
      1 C1         -0.4956   52.0961   30.1648 C.ar      1 UNK         0.0000 
      2 C2          0.4216   53.0579   30.5762 C.ar      1 UNK         0.0000 
      3 C3          1.2836   53.6493   29.6538 C.ar      1 UNK         0.0000 
      4 C4          1.2208   53.2694   28.2947 C.ar      1 UNK         0.0000 
      5 C5          0.2726   52.2867   27.8839 C.ar      1 UNK         0.0000 
      6 C6         -0.5794   51.6969   28.8361 C.ar      1 UNK         0.0000 
      7 N7          0.1832   51.9261   26.5755 N.ar      1 UNK         0.0000 
      8 C8          0.9838   52.5016   25.6779 C.ar      1 UNK         0.0000 
      9 C9          1.0718   52.4020   24.2584 C.ar      1 UNK         0.0000 
     10 C10         2.1179   53.2299   23.8743 C.ar      1 UNK         0.0000 
     11 N11         2.6589   53.8548   24.9969 N.pl3     1 UNK         0.0000 
     12 C12         1.9375   53.4474   26.1057 C.ar      1 UNK         0.0000 
     13 N13         2.0540   53.8331   27.3802 N.ar      1 UNK         0.0000 
     14 C14         3.7856   54.7971   25.0345 C.3       1 UNK         0.0000 
     15 C15         5.0782   54.1415   25.5618 C.3       1 UNK         0.0000 
     16 H16         5.3348   53.2970   24.9277 H         1 UNK         0.0000 
     17 C17         6.2712   55.0935   25.6844 C.3       1 UNK         0.0000 
     18 C18         6.8618   54.7993   27.0513 C.3       1 UNK         0.0000 
     19 C19         6.0519   53.6418   27.6119 C.3       1 UNK         0.0000 
     20 O20         4.8342   53.7104   26.8974 O.3       1 UNK         0.0000 
     21 N21         2.5941   53.4695   22.6165 N.pl3     1 UNK         0.0000 
     22 S22        -0.0052   51.4130   23.1972 S.o2      1 UNK         0.0000 
     23 O23        -0.0741   52.0967   21.8999 O.2       1 UNK         0.0000 
     24 O24         0.4534   50.0230   23.3059 O.2       1 UNK         0.0000 
     25 C25        -1.6144   51.5383   23.9775 C.ar      1 UNK         0.0000 
     26 C26        -2.3997   52.6707   23.7536 C.ar      1 UNK         0.0000 
     27 C27        -3.6099   52.8192   24.4238 C.ar      1 UNK         0.0000 
     28 C28        -4.0306   51.8341   25.3163 C.ar      1 UNK         0.0000 
     29 C29        -3.2555   50.6954   25.5333 C.ar      1 UNK         0.0000 
     30 C30        -2.0499   50.5406   24.8555 C.ar      1 UNK         0.0000 
     31 Cl31       -5.5179   52.0373   26.1647 Cl        1 UNK         0.0000 
     32 H32        -1.1557   51.6307   30.8819 H         1 UNK         0.0000 
     33 H33         0.4610   53.3404   31.6177 H         1 UNK         0.0000 
     34 H34         1.9986   54.3967   29.9666 H         1 UNK         0.0000 
     35 H35        -1.2908   50.9397   28.5328 H         1 UNK         0.0000 
     36 H36         3.9474   55.2116   24.0429 H         1 UNK         0.0000 
     37 H37         3.5044   55.6287   25.6808 H         1 UNK         0.0000 
     38 H38         7.0037   54.9337   24.8918 H         1 UNK         0.0000 
     39 H39         5.9499   56.1326   25.6793 H         1 UNK         0.0000 
     40 H40         7.9045   54.5078   27.0103 H         1 UNK         0.0000 
     41 H41         6.7689   55.6873   27.6814 H         1 UNK         0.0000 
     42 H42         6.5176   52.6721   27.4412 H         1 UNK         0.0000 
     43 H43         5.8764   53.7190   28.6844 H         1 UNK         0.0000 
     44 H44         2.1090   53.0970   21.8088 H         1 UNK         0.0000 
     45 H45         3.3666   54.0880   22.4257 H         1 UNK         0.0000 
     46 H46        -2.0637   53.4430   23.0784 H         1 UNK         0.0000 
     47 H47        -4.2157   53.6987   24.2599 H         1 UNK         0.0000 
     48 H48        -3.5779   49.9388   26.2351 H         1 UNK         0.0000 
     49 H49        -1.4392   49.6683   25.0467 H         1 UNK         0.0000 
@<TRIPOS>BOND
     1    1    6 ar   
     2    1    2 ar   
     3    1   32 1    
     4    2    3 ar   
     5    2   33 1    
     6    3    4 ar   
     7    3   34 1    
     8    4   13 ar   
     9    4    5 ar   
    10    5    6 ar   
    11    5    7 ar   
    12    6   35 1    
    13    7    8 ar   
    14    8   12 ar   
    15    8    9 ar   
    16    9   10 ar   
    17    9   22 1    
    18   10   11 ar   
    19   10   21 1    
    20   11   12 ar   
    21   11   14 1    
    22   12   13 ar   
    23   14   15 1    
    24   14   36 1    
    25   14   37 1    
    26   15   16 1    
    27   15   20 1    
    28   15   17 1    
    29   17   18 1    
    30   17   38 1    
    31   17   39 1    
    32   18   19 1    
    33   18   40 1    
    34   18   41 1    
    35   19   20 1    
    36   19   42 1    
    37   19   43 1    
    38   21   44 1    
    39   21   45 1    
    40   22   23 2    
    41   22   24 2    
    42   22   25 1    
    43   25   30 ar   
    44   25   26 ar   
    45   26   27 ar   
    46   26   46 1    
    47   27   28 ar   
    48   27   47 1    
    49   28   29 ar   
    50   28   31 1    
    51   29   30 ar   
    52   29   48 1    
    53   30   49 1    
@<TRIPOS>SUBSTRUCTURE
     1 UNK         1 GROUP             0       ****    0 ROOT    
