@<TRIPOS>MOLECULE
ZINC02086532_4517
61   65    1
SMALL
USER_CHARGES


@<TRIPOS>ATOM
      1 C1         -0.4900   47.7747   16.5083 C.3       1 UNK         0.0000 
      2 C2          0.3957   46.9525   17.4791 C.3       1 UNK         0.0000 
      3 C3         -0.0844   45.4795   17.4403 C.3       1 UNK         0.0000 
      4 C4          1.8484   46.9771   16.9388 C.3       1 UNK         0.0000 
      5 C5          0.3470   47.5041   18.9575 C.3       1 UNK         0.0000 
      6 H6          0.9364   46.8026   19.5539 H         1 UNK         0.0000 
      7 C7         -1.0823   47.5784   19.5645 C.3       1 UNK         0.0000 
      8 C8         -1.0883   47.8170   21.0905 C.3       1 UNK         0.0000 
      9 C9         -0.0645   48.8973   21.4750 C.2       1 UNK         0.0000 
     10 C10         0.8614   49.3833   20.5384 C.2       1 UNK         0.0000 
     11 S11         1.8196   50.6728   21.1627 S.3       1 UNK         0.0000 
     12 C12         1.0415   50.5464   22.7180 C.2       1 UNK         0.0000 
     13 C13         0.1206   49.4710   22.7628 C.2       1 UNK         0.0000 
     14 C14        -0.6521   49.0774   23.9323 C.2       1 UNK         0.0000 
     15 O15        -1.8234   48.7161   23.8622 O.2       1 UNK         0.0000 
     16 N16        -0.0132   49.1247   25.1055 N.am      1 UNK         0.0000 
     17 N17         1.3897   51.3959   23.7658 N.am      1 UNK         0.0000 
     18 C18         1.9040   52.6447   23.6906 C.2       1 UNK         0.0000 
     19 O19         2.0164   53.3048   22.6574 O.2       1 UNK         0.0000 
     20 C20         2.3236   53.2234   25.0234 C.ar      1 UNK         0.0000 
     21 C21         1.5054   53.0369   26.1445 C.ar      1 UNK         0.0000 
     22 C22         1.9344   53.4510   27.4048 C.ar      1 UNK         0.0000 
     23 N23         3.1232   54.0668   27.6060 N.ar      1 UNK         0.0000 
     24 C24         3.9545   54.2536   26.5452 C.ar      1 UNK         0.0000 
     25 C25         3.5988   53.8668   25.2111 C.ar      1 UNK         0.0000 
     26 C26         4.5621   54.0967   24.1784 C.ar      1 UNK         0.0000 
     27 C27         5.8020   54.6609   24.4642 C.ar      1 UNK         0.0000 
     28 C28         6.1357   55.0173   25.7613 C.ar      1 UNK         0.0000 
     29 C29         5.2296   54.8220   26.7985 C.ar      1 UNK         0.0000 
     30 C30         1.1286   53.2066   28.6399 C.2       1 UNK         0.0000 
     31 C31         1.1600   53.8707   29.8685 C.2       1 UNK         0.0000 
     32 C32         0.3057   53.3157   30.8262 C.2       1 UNK         0.0000 
     33 C33        -0.3886   52.2199   30.3452 C.2       1 UNK         0.0000 
     34 S34        -0.0114   51.8820   28.6906 S.3       1 UNK         0.0000 
     35 C35         1.0002   48.9107   19.0999 C.3       1 UNK         0.0000 
     36 H36        -0.4296   47.3848   15.4898 H         1 UNK         0.0000 
     37 H37        -0.1885   48.8216   16.4577 H         1 UNK         0.0000 
     38 H38        -1.5451   47.7519   16.7875 H         1 UNK         0.0000 
     39 H39         0.4634   44.8606   18.1515 H         1 UNK         0.0000 
     40 H40        -1.1456   45.3799   17.6640 H         1 UNK         0.0000 
     41 H41         0.0608   45.0393   16.4517 H         1 UNK         0.0000 
     42 H42         2.5433   46.4976   17.6280 H         1 UNK         0.0000 
     43 H43         1.9348   46.4699   15.9794 H         1 UNK         0.0000 
     44 H44         2.2098   47.9917   16.7784 H         1 UNK         0.0000 
     45 H45        -1.6855   48.3235   19.0428 H         1 UNK         0.0000 
     46 H46        -1.6118   46.6406   19.3978 H         1 UNK         0.0000 
     47 H47        -2.0956   48.1217   21.3752 H         1 UNK         0.0000 
     48 H48        -0.8940   46.8812   21.6189 H         1 UNK         0.0000 
     49 H49         0.9967   49.1261   25.1303 H         1 UNK         0.0000 
     50 H50        -0.5236   48.8826   25.9483 H         1 UNK         0.0000 
     51 H51         1.0538   51.1135   24.6725 H         1 UNK         0.0000 
     52 H52         0.5421   52.5526   26.0483 H         1 UNK         0.0000 
     53 H53         4.3507   53.8197   23.1563 H         1 UNK         0.0000 
     54 H54         6.5156   54.8219   23.6686 H         1 UNK         0.0000 
     55 H55         7.1029   55.4494   25.9651 H         1 UNK         0.0000 
     56 H56         5.4965   55.1029   27.8102 H         1 UNK         0.0000 
     57 H57         1.7933   54.7252   30.0596 H         1 UNK         0.0000 
     58 H58         0.1984   53.6879   31.8354 H         1 UNK         0.0000 
     59 H59        -1.0949   51.6005   30.8806 H         1 UNK         0.0000 
     60 H60         2.0554   48.8876   18.8252 H         1 UNK         0.0000 
     61 H61         0.5171   49.6337   18.4393 H         1 UNK         0.0000 
@<TRIPOS>BOND
     1    1    2 1    
     2    1   36 1    
     3    1   37 1    
     4    1   38 1    
     5    2    3 1    
     6    2    4 1    
     7    2    5 1    
     8    3   39 1    
     9    3   40 1    
    10    3   41 1    
    11    4   42 1    
    12    4   43 1    
    13    4   44 1    
    14    5    6 1    
    15    5   35 1    
    16    5    7 1    
    17    7    8 1    
    18    7   45 1    
    19    7   46 1    
    20    8    9 1    
    21    8   47 1    
    22    8   48 1    
    23    9   13 1    
    24    9   10 2    
    25   10   11 1    
    26   10   35 1    
    27   11   12 1    
    28   12   13 2    
    29   12   17 am   BACKBONE|DICT|INTERRES
    30   13   14 1    
    31   14   15 2    
    32   14   16 am   BACKBONE|DICT|INTERRES
    33   16   49 1    
    34   16   50 1    
    35   17   18 am   BACKBONE|DICT|INTERRES
    36   17   51 1    
    37   18   19 2    
    38   18   20 1    
    39   20   25 ar   
    40   20   21 ar   
    41   21   22 ar   
    42   21   52 1    
    43   22   23 ar   
    44   22   30 1    
    45   23   24 ar   
    46   24   29 ar   
    47   24   25 ar   
    48   25   26 ar   
    49   26   27 ar   
    50   26   53 1    
    51   27   28 ar   
    52   27   54 1    
    53   28   29 ar   
    54   28   55 1    
    55   29   56 1    
    56   30   34 1    
    57   30   31 2    
    58   31   32 1    
    59   31   57 1    
    60   32   33 2    
    61   32   58 1    
    62   33   34 1    
    63   33   59 1    
    64   35   60 1    
    65   35   61 1    
@<TRIPOS>SUBSTRUCTURE
     1 UNK         1 GROUP             0       ****    0 ROOT    
