@<TRIPOS>MOLECULE
ZINC21348695_832
59   61    1
SMALL
USER_CHARGES


@<TRIPOS>ATOM
      1 C1          3.2504   52.2363   31.0894 C.3       1 UNK         0.0000 
      2 C2          2.0353   52.3902   30.1529 C.3       1 UNK         0.0000 
      3 H3          1.3731   51.5580   30.3857 H         1 UNK         0.0000 
      4 C4          1.1984   53.6491   30.4588 C.3       1 UNK         0.0000 
      5 C5         -0.1417   53.5969   29.7018 C.3       1 UNK         0.0000 
      6 C6          0.0669   53.4185   28.1839 C.3       1 UNK         0.0000 
      7 C7          0.9543   52.1948   27.8769 C.3       1 UNK         0.0000 
      8 C8          2.3097   52.2856   28.6134 C.3       1 UNK         0.0000 
      9 H9          2.7965   51.3233   28.4423 H         1 UNK         0.0000 
     10 N10         3.2118   53.2851   28.0026 N.am      1 UNK         0.0000 
     11 C11         4.5506   53.2979   28.1453 C.2       1 UNK         0.0000 
     12 O12         5.1044   52.4936   28.8817 O.2       1 UNK         0.0000 
     13 C13         5.4080   54.3028   27.3371 C.3       1 UNK         0.0000 
     14 H14         5.0843   55.2961   27.6544 H         1 UNK         0.0000 
     15 C15         6.9220   54.1410   27.6603 C.3       1 UNK         0.0000 
     16 O16         5.1171   54.1030   25.9419 O.3       1 UNK         0.0000 
     17 C17         5.6959   54.8228   24.9293 C.2       1 UNK         0.0000 
     18 O18         6.5524   55.6929   25.1042 O.2       1 UNK         0.0000 
     19 C19         5.2019   54.4226   23.5718 C.ar      1 UNK         0.0000 
     20 C20         3.9975   53.7192   23.4088 C.ar      1 UNK         0.0000 
     21 C21         3.5008   53.4428   22.1358 C.ar      1 UNK         0.0000 
     22 C22         4.1910   53.8718   21.0065 C.ar      1 UNK         0.0000 
     23 C23         5.3919   54.5673   21.1453 C.ar      1 UNK         0.0000 
     24 C24         5.9065   54.8228   22.4229 C.ar      1 UNK         0.0000 
     25 S25         6.2270   55.1589   19.6775 S.o2      1 UNK         0.0000 
     26 O26         5.2522   55.9208   18.8888 O.2       1 UNK         0.0000 
     27 O27         7.4983   55.7623   20.0945 O.2       1 UNK         0.0000 
     28 N28         6.5894   53.6967   18.7471 N.pl3     1 UNK         0.0000 
     29 C29         7.2292   53.7407   17.5037 C.ar      1 UNK         0.0000 
     30 C30         6.7533   52.9048   16.4915 C.ar      1 UNK         0.0000 
     31 C31         7.3744   52.8952   15.2456 C.ar      1 UNK         0.0000 
     32 C32         8.4703   53.7241   15.0155 C.ar      1 UNK         0.0000 
     33 C33         8.9570   54.5531   16.0246 C.ar      1 UNK         0.0000 
     34 C34         8.3391   54.5604   17.2725 C.ar      1 UNK         0.0000 
     35 F35         9.0697   53.7185   13.8043 F         1 UNK         0.0000 
     36 H36         3.9033   53.1075   31.0560 H         1 UNK         0.0000 
     37 H37         2.9329   52.1072   32.1244 H         1 UNK         0.0000 
     38 H38         3.8517   51.3646   30.8325 H         1 UNK         0.0000 
     39 H39         1.7633   54.5589   30.2493 H         1 UNK         0.0000 
     40 H40         0.9779   53.6865   31.5269 H         1 UNK         0.0000 
     41 H41        -0.7424   52.7699   30.0848 H         1 UNK         0.0000 
     42 H42        -0.7131   54.4967   29.9065 H         1 UNK         0.0000 
     43 H43        -0.8944   53.3146   27.6798 H         1 UNK         0.0000 
     44 H44         0.5424   54.3137   27.7830 H         1 UNK         0.0000 
     45 H45         0.4312   51.2831   28.1728 H         1 UNK         0.0000 
     46 H46         1.1140   52.1018   26.8015 H         1 UNK         0.0000 
     47 H47         2.7705   54.0393   27.4987 H         1 UNK         0.0000 
     48 H48         7.1070   54.0961   28.7351 H         1 UNK         0.0000 
     49 H49         7.3270   53.2255   27.2272 H         1 UNK         0.0000 
     50 H50         7.5041   54.9811   27.2891 H         1 UNK         0.0000 
     51 H51         3.4156   53.3999   24.2626 H         1 UNK         0.0000 
     52 H52         2.5647   52.9155   22.0241 H         1 UNK         0.0000 
     53 H53         3.7776   53.6807   20.0266 H         1 UNK         0.0000 
     54 H54         6.8334   55.3749   22.5206 H         1 UNK         0.0000 
     55 H55         5.9025   52.9642   18.8399 H         1 UNK         0.0000 
     56 H56         5.9077   52.2536   16.6691 H         1 UNK         0.0000 
     57 H57         7.0098   52.2484   14.4601 H         1 UNK         0.0000 
     58 H58         9.8131   55.1837   15.8381 H         1 UNK         0.0000 
     59 H59         8.7370   55.1965   18.0502 H         1 UNK         0.0000 
@<TRIPOS>BOND
     1    1    2 1    
     2    1   36 1    
     3    1   37 1    
     4    1   38 1    
     5    2    3 1    
     6    2    8 1    
     7    2    4 1    
     8    4    5 1    
     9    4   39 1    
    10    4   40 1    
    11    5    6 1    
    12    5   41 1    
    13    5   42 1    
    14    6    7 1    
    15    6   43 1    
    16    6   44 1    
    17    7    8 1    
    18    7   45 1    
    19    7   46 1    
    20    8    9 1    
    21    8   10 1    
    22   10   11 am   BACKBONE|DICT|INTERRES
    23   10   47 1    
    24   11   12 2    
    25   11   13 1    
    26   13   14 1    
    27   13   15 1    
    28   13   16 1    
    29   15   48 1    
    30   15   49 1    
    31   15   50 1    
    32   16   17 1    
    33   17   18 2    
    34   17   19 1    
    35   19   24 ar   
    36   19   20 ar   
    37   20   21 ar   
    38   20   51 1    
    39   21   22 ar   
    40   21   52 1    
    41   22   23 ar   
    42   22   53 1    
    43   23   24 ar   
    44   23   25 1    
    45   24   54 1    
    46   25   26 2    
    47   25   27 2    
    48   25   28 1    
    49   28   29 1    
    50   28   55 1    
    51   29   34 ar   
    52   29   30 ar   
    53   30   31 ar   
    54   30   56 1    
    55   31   32 ar   
    56   31   57 1    
    57   32   33 ar   
    58   32   35 1    
    59   33   34 ar   
    60   33   58 1    
    61   34   59 1    
@<TRIPOS>SUBSTRUCTURE
     1 UNK         1 GROUP             0       ****    0 ROOT    
