ZINC36050773_5958
                    3D
 Schrodinger Suite 2024-2.
 55 58  0  0  1  0            999 V2000
    5.8063   54.3672   26.0725 C   0  0  0  0  0  0
    4.3497   53.9400   26.2527 C   0  0  0  0  0  0
    3.7960   53.3329   27.3497 C   0  0  0  0  0  0
    2.3003   52.8768   27.3291 C   0  0  2  0  0  0
    2.3038   51.7995   27.4946 H   0  0  0  0  0  0
    1.7386   53.0276   25.9561 N   0  0  0  0  0  0
    0.5395   52.4971   25.5088 C   0  0  0  0  0  0
    0.2570   52.8890   24.2515 C   0  0  0  0  0  0
    1.5055   53.8897   23.5209 S   0  0  0  0  0  0
    2.4777   53.7026   24.9880 C   0  0  0  0  0  0
    3.6575   54.1709   25.0991 N   0  0  0  0  0  0
   -0.3510   51.6661   26.2999 C   0  0  0  0  0  0
   -1.6927   51.7349   26.3317 C   0  0  0  0  0  0
   -2.4957   52.5089   25.6889 O   0  5  0  0  0  0
   -2.3918   50.8924   27.1626 N   0  0  0  0  0  0
   -3.7168   51.0419   27.7487 C   0  0  0  0  0  0
   -3.7812   50.4109   29.1506 C   0  0  0  0  0  0
   -5.0203   50.7425   29.9732 C   0  0  0  0  0  0
   -5.0136   50.4946   31.3458 C   0  0  0  0  0  0
   -6.1444   50.8217   32.0968 C   0  0  0  0  0  0
   -7.2525   51.3837   31.4611 C   0  0  0  0  0  0
   -7.1881   51.5998   30.0812 C   0  0  0  0  0  0
   -6.0939   51.2904   29.3377 N   0  0  0  0  0  0
    1.4545   53.4831   28.4743 C   0  0  0  0  0  0
    0.6882   52.6340   29.2882 C   0  0  0  0  0  0
    0.1110   53.1061   30.4656 C   0  0  0  0  0  0
    0.3063   54.4291   30.8560 C   0  0  0  0  0  0
    1.0647   55.2855   30.0575 C   0  0  0  0  0  0
    1.5963   54.8307   28.8522 C   0  0  0  0  0  0
    2.3043   55.6947   28.0964 F   0  0  0  0  0  0
    4.5369   53.1225   28.6123 C   0  0  0  0  0  0
    5.5902   53.7008   28.8806 O   0  0  0  0  0  0
    3.9072   52.2621   29.4598 O   0  0  0  0  0  0
    4.3043   52.0968   30.8084 C   0  0  0  0  0  0
    6.4893   53.6667   26.5548 H   0  0  0  0  0  0
    6.1064   54.4037   25.0238 H   0  0  0  0  0  0
    5.9611   55.3564   26.5071 H   0  0  0  0  0  0
   -0.6336   52.6318   23.6942 H   0  0  0  0  0  0
    0.1264   50.9201   26.9197 H   0  0  0  0  0  0
   -1.9863   49.9868   27.3726 H   0  0  0  0  0  0
   -3.9608   52.0972   27.8121 H   0  0  0  0  0  0
   -4.4353   50.5602   27.0834 H   0  0  0  0  0  0
   -3.6985   49.3267   29.0656 H   0  0  0  0  0  0
   -2.9073   50.7262   29.7234 H   0  0  0  0  0  0
   -4.1409   50.0731   31.8293 H   0  0  0  0  0  0
   -6.1528   50.6460   33.1641 H   0  0  0  0  0  0
   -8.1407   51.6410   32.0215 H   0  0  0  0  0  0
   -8.0252   52.0287   29.5497 H   0  0  0  0  0  0
    0.5737   51.5885   29.0380 H   0  0  0  0  0  0
   -0.4683   52.4399   31.0936 H   0  0  0  0  0  0
   -0.1122   54.7807   31.7869 H   0  0  0  0  0  0
    1.2129   56.3144   30.3544 H   0  0  0  0  0  0
    3.5965   51.4475   31.3216 H   0  0  0  0  0  0
    5.2893   51.6427   30.8796 H   0  0  0  0  0  0
    4.3043   53.0530   31.3333 H   0  0  0  0  0  0
  1  2  1  0  0  0
  1 35  1  0  0  0
  1 36  1  0  0  0
  1 37  1  0  0  0
  2 11  1  0  0  0
  2  3  2  0  0  0
  3  4  1  0  0  0
  3 31  1  0  0  0
  4  5  1  0  0  0
  4  6  1  0  0  0
  4 24  1  0  0  0
  6 10  1  0  0  0
  6  7  1  0  0  0
  7  8  2  0  0  0
  7 12  1  0  0  0
  8  9  1  0  0  0
  8 38  1  0  0  0
  9 10  1  0  0  0
 10 11  2  0  0  0
 12 13  2  0  0  0
 12 39  1  0  0  0
 13 14  1  0  0  0
 13 15  1  0  0  0
 15 16  1  0  0  0
 15 40  1  0  0  0
 16 17  1  0  0  0
 16 41  1  0  0  0
 16 42  1  0  0  0
 17 18  1  0  0  0
 17 43  1  0  0  0
 17 44  1  0  0  0
 18 23  2  0  0  0
 18 19  1  0  0  0
 19 20  2  0  0  0
 19 45  1  0  0  0
 20 21  1  0  0  0
 20 46  1  0  0  0
 21 22  2  0  0  0
 21 47  1  0  0  0
 22 23  1  0  0  0
 22 48  1  0  0  0
 24 29  2  0  0  0
 24 25  1  0  0  0
 25 26  2  0  0  0
 25 49  1  0  0  0
 26 27  1  0  0  0
 26 50  1  0  0  0
 27 28  2  0  0  0
 27 51  1  0  0  0
 28 29  1  0  0  0
 28 52  1  0  0  0
 29 30  1  0  0  0
 31 32  2  0  0  0
 31 33  1  0  0  0
 33 34  1  0  0  0
 34 53  1  0  0  0
 34 54  1  0  0  0
 34 55  1  0  0  0
M  CHG  1  14  -1
M  END
> <i_i_glide_confnum>
137

> <i_i_glide_lignum>
5959

> <i_i_glide_posenum>
189

> <i_i_glide_rotatable_bonds>
8

> <i_m_Source_File_Index>
5199

> <b_m_subgroup_collapsed>
0

> <r_i_docking_score>
-6.65328

> <r_i_glide_ecoul>
-3.72156

> <r_i_glide_eff_state_penalty>
0

> <r_i_glide_einternal>
7.07572

> <r_i_glide_emodel>
-67.7595

> <r_i_glide_energy>
-51.6164

> <r_i_glide_erotb>
0.55838

> <r_i_glide_esite>
-0.0919242

> <r_i_glide_evdw>
-47.8949

> <r_i_glide_gscore>
-6.65328

> <r_i_glide_hbond>
-0.16

> <r_i_glide_ligand_efficiency>
-0.201614

> <r_i_glide_ligand_efficiency_ln>
-1.47965

> <r_i_glide_ligand_efficiency_sa>
-0.646685

> <r_i_glide_lipo>
-2.75202

> <r_i_glide_metal>
0

> <r_i_glide_rewards>
-1.25474

> <s_i_glide_gridfile>
wee1_glide-grid

> <s_m_Source_File>
wee1_decoys_glide_SP.sdf

> <s_m_Source_Path>
/Users/zhangxujun/Desktop

> <s_m_entry_id>
5474

> <s_m_entry_name>
wee1_decoys_glide_SP.5199

> <s_m_subgroup_title>
wee1_decoys_glide_SP

> <s_m_subgroupid>
wee1_decoys_glide_SP


$$$$
