@<TRIPOS>MOLECULE
ZINC45292978_5817
51   53    1
SMALL
USER_CHARGES


@<TRIPOS>ATOM
      1 C1          5.7516   57.9669   17.1096 C.3       1 UNK         0.0000 
      2 C2          5.5110   56.7545   17.9899 C.ar      1 UNK         0.0000 
      3 C3          4.6534   55.7208   17.5958 C.ar      1 UNK         0.0000 
      4 C4          4.4933   54.6604   18.4926 C.ar      1 UNK         0.0000 
      5 N5          5.1160   54.6276   19.7005 N.ar      1 UNK         0.0000 
      6 C6          5.9303   55.6765   19.9899 C.ar      1 UNK         0.0000 
      7 N7          6.1715   56.7399   19.1795 N.ar      1 UNK         0.0000 
      8 S8          6.7315   55.6966   21.5583 S.3       1 UNK         0.0000 
      9 C9          5.9122   54.4733   22.6230 C.3       1 UNK         0.0000 
     10 C10         6.0854   54.7247   24.1245 C.2       1 UNK         0.0000 
     11 O11         7.1030   55.2541   24.5753 O.2       1 UNK         0.0000 
     12 N12         5.0474   54.3250   24.8795 N.am      1 UNK         0.0000 
     13 C13         4.9812   54.2444   26.2754 C.ar      1 UNK         0.0000 
     14 C14         6.1013   54.0478   27.0985 C.ar      1 UNK         0.0000 
     15 C15         5.9351   53.8577   28.4674 C.ar      1 UNK         0.0000 
     16 C16         4.6549   53.8395   29.0192 C.ar      1 UNK         0.0000 
     17 C17         3.5373   54.0457   28.2086 C.ar      1 UNK         0.0000 
     18 C18         3.7080   54.2676   26.8416 C.ar      1 UNK         0.0000 
     19 S19         1.8921   53.9773   28.9088 S.o2      1 UNK         0.0000 
     20 O20         2.0758   54.3242   30.3201 O.2       1 UNK         0.0000 
     21 O21         1.1045   54.8977   28.0820 O.2       1 UNK         0.0000 
     22 N22         1.5563   52.4581   28.7091 N.2       1 UNK         0.0000 
     23 C23         0.6945   52.1000   27.7098 C.ar      1 UNK         0.0000 
     24 C24        -0.5873   51.6437   28.0253 C.ar      1 UNK         0.0000 
     25 C25        -1.4970   51.2968   27.0257 C.ar      1 UNK         0.0000 
     26 C26        -1.1332   51.4109   25.6849 C.ar      1 UNK         0.0000 
     27 C27         0.1496   51.8444   25.3358 C.ar      1 UNK         0.0000 
     28 C28         1.0520   52.1631   26.3577 C.ar      1 UNK         0.0000 
     29 C29         0.5551   51.9778   23.8675 C.3       1 UNK         0.0000 
     30 F30        -0.4438   52.4932   23.1498 F         1 UNK         0.0000 
     31 F31         1.6173   52.7717   23.7160 F         1 UNK         0.0000 
     32 F32         0.8572   50.7753   23.3802 F         1 UNK         0.0000 
     33 C33         3.6069   53.4723   18.1751 C.3       1 UNK         0.0000 
     34 H34         6.7711   57.9585   16.7203 H         1 UNK         0.0000 
     35 H35         5.6130   58.8906   17.6749 H         1 UNK         0.0000 
     36 H36         5.0683   57.9915   16.2596 H         1 UNK         0.0000 
     37 H37         4.1411   55.7369   16.6453 H         1 UNK         0.0000 
     38 H38         4.8514   54.4600   22.3713 H         1 UNK         0.0000 
     39 H39         6.3044   53.4835   22.4065 H         1 UNK         0.0000 
     40 H40         4.2059   54.0517   24.3917 H         1 UNK         0.0000 
     41 H41         7.1007   54.0051   26.6953 H         1 UNK         0.0000 
     42 H42         6.8045   53.7079   29.0908 H         1 UNK         0.0000 
     43 H43         4.5301   53.6643   30.0778 H         1 UNK         0.0000 
     44 H44         2.8420   54.4356   26.2190 H         1 UNK         0.0000 
     45 H45        -0.8840   51.5512   29.0597 H         1 UNK         0.0000 
     46 H46        -2.4809   50.9414   27.2934 H         1 UNK         0.0000 
     47 H47        -1.8454   51.1473   24.9169 H         1 UNK         0.0000 
     48 H48         2.0527   52.4514   26.0963 H         1 UNK         0.0000 
     49 H49         2.7745   53.4208   18.8789 H         1 UNK         0.0000 
     50 H50         3.1971   53.5375   17.1669 H         1 UNK         0.0000 
     51 H51         4.1762   52.5430   18.2418 H         1 UNK         0.0000 
@<TRIPOS>BOND
     1    1    2 1    
     2    1   34 1    
     3    1   35 1    
     4    1   36 1    
     5    2    7 ar   
     6    2    3 ar   
     7    3    4 ar   
     8    3   37 1    
     9    4    5 ar   
    10    4   33 1    
    11    5    6 ar   
    12    6    7 ar   
    13    6    8 1    
    14    8    9 1    
    15    9   10 1    
    16    9   38 1    
    17    9   39 1    
    18   10   11 2    
    19   10   12 am   BACKBONE|DICT|INTERRES
    20   12   13 1    
    21   12   40 1    
    22   13   18 ar   
    23   13   14 ar   
    24   14   15 ar   
    25   14   41 1    
    26   15   16 ar   
    27   15   42 1    
    28   16   17 ar   
    29   16   43 1    
    30   17   18 ar   
    31   17   19 1    
    32   18   44 1    
    33   19   20 2    
    34   19   21 2    
    35   19   22 1    
    36   22   23 1    
    37   23   28 ar   
    38   23   24 ar   
    39   24   25 ar   
    40   24   45 1    
    41   25   26 ar   
    42   25   46 1    
    43   26   27 ar   
    44   26   47 1    
    45   27   28 ar   
    46   27   29 1    
    47   28   48 1    
    48   29   30 1    
    49   29   31 1    
    50   29   32 1    
    51   33   49 1    
    52   33   50 1    
    53   33   51 1    
@<TRIPOS>SUBSTRUCTURE
     1 UNK         1 GROUP             0       ****    0 ROOT    
