@<TRIPOS>MOLECULE
ZINC16804781_2254
38   40    1
SMALL
USER_CHARGES


@<TRIPOS>ATOM
      1 C1          3.2460   54.0507   26.1894 C.ar      1 UNK         0.0000 
      2 C2          4.5398   54.5215   25.9951 C.ar      1 UNK         0.0000 
      3 C3          5.5039   54.3071   26.9742 C.ar      1 UNK         0.0000 
      4 C4          5.1883   53.6141   28.1379 C.ar      1 UNK         0.0000 
      5 C5          3.8962   53.1308   28.3293 C.ar      1 UNK         0.0000 
      6 C6          2.9050   53.3557   27.3598 C.ar      1 UNK         0.0000 
      7 N7          1.5854   52.8444   27.5124 N.pl3     1 UNK         0.0000 
      8 C8          0.7993   52.9677   28.6338 C.2       1 UNK         0.0000 
      9 S9          1.0355   53.7576   30.0817 S.2       1 UNK         0.0000 
     10 S10        -0.6857   52.0950   28.3636 S.3       1 UNK         0.0000 
     11 C11        -0.1477   51.8190   26.7106 C.2       1 UNK         0.0000 
     12 N12         1.0143   52.2343   26.4383 N.2       1 UNK         0.0000 
     13 S13        -1.2485   51.0620   25.5089 S.3       1 UNK         0.0000 
     14 C14        -1.1700   52.3002   24.1671 C.3       1 UNK         0.0000 
     15 C15         0.0370   52.1039   23.2471 C.ar      1 UNK         0.0000 
     16 C16         1.0434   53.0747   23.2819 C.ar      1 UNK         0.0000 
     17 C17         2.1977   52.9429   22.5163 C.ar      1 UNK         0.0000 
     18 C18         2.3698   51.8346   21.6833 C.ar      1 UNK         0.0000 
     19 C19         1.3604   50.8616   21.6398 C.ar      1 UNK         0.0000 
     20 C20         0.1851   50.9843   22.3970 C.ar      1 UNK         0.0000 
     21 N21        -0.8491   49.9299   22.2697 N.pl3     1 UNK         0.0000 
     22 O22        -0.4753   48.7698   22.1261 O.co2     1 UNK         0.0000 
     23 O23        -2.0315   50.2562   22.2562 O.co2     1 UNK         0.0000 
     24 C24         3.6299   51.6958   20.8673 C.2       1 UNK         0.0000 
     25 O25         4.7142   52.0984   21.2817 O.2       1 UNK         0.0000 
     26 N26         3.5043   51.1008   19.6818 N.am      1 UNK         0.0000 
     27 Cl27        7.1044   54.8967   26.7378 Cl        1 UNK         0.0000 
     28 H28         2.5153   54.2118   25.4147 H         1 UNK         0.0000 
     29 H29         4.7956   55.0465   25.0868 H         1 UNK         0.0000 
     30 H30         5.9510   53.4408   28.8810 H         1 UNK         0.0000 
     31 H31         3.6788   52.5671   29.2245 H         1 UNK         0.0000 
     32 H32        -1.1653   53.2971   24.6093 H         1 UNK         0.0000 
     33 H33        -2.0923   52.2636   23.5909 H         1 UNK         0.0000 
     34 H34         0.9332   53.9433   23.9127 H         1 UNK         0.0000 
     35 H35         2.9554   53.7130   22.5698 H         1 UNK         0.0000 
     36 H36         1.4834   49.9902   21.0097 H         1 UNK         0.0000 
     37 H37         2.5948   50.8827   19.3093 H         1 UNK         0.0000 
     38 H38         4.3336   50.9000   19.0968 H         1 UNK         0.0000 
@<TRIPOS>BOND
     1    1    6 ar   
     2    1    2 ar   
     3    1   28 1    
     4    2    3 ar   
     5    2   29 1    
     6    3    4 ar   
     7    3   27 1    
     8    4    5 ar   
     9    4   30 1    
    10    5    6 ar   
    11    5   31 1    
    12    6    7 1    
    13    7   12 1    
    14    7    8 1    
    15    8    9 2    
    16    8   10 1    
    17   10   11 1    
    18   11   12 2    
    19   11   13 1    
    20   13   14 1    
    21   14   15 1    
    22   14   32 1    
    23   14   33 1    
    24   15   20 ar   
    25   15   16 ar   
    26   16   17 ar   
    27   16   34 1    
    28   17   18 ar   
    29   17   35 1    
    30   18   19 ar   
    31   18   24 1    
    32   19   20 ar   
    33   19   36 1    
    34   20   21 1    
    35   21   22 2    
    36   21   23 1    
    37   24   25 2    
    38   24   26 am   BACKBONE|DICT|INTERRES
    39   26   37 1    
    40   26   38 1    
@<TRIPOS>SUBSTRUCTURE
     1 UNK         1 GROUP             0       ****    0 ROOT    
