@<TRIPOS>MOLECULE
ZINC35489157_2878
79   82    1
SMALL
USER_CHARGES


@<TRIPOS>ATOM
      1 C1          6.7692   51.7564   14.4608 C.3       1 UNK         0.0000 
      2 C2          8.0255   52.1947   15.2074 C.ar      1 UNK         0.0000 
      3 C3          9.2646   52.0063   14.5858 C.ar      1 UNK         0.0000 
      4 C4         10.4435   52.3958   15.2195 C.ar      1 UNK         0.0000 
      5 C5         10.3921   52.9781   16.4831 C.ar      1 UNK         0.0000 
      6 C6          9.1650   53.1670   17.1173 C.ar      1 UNK         0.0000 
      7 C7          7.9690   52.7745   16.4912 C.ar      1 UNK         0.0000 
      8 N8          6.7085   52.8967   17.1102 N.am      1 UNK         0.0000 
      9 C9          6.3219   53.6854   18.1289 C.2       1 UNK         0.0000 
     10 O10         7.0172   54.5331   18.6888 O.2       1 UNK         0.0000 
     11 N11         5.0567   53.4069   18.4748 N.am      1 UNK         0.0000 
     12 C12         4.3756   53.9011   19.6673 C.3       1 UNK         0.0000 
     13 C13         4.4617   52.8786   20.8112 C.3       1 UNK         0.0000 
     14 N14         3.9060   53.3705   22.0805 N.am      1 UNK         0.0000 
     15 C15         2.4454   53.1866   22.1991 C.3       1 UNK         0.0000 
     16 C16         2.0543   51.9349   23.0029 C.3       1 UNK         0.0000 
     17 O17         0.6524   51.9133   23.2371 O.3       1 UNK         0.0000 
     18 C18         0.2289   50.9182   24.1750 C.3       1 UNK         0.0000 
     19 H19         0.7908   51.0778   25.0979 H         1 UNK         0.0000 
     20 C20         0.3842   49.4732   23.6309 C.3       1 UNK         0.0000 
     21 C21        -1.0594   48.9166   23.7303 C.3       1 UNK         0.0000 
     22 H22        -1.2188   48.0231   23.1255 H         1 UNK         0.0000 
     23 C23        -1.3676   48.6974   25.2334 C.3       1 UNK         0.0000 
     24 C24        -1.5447   50.1434   25.7446 C.3       1 UNK         0.0000 
     25 C25        -1.3047   51.0003   24.4640 C.3       1 UNK         0.0000 
     26 C26        -1.9486   50.1259   23.3438 C.3       1 UNK         0.0000 
     27 C27        -3.4813   49.8664   23.4886 C.3       1 UNK         0.0000 
     28 C28        -1.7522   50.6342   21.8820 C.3       1 UNK         0.0000 
     29 C29        -1.8524   52.4357   24.6054 C.3       1 UNK         0.0000 
     30 C30         4.7199   53.8700   23.0556 C.2       1 UNK         0.0000 
     31 O31         5.9320   54.0150   22.8887 O.2       1 UNK         0.0000 
     32 N32         4.0934   54.1027   24.2327 N.am      1 UNK         0.0000 
     33 C33         4.6136   54.2622   25.5333 C.ar      1 UNK         0.0000 
     34 C34         5.9600   54.5755   25.7956 C.ar      1 UNK         0.0000 
     35 C35         6.4168   54.6823   27.1079 C.ar      1 UNK         0.0000 
     36 C36         5.5411   54.4961   28.1729 C.ar      1 UNK         0.0000 
     37 C37         4.2058   54.1909   27.9290 C.ar      1 UNK         0.0000 
     38 C38         3.7310   54.0686   26.6194 C.ar      1 UNK         0.0000 
     39 C39         2.2594   53.7092   26.4324 C.3       1 UNK         0.0000 
     40 H40         6.9917   51.0127   13.6949 H         1 UNK         0.0000 
     41 H41         6.0458   51.2958   15.1327 H         1 UNK         0.0000 
     42 H42         6.2902   52.6164   13.9895 H         1 UNK         0.0000 
     43 H43         9.3213   51.5579   13.6037 H         1 UNK         0.0000 
     44 H44        11.3948   52.2394   14.7323 H         1 UNK         0.0000 
     45 H45        11.3056   53.2696   16.9822 H         1 UNK         0.0000 
     46 H46         9.1665   53.5919   18.1088 H         1 UNK         0.0000 
     47 H47         5.9979   52.2918   16.7267 H         1 UNK         0.0000 
     48 H48         4.5971   52.6520   17.9884 H         1 UNK         0.0000 
     49 H49         3.3344   54.0963   19.4110 H         1 UNK         0.0000 
     50 H50         4.7884   54.8612   19.9861 H         1 UNK         0.0000 
     51 H51         5.5039   52.5842   20.9458 H         1 UNK         0.0000 
     52 H52         3.9205   51.9757   20.5259 H         1 UNK         0.0000 
     53 H53         1.9433   53.1691   21.2309 H         1 UNK         0.0000 
     54 H54         1.9971   54.0590   22.6781 H         1 UNK         0.0000 
     55 H55         2.5826   51.9404   23.9553 H         1 UNK         0.0000 
     56 H56         2.3831   51.0410   22.4719 H         1 UNK         0.0000 
     57 H57         1.1040   48.8970   24.2139 H         1 UNK         0.0000 
     58 H58         0.7237   49.4503   22.5947 H         1 UNK         0.0000 
     59 H59        -2.2740   48.1098   25.3827 H         1 UNK         0.0000 
     60 H60        -0.5666   48.1716   25.7558 H         1 UNK         0.0000 
     61 H61        -0.8441   50.3728   26.5496 H         1 UNK         0.0000 
     62 H62        -2.5409   50.2925   26.1642 H         1 UNK         0.0000 
     63 H63        -3.8101   49.0964   22.7906 H         1 UNK         0.0000 
     64 H64        -3.7979   49.5349   24.4758 H         1 UNK         0.0000 
     65 H65        -4.0535   50.7678   23.2660 H         1 UNK         0.0000 
     66 H66        -2.1563   49.9199   21.1643 H         1 UNK         0.0000 
     67 H67        -2.2764   51.5783   21.7249 H         1 UNK         0.0000 
     68 H68        -0.7190   50.7979   21.5872 H         1 UNK         0.0000 
     69 H69        -1.3544   52.9552   25.4224 H         1 UNK         0.0000 
     70 H70        -2.9222   52.4388   24.8170 H         1 UNK         0.0000 
     71 H71        -1.6926   53.0178   23.6979 H         1 UNK         0.0000 
     72 H72         3.0977   53.9576   24.2178 H         1 UNK         0.0000 
     73 H73         6.6715   54.7396   25.0022 H         1 UNK         0.0000 
     74 H74         7.4511   54.9126   27.3097 H         1 UNK         0.0000 
     75 H75         5.9032   54.5927   29.1867 H         1 UNK         0.0000 
     76 H76         3.5398   54.0409   28.7653 H         1 UNK         0.0000 
     77 H77         1.6532   54.1382   27.2313 H         1 UNK         0.0000 
     78 H78         1.8415   54.0944   25.5029 H         1 UNK         0.0000 
     79 H79         2.1331   52.6273   26.4559 H         1 UNK         0.0000 
@<TRIPOS>BOND
     1    1    2 1    
     2    1   40 1    
     3    1   41 1    
     4    1   42 1    
     5    2    7 ar   
     6    2    3 ar   
     7    3    4 ar   
     8    3   43 1    
     9    4    5 ar   
    10    4   44 1    
    11    5    6 ar   
    12    5   45 1    
    13    6    7 ar   
    14    6   46 1    
    15    7    8 1    
    16    8    9 am   BACKBONE|DICT|INTERRES
    17    8   47 1    
    18    9   10 2    
    19    9   11 am   BACKBONE|DICT|INTERRES
    20   11   12 1    
    21   11   48 1    
    22   12   13 1    
    23   12   49 1    
    24   12   50 1    
    25   13   14 1    
    26   13   51 1    
    27   13   52 1    
    28   14   15 1    
    29   14   30 am   BACKBONE|DICT|INTERRES
    30   15   16 1    
    31   15   53 1    
    32   15   54 1    
    33   16   17 1    
    34   16   55 1    
    35   16   56 1    
    36   17   18 1    
    37   18   19 1    
    38   18   25 1    
    39   18   20 1    
    40   20   21 1    
    41   20   57 1    
    42   20   58 1    
    43   21   22 1    
    44   21   26 1    
    45   21   23 1    
    46   23   24 1    
    47   23   59 1    
    48   23   60 1    
    49   24   25 1    
    50   24   61 1    
    51   24   62 1    
    52   25   26 1    
    53   25   29 1    
    54   26   27 1    
    55   26   28 1    
    56   27   63 1    
    57   27   64 1    
    58   27   65 1    
    59   28   66 1    
    60   28   67 1    
    61   28   68 1    
    62   29   69 1    
    63   29   70 1    
    64   29   71 1    
    65   30   31 2    
    66   30   32 am   BACKBONE|DICT|INTERRES
    67   32   33 1    
    68   32   72 1    
    69   33   38 ar   
    70   33   34 ar   
    71   34   35 ar   
    72   34   73 1    
    73   35   36 ar   
    74   35   74 1    
    75   36   37 ar   
    76   36   75 1    
    77   37   38 ar   
    78   37   76 1    
    79   38   39 1    
    80   39   77 1    
    81   39   78 1    
    82   39   79 1    
@<TRIPOS>SUBSTRUCTURE
     1 UNK         1 GROUP             0       ****    0 ROOT    
