@<TRIPOS>MOLECULE
ZINC36836440_1536
50   52    1
SMALL
USER_CHARGES


@<TRIPOS>ATOM
      1 C1          8.0415   57.2740   18.7078 C.3       1 UNK         0.0000 
      2 C2          8.1526   56.5968   17.3254 C.3       1 UNK         0.0000 
      3 H3          8.2586   57.4106   16.6044 H         1 UNK         0.0000 
      4 C4          9.4882   55.8134   17.1952 C.3       1 UNK         0.0000 
      5 C5          9.7429   55.3237   15.7543 C.3       1 UNK         0.0000 
      6 C6          8.5618   54.5071   15.1961 C.3       1 UNK         0.0000 
      7 C7          7.2217   55.2611   15.3514 C.3       1 UNK         0.0000 
      8 C8          6.9247   55.7734   16.7942 C.3       1 UNK         0.0000 
      9 C9          6.5856   54.5992   17.7229 C.2       1 UNK         0.0000 
     10 O10         7.3452   53.6969   18.0797 O.2       1 UNK         0.0000 
     11 N11         5.2921   54.7672   18.0778 N.am      1 UNK         0.0000 
     12 C12         4.7046   55.8570   17.5299 C.2       1 UNK         0.0000 
     13 O13         3.5043   56.1084   17.4603 O.2       1 UNK         0.0000 
     14 N14         5.6829   56.4976   16.8865 N.am      1 UNK         0.0000 
     15 C15         4.6239   53.9697   19.1284 C.3       1 UNK         0.0000 
     16 C16         5.0146   54.4138   20.5529 C.2       1 UNK         0.0000 
     17 O17         5.9110   55.2373   20.7510 O.2       1 UNK         0.0000 
     18 N18         4.2716   53.8584   21.5293 N.am      1 UNK         0.0000 
     19 C19         4.4256   54.0159   22.9151 C.ar      1 UNK         0.0000 
     20 C20         5.6683   54.2404   23.5248 C.ar      1 UNK         0.0000 
     21 C21         5.7484   54.3712   24.9058 C.ar      1 UNK         0.0000 
     22 C22         4.5924   54.2705   25.6821 C.ar      1 UNK         0.0000 
     23 C23         3.3554   54.0330   25.0816 C.ar      1 UNK         0.0000 
     24 C24         3.2746   53.8970   23.6978 C.ar      1 UNK         0.0000 
     25 S25         4.7123   54.4853   27.4515 S.o2      1 UNK         0.0000 
     26 O26         3.3949   54.8965   27.9479 O.2       1 UNK         0.0000 
     27 O27         5.9083   55.2952   27.6818 O.2       1 UNK         0.0000 
     28 C28         5.0761   52.7984   28.1384 C.3       1 UNK         0.0000 
     29 H29         8.0234   56.5353   19.5106 H         1 UNK         0.0000 
     30 H30         8.8914   57.9348   18.8817 H         1 UNK         0.0000 
     31 H31         7.1378   57.8794   18.7899 H         1 UNK         0.0000 
     32 H32        10.3163   56.4667   17.4762 H         1 UNK         0.0000 
     33 H33         9.5385   54.9945   17.9141 H         1 UNK         0.0000 
     34 H34         9.9225   56.1832   15.1065 H         1 UNK         0.0000 
     35 H35        10.6544   54.7253   15.7230 H         1 UNK         0.0000 
     36 H36         8.7373   54.2737   14.1452 H         1 UNK         0.0000 
     37 H37         8.5103   53.5453   15.7084 H         1 UNK         0.0000 
     38 H38         6.4014   54.6245   15.0119 H         1 UNK         0.0000 
     39 H39         7.1301   56.0901   14.6477 H         1 UNK         0.0000 
     40 H40         5.6289   57.4773   16.6490 H         1 UNK         0.0000 
     41 H41         4.9037   52.9211   19.0075 H         1 UNK         0.0000 
     42 H42         3.5392   54.0133   19.0107 H         1 UNK         0.0000 
     43 H43         3.4362   53.3759   21.2349 H         1 UNK         0.0000 
     44 H44         6.5768   54.3093   22.9446 H         1 UNK         0.0000 
     45 H45         6.7091   54.5503   25.3660 H         1 UNK         0.0000 
     46 H46         2.4601   53.9562   25.6816 H         1 UNK         0.0000 
     47 H47         2.3131   53.7145   23.2402 H         1 UNK         0.0000 
     48 H48         5.1599   52.8813   29.2201 H         1 UNK         0.0000 
     49 H49         6.0247   52.4879   27.7090 H         1 UNK         0.0000 
     50 H50         4.2623   52.1264   27.8749 H         1 UNK         0.0000 
@<TRIPOS>BOND
     1    1    2 1    
     2    1   29 1    
     3    1   30 1    
     4    1   31 1    
     5    2    3 1    
     6    2    8 1    
     7    2    4 1    
     8    4    5 1    
     9    4   32 1    
    10    4   33 1    
    11    5    6 1    
    12    5   34 1    
    13    5   35 1    
    14    6    7 1    
    15    6   36 1    
    16    6   37 1    
    17    7    8 1    
    18    7   38 1    
    19    7   39 1    
    20    8   14 1    
    21    8    9 1    
    22    9   10 2    
    23    9   11 am   BACKBONE|DICT|INTERRES
    24   11   12 am   BACKBONE|DICT|INTERRES
    25   11   15 1    
    26   12   13 2    
    27   12   14 am   BACKBONE|DICT|INTERRES
    28   14   40 1    
    29   15   16 1    
    30   15   41 1    
    31   15   42 1    
    32   16   17 2    
    33   16   18 am   BACKBONE|DICT|INTERRES
    34   18   19 1    
    35   18   43 1    
    36   19   24 ar   
    37   19   20 ar   
    38   20   21 ar   
    39   20   44 1    
    40   21   22 ar   
    41   21   45 1    
    42   22   23 ar   
    43   22   25 1    
    44   23   24 ar   
    45   23   46 1    
    46   24   47 1    
    47   25   26 2    
    48   25   27 2    
    49   25   28 1    
    50   28   48 1    
    51   28   49 1    
    52   28   50 1    
@<TRIPOS>SUBSTRUCTURE
     1 UNK         1 GROUP             0       ****    0 ROOT    
