@<TRIPOS>MOLECULE
ZINC66118970_6224
57   59    1
SMALL
USER_CHARGES


@<TRIPOS>ATOM
      1 C1          6.8421   55.0558   22.2953 C.2       1 UNK         0.0000 
      2 C2          5.7117   54.8971   21.5014 C.2       1 UNK         0.0000 
      3 C3          4.9321   53.8995   22.0780 C.2       1 UNK         0.0000 
      4 O4          5.5478   53.4675   23.2097 O.3       1 UNK         0.0000 
      5 C5          6.7043   54.1639   23.3418 C.2       1 UNK         0.0000 
      6 C6          3.6078   53.2166   21.7541 C.3       1 UNK         0.0000 
      7 H7          3.7369   52.1458   21.9347 H         1 UNK         0.0000 
      8 C8          2.4286   53.8002   22.5952 C.3       1 UNK         0.0000 
      9 N9          1.9611   52.9496   23.6910 N.am      1 UNK         0.0000 
     10 C10         1.1837   51.8539   23.5773 C.2       1 UNK         0.0000 
     11 O11         0.7992   51.4347   22.4840 O.2       1 UNK         0.0000 
     12 N12         0.9278   51.2234   24.7534 N.am      1 UNK         0.0000 
     13 C13         0.7607   51.9432   26.0348 C.3       1 UNK         0.0000 
     14 C14        -0.7494   52.0004   26.3316 C.3       1 UNK         0.0000 
     15 C15        -1.3430   50.5845   26.4139 C.3       1 UNK         0.0000 
     16 C16        -1.0355   49.7282   25.1557 C.3       1 UNK         0.0000 
     17 H17        -1.5969   50.1632   24.3258 H         1 UNK         0.0000 
     18 C18         0.4667   49.8175   24.7670 C.3       1 UNK         0.0000 
     19 C19        -1.4321   48.2375   25.3138 C.3       1 UNK         0.0000 
     20 C20        -2.9081   47.9498   25.6816 C.3       1 UNK         0.0000 
     21 C21        -3.1411   46.4831   26.0688 C.2       1 UNK         0.0000 
     22 O22        -3.6592   45.6967   25.2814 O.2       1 UNK         0.0000 
     23 N23        -2.7506   46.0966   27.2822 N.am      1 UNK         0.0000 
     24 N24         3.2824   53.2936   20.2318 N.4       1 UNK         0.0000 
     25 C25         4.4241   52.9697   19.2420 C.3       1 UNK         0.0000 
     26 C26         3.7010   52.7107   17.9275 C.3       1 UNK         0.0000 
     27 C27         2.4048   52.0103   18.3126 C.3       1 UNK         0.0000 
     28 C28         2.1654   52.3115   19.7977 C.3       1 UNK         0.0000 
     29 H29         7.6644   55.7335   22.1213 H         1 UNK         0.0000 
     30 H30         5.5002   55.4576   20.6029 H         1 UNK         0.0000 
     31 H31         7.3161   53.9153   24.1955 H         1 UNK         0.0000 
     32 H32         1.5655   54.0500   21.9851 H         1 UNK         0.0000 
     33 H33         2.7237   54.7503   23.0399 H         1 UNK         0.0000 
     34 H34         2.2925   53.1919   24.6135 H         1 UNK         0.0000 
     35 H35         1.2610   52.9118   26.0775 H         1 UNK         0.0000 
     36 H36         1.2624   51.3501   26.8021 H         1 UNK         0.0000 
     37 H37        -1.2652   52.5914   25.5718 H         1 UNK         0.0000 
     38 H38        -0.9168   52.5200   27.2764 H         1 UNK         0.0000 
     39 H39        -2.4082   50.6089   26.6418 H         1 UNK         0.0000 
     40 H40        -0.8812   50.0969   27.2750 H         1 UNK         0.0000 
     41 H41         1.0582   49.3113   25.5317 H         1 UNK         0.0000 
     42 H42         0.7144   49.2897   23.8445 H         1 UNK         0.0000 
     43 H43        -0.7882   47.8077   26.0817 H         1 UNK         0.0000 
     44 H44        -1.1887   47.7055   24.3925 H         1 UNK         0.0000 
     45 H45        -3.5627   48.2144   24.8502 H         1 UNK         0.0000 
     46 H46        -3.2259   48.5544   26.5301 H         1 UNK         0.0000 
     47 H47        -2.2723   46.7803   27.8704 H         1 UNK         0.0000 
     48 H48        -2.8952   45.1498   27.6204 H         1 UNK         0.0000 
     49 H49         5.1306   53.7924   19.1837 H         1 UNK         0.0000 
     50 H50         4.9402   52.0963   19.6380 H         1 UNK         0.0000 
     51 H51         3.4954   53.6538   17.4191 H         1 UNK         0.0000 
     52 H52         4.3039   52.1013   17.2519 H         1 UNK         0.0000 
     53 H53         2.5070   50.9328   18.1626 H         1 UNK         0.0000 
     54 H54         1.5705   52.3424   17.6933 H         1 UNK         0.0000 
     55 H55         2.2846   51.3997   20.3856 H         1 UNK         0.0000 
     56 H56         1.2010   52.7690   20.0233 H         1 UNK         0.0000 
     57 H57         2.9479   54.2345   20.0411 H         1 UNK         0.0000 
@<TRIPOS>BOND
     1    1    5 2    
     2    1    2 1    
     3    1   29 1    
     4    2    3 2    
     5    2   30 1    
     6    3    4 1    
     7    3    6 1    
     8    4    5 1    
     9    5   31 1    
    10    6    7 1    
    11    6    8 1    
    12    6   24 1    
    13    8    9 1    
    14    8   32 1    
    15    8   33 1    
    16    9   10 am   BACKBONE|DICT|INTERRES
    17    9   34 1    
    18   10   11 2    
    19   10   12 am   BACKBONE|DICT|INTERRES
    20   12   18 1    
    21   12   13 1    
    22   13   14 1    
    23   13   35 1    
    24   13   36 1    
    25   14   15 1    
    26   14   37 1    
    27   14   38 1    
    28   15   16 1    
    29   15   39 1    
    30   15   40 1    
    31   16   17 1    
    32   16   18 1    
    33   16   19 1    
    34   18   41 1    
    35   18   42 1    
    36   19   20 1    
    37   19   43 1    
    38   19   44 1    
    39   20   21 1    
    40   20   45 1    
    41   20   46 1    
    42   21   22 2    
    43   21   23 am   BACKBONE|DICT|INTERRES
    44   23   47 1    
    45   23   48 1    
    46   24   28 1    
    47   24   25 1    
    48   24   57 1    
    49   25   26 1    
    50   25   49 1    
    51   25   50 1    
    52   26   27 1    
    53   26   51 1    
    54   26   52 1    
    55   27   28 1    
    56   27   53 1    
    57   27   54 1    
    58   28   55 1    
    59   28   56 1    
@<TRIPOS>SUBSTRUCTURE
     1 UNK         1 GROUP             0       ****    0 ROOT    
