@<TRIPOS>MOLECULE
ZINC63315907_907
62   65    1
SMALL
USER_CHARGES


@<TRIPOS>ATOM
      1 C1          2.6737   54.6604   29.0344 C.3       1 UNK         0.0000 
      2 O2          3.9403   54.6841   28.3834 O.3       1 UNK         0.0000 
      3 C3          4.0063   54.4516   27.0206 C.ar      1 UNK         0.0000 
      4 C4          2.8959   54.0943   26.2397 C.ar      1 UNK         0.0000 
      5 C5          3.0218   53.8959   24.8618 C.ar      1 UNK         0.0000 
      6 C6          4.2558   54.0962   24.2533 C.ar      1 UNK         0.0000 
      7 C7          5.3947   54.3987   25.0145 C.ar      1 UNK         0.0000 
      8 C8          5.2609   54.5724   26.3984 C.ar      1 UNK         0.0000 
      9 O9          6.3736   54.8796   27.1491 O.3       1 UNK         0.0000 
     10 C10         6.9436   53.7631   27.8192 C.3       1 UNK         0.0000 
     11 O11         6.6625   54.5014   24.4697 O.3       1 UNK         0.0000 
     12 C12         6.8466   54.1442   23.1037 C.3       1 UNK         0.0000 
     13 N13         1.9747   53.4693   24.0302 N.am      1 UNK         0.0000 
     14 C14         1.0098   52.5795   24.3378 C.2       1 UNK         0.0000 
     15 O15         0.8546   52.0838   25.4585 O.2       1 UNK         0.0000 
     16 C16         0.1147   52.1492   23.1608 C.3       1 UNK         0.0000 
     17 C17        -0.8666   50.9682   23.3742 C.3       1 UNK         0.0000 
     18 N18        -1.7433   51.0325   24.5393 N.am      1 UNK         0.0000 
     19 C19        -2.7793   51.8843   24.6566 C.2       1 UNK         0.0000 
     20 O20        -3.2046   52.5204   23.6865 O.2       1 UNK         0.0000 
     21 N21        -3.3204   51.9901   25.9025 N.am      1 UNK         0.0000 
     22 C22        -4.4791   52.8856   26.1279 C.3       1 UNK         0.0000 
     23 C23        -5.6547   52.0409   26.6798 C.3       1 UNK         0.0000 
     24 C24        -5.1792   51.2964   27.9121 C.2       1 UNK         0.0000 
     25 C25        -5.5960   51.2410   29.1864 C.2       1 UNK         0.0000 
     26 C26        -6.7506   51.8348   29.8738 C.2       1 UNK         0.0000 
     27 C27        -6.9487   51.6356   31.1945 C.2       1 UNK         0.0000 
     28 C28        -5.9671   50.8219   31.9036 C.2       1 UNK         0.0000 
     29 C29        -4.8882   50.2767   31.2838 C.2       1 UNK         0.0000 
     30 C30        -4.6800   50.4825   29.9187 C.2       1 UNK         0.0000 
     31 N31        -3.6956   50.0696   29.1519 N.pl3     1 UNK         0.0000 
     32 C32        -3.9101   50.4839   27.7536 C.3       1 UNK         0.0000 
     33 H33        -4.0782   49.5724   27.1746 H         1 UNK         0.0000 
     34 C34        -2.7785   51.3327   27.1237 C.3       1 UNK         0.0000 
     35 Cl35       -8.3320   52.3410   32.0368 Cl        1 UNK         0.0000 
     36 H36         1.9844   55.3863   28.5999 H         1 UNK         0.0000 
     37 H37         2.2231   53.6675   28.9977 H         1 UNK         0.0000 
     38 H38         2.8071   54.9251   30.0815 H         1 UNK         0.0000 
     39 H39         1.9242   53.9702   26.6929 H         1 UNK         0.0000 
     40 H40         4.3265   53.9513   23.1856 H         1 UNK         0.0000 
     41 H41         6.2212   53.2499   28.4546 H         1 UNK         0.0000 
     42 H42         7.3515   53.0447   27.1077 H         1 UNK         0.0000 
     43 H43         7.7593   54.0970   28.4623 H         1 UNK         0.0000 
     44 H44         6.4477   53.1521   22.8829 H         1 UNK         0.0000 
     45 H45         6.3853   54.8732   22.4357 H         1 UNK         0.0000 
     46 H46         7.9045   54.1050   22.8683 H         1 UNK         0.0000 
     47 H47         2.0517   53.7501   23.0630 H         1 UNK         0.0000 
     48 H48        -0.5255   53.0017   22.9401 H         1 UNK         0.0000 
     49 H49         0.6168   52.0769   22.1939 H         1 UNK         0.0000 
     50 H50        -1.2141   50.4655   22.4718 H         1 UNK         0.0000 
     51 H51        -0.2018   50.1724   23.7167 H         1 UNK         0.0000 
     52 H52        -1.4584   50.4940   25.3444 H         1 UNK         0.0000 
     53 H53        -4.1823   53.6428   26.8560 H         1 UNK         0.0000 
     54 H54        -4.7713   53.4383   25.2335 H         1 UNK         0.0000 
     55 H55        -6.5015   52.6868   26.9018 H         1 UNK         0.0000 
     56 H56        -5.9985   51.3428   25.9147 H         1 UNK         0.0000 
     57 H57        -7.4738   52.4342   29.3348 H         1 UNK         0.0000 
     58 H58        -6.0808   50.6706   32.9686 H         1 UNK         0.0000 
     59 H59        -4.1800   49.7009   31.8677 H         1 UNK         0.0000 
     60 H60        -1.9085   50.6991   26.9466 H         1 UNK         0.0000 
     61 H61        -2.4565   52.0967   27.8304 H         1 UNK         0.0000 
     62 H62        -2.9078   49.4851   29.4559 H         1 UNK         0.0000 
@<TRIPOS>BOND
     1    1    2 1    
     2    1   36 1    
     3    1   37 1    
     4    1   38 1    
     5    2    3 1    
     6    3    8 ar   
     7    3    4 ar   
     8    4    5 ar   
     9    4   39 1    
    10    5    6 ar   
    11    5   13 1    
    12    6    7 ar   
    13    6   40 1    
    14    7    8 ar   
    15    7   11 1    
    16    8    9 1    
    17    9   10 1    
    18   10   41 1    
    19   10   42 1    
    20   10   43 1    
    21   11   12 1    
    22   12   44 1    
    23   12   45 1    
    24   12   46 1    
    25   13   14 am   BACKBONE|DICT|INTERRES
    26   13   47 1    
    27   14   15 2    
    28   14   16 1    
    29   16   17 1    
    30   16   48 1    
    31   16   49 1    
    32   17   18 1    
    33   17   50 1    
    34   17   51 1    
    35   18   19 am   BACKBONE|DICT|INTERRES
    36   18   52 1    
    37   19   20 2    
    38   19   21 am   BACKBONE|DICT|INTERRES
    39   21   34 1    
    40   21   22 1    
    41   22   23 1    
    42   22   53 1    
    43   22   54 1    
    44   23   24 1    
    45   23   55 1    
    46   23   56 1    
    47   24   32 1    
    48   24   25 2    
    49   25   30 1    
    50   25   26 1    
    51   26   27 2    
    52   26   57 1    
    53   27   28 1    
    54   27   35 1    
    55   28   29 2    
    56   28   58 1    
    57   29   30 1    
    58   29   59 1    
    59   30   31 2    
    60   31   32 1    
    61   31   62 1    
    62   32   33 1    
    63   32   34 1    
    64   34   60 1    
    65   34   61 1    
@<TRIPOS>SUBSTRUCTURE
     1 UNK         1 GROUP             0       ****    0 ROOT    
