@<TRIPOS>MOLECULE
ZINC19776244_4678
36   39    1
SMALL
USER_CHARGES


@<TRIPOS>ATOM
      1 C1          0.6530   53.1643   28.4606 C.ar      1 UNK         0.0000 
      2 C2          1.6091   53.9270   29.1375 C.ar      1 UNK         0.0000 
      3 C3          2.8453   54.1525   28.5392 C.ar      1 UNK         0.0000 
      4 C4          3.1186   53.6645   27.2641 C.ar      1 UNK         0.0000 
      5 C5          2.1662   52.8968   26.6028 C.ar      1 UNK         0.0000 
      6 C6          0.9149   52.6261   27.1845 C.ar      1 UNK         0.0000 
      7 C7         -0.1284   51.7564   26.5177 C.2       1 UNK         0.0000 
      8 O8         -1.2026   51.5311   27.0774 O.2       1 UNK         0.0000 
      9 C9          0.1260   51.1196   25.2134 C.2       1 UNK         0.0000 
     10 C10         0.6077   51.7557   24.0458 C.2       1 UNK         0.0000 
     11 C11         0.8172   50.9056   22.9792 C.2       1 UNK         0.0000 
     12 S12         0.3195   49.2969   23.2858 S.3       1 UNK         0.0000 
     13 C13        -0.1201   49.7635   24.8980 C.2       1 UNK         0.0000 
     14 N14        -0.6359   48.7745   25.6817 N.pl3     1 UNK         0.0000 
     15 C15         1.4300   51.5789   21.7880 C.3       1 UNK         0.0000 
     16 C16         1.8693   52.9022   22.4180 C.3       1 UNK         0.0000 
     17 C17         0.9266   53.1666   23.6031 C.3       1 UNK         0.0000 
     18 N18         4.3642   53.9411   26.6961 N.am      1 UNK         0.0000 
     19 C19         5.4545   54.3697   27.3602 C.2       1 UNK         0.0000 
     20 O20         6.5295   54.6290   26.8217 O.2       1 UNK         0.0000 
     21 C21         5.1675   54.4967   28.8827 C.3       1 UNK         0.0000 
     22 O22         3.8068   54.8969   29.1902 O.3       1 UNK         0.0000 
     23 H23        -0.2930   52.9788   28.9515 H         1 UNK         0.0000 
     24 H24         1.3944   54.3269   30.1171 H         1 UNK         0.0000 
     25 H25         2.4408   52.4967   25.6430 H         1 UNK         0.0000 
     26 H26        -0.9092   48.9178   26.6564 H         1 UNK         0.0000 
     27 H27        -0.5870   47.8040   25.4118 H         1 UNK         0.0000 
     28 H28         0.7103   51.7304   20.9824 H         1 UNK         0.0000 
     29 H29         2.2858   51.0417   21.3774 H         1 UNK         0.0000 
     30 H30         1.8671   53.6976   21.6819 H         1 UNK         0.0000 
     31 H31         2.8953   52.8130   22.7820 H         1 UNK         0.0000 
     32 H32         1.3711   53.8360   24.3353 H         1 UNK         0.0000 
     33 H33         0.0138   53.6622   23.2819 H         1 UNK         0.0000 
     34 H34         4.5199   53.7630   25.7156 H         1 UNK         0.0000 
     35 H35         5.8855   55.1745   29.3394 H         1 UNK         0.0000 
     36 H36         5.3333   53.4952   29.2816 H         1 UNK         0.0000 
@<TRIPOS>BOND
     1    1    6 ar   
     2    1    2 ar   
     3    1   23 1    
     4    2    3 ar   
     5    2   24 1    
     6    3   22 1    
     7    3    4 ar   
     8    4    5 ar   
     9    4   18 1    
    10    5    6 ar   
    11    5   25 1    
    12    6    7 1    
    13    7    8 2    
    14    7    9 1    
    15    9   13 2    
    16    9   10 1    
    17   10   17 1    
    18   10   11 2    
    19   11   12 1    
    20   11   15 1    
    21   12   13 1    
    22   13   14 1    
    23   14   26 1    
    24   14   27 1    
    25   15   16 1    
    26   15   28 1    
    27   15   29 1    
    28   16   17 1    
    29   16   30 1    
    30   16   31 1    
    31   17   32 1    
    32   17   33 1    
    33   18   19 am   BACKBONE|DICT|INTERRES
    34   18   34 1    
    35   19   20 2    
    36   19   21 1    
    37   21   22 1    
    38   21   35 1    
    39   21   36 1    
@<TRIPOS>SUBSTRUCTURE
     1 UNK         1 GROUP             0       ****    0 ROOT    
