@<TRIPOS>MOLECULE
ZINC67610236_1515
46   48    1
SMALL
USER_CHARGES


@<TRIPOS>ATOM
      1 C1          6.2470   54.8003   23.2912 C.3       1 UNK         0.0000 
      2 C2          6.0077   54.6552   24.7713 C.2       1 UNK         0.0000 
      3 C3          4.8962   54.5995   25.5802 C.2       1 UNK         0.0000 
      4 C4          5.3894   54.4370   26.8786 C.2       1 UNK         0.0000 
      5 N5          6.7045   54.4180   26.8822 N.2       1 UNK         0.0000 
      6 O6          7.1044   54.5555   25.5546 O.3       1 UNK         0.0000 
      7 C7          4.6486   54.3220   28.1961 C.3       1 UNK         0.0000 
      8 N8          3.2975   53.7814   28.0338 N.am      1 UNK         0.0000 
      9 C9          2.6757   53.0151   28.9483 C.2       1 UNK         0.0000 
     10 O10         3.0792   52.9826   30.1162 O.2       1 UNK         0.0000 
     11 N11         1.5344   52.3928   28.5340 N.am      1 UNK         0.0000 
     12 C12         1.2149   52.1300   27.1063 C.3       1 UNK         0.0000 
     13 C13        -0.3141   52.2697   26.9096 C.3       1 UNK         0.0000 
     14 C14        -1.0594   51.3042   27.8486 C.3       1 UNK         0.0000 
     15 C15        -0.6788   51.6271   29.3130 C.3       1 UNK         0.0000 
     16 C16         0.8479   51.5116   29.4991 C.3       1 UNK         0.0000 
     17 C17        -2.6009   51.3370   27.6801 C.2       1 UNK         0.0000 
     18 O18        -3.1116   52.0709   26.8296 O.2       1 UNK         0.0000 
     19 N19        -3.2954   50.4967   28.4757 N.am      1 UNK         0.0000 
     20 C20        -4.6677   50.3887   28.6424 C.2       1 UNK         0.0000 
     21 N21        -5.1621   49.4899   29.4556 N.2       1 UNK         0.0000 
     22 C22        -6.4803   49.5453   29.5293 C.2       1 UNK         0.0000 
     23 C23        -7.0816   50.5241   28.7415 C.2       1 UNK         0.0000 
     24 S24        -5.8607   51.4051   27.8748 S.3       1 UNK         0.0000 
     25 C25        -7.1473   48.5510   30.4511 C.3       1 UNK         0.0000 
     26 H26         5.3144   54.8767   22.7323 H         1 UNK         0.0000 
     27 H27         6.8361   55.6901   23.0698 H         1 UNK         0.0000 
     28 H28         6.7949   53.9461   22.8928 H         1 UNK         0.0000 
     29 H29         3.8657   54.6608   25.2678 H         1 UNK         0.0000 
     30 H30         4.5456   55.2969   28.6608 H         1 UNK         0.0000 
     31 H31         5.2325   53.7172   28.8947 H         1 UNK         0.0000 
     32 H32         2.8723   53.8884   27.1259 H         1 UNK         0.0000 
     33 H33         1.5068   51.1048   26.8816 H         1 UNK         0.0000 
     34 H34         1.7045   52.8164   26.4158 H         1 UNK         0.0000 
     35 H35        -0.5102   52.0302   25.8632 H         1 UNK         0.0000 
     36 H36        -0.5840   53.2967   27.1388 H         1 UNK         0.0000 
     37 H37        -0.7887   50.2681   27.6484 H         1 UNK         0.0000 
     38 H38        -0.9402   52.6493   29.5928 H         1 UNK         0.0000 
     39 H39        -1.1114   50.9132   30.0179 H         1 UNK         0.0000 
     40 H40         1.1730   50.4971   29.2789 H         1 UNK         0.0000 
     41 H41         1.0687   51.7608   30.5391 H         1 UNK         0.0000 
     42 H42        -2.7406   49.8086   28.9792 H         1 UNK         0.0000 
     43 H43        -8.1304   50.7567   28.6335 H         1 UNK         0.0000 
     44 H44        -8.2309   48.6726   30.4666 H         1 UNK         0.0000 
     45 H45        -6.8020   48.6583   31.4802 H         1 UNK         0.0000 
     46 H46        -6.9485   47.5219   30.1497 H         1 UNK         0.0000 
@<TRIPOS>BOND
     1    1    2 1    
     2    1   26 1    
     3    1   27 1    
     4    1   28 1    
     5    2    6 1    
     6    2    3 2    
     7    3    4 1    
     8    3   29 1    
     9    4    5 2    
    10    4    7 1    
    11    5    6 1    
    12    7    8 1    
    13    7   30 1    
    14    7   31 1    
    15    8    9 am   BACKBONE|DICT|INTERRES
    16    8   32 1    
    17    9   10 2    
    18    9   11 am   BACKBONE|DICT|INTERRES
    19   11   16 1    
    20   11   12 1    
    21   12   13 1    
    22   12   33 1    
    23   12   34 1    
    24   13   14 1    
    25   13   35 1    
    26   13   36 1    
    27   14   15 1    
    28   14   17 1    
    29   14   37 1    
    30   15   16 1    
    31   15   38 1    
    32   15   39 1    
    33   16   40 1    
    34   16   41 1    
    35   17   18 2    
    36   17   19 am   BACKBONE|DICT|INTERRES
    37   19   20 am   BACKBONE|DICT|INTERRES
    38   19   42 1    
    39   20   24 1    
    40   20   21 2    
    41   21   22 1    
    42   22   23 2    
    43   22   25 1    
    44   23   24 1    
    45   23   43 1    
    46   25   44 1    
    47   25   45 1    
    48   25   46 1    
@<TRIPOS>SUBSTRUCTURE
     1 UNK         1 GROUP             0       ****    0 ROOT    
