@<TRIPOS>MOLECULE
ZINC14943771_3312
54   58    1
SMALL
USER_CHARGES


@<TRIPOS>ATOM
      1 C1         -2.1079   47.2071   21.6429 C.ar      1 UNK         0.0000 
      2 C2         -2.4976   45.9091   21.3250 C.ar      1 UNK         0.0000 
      3 C3         -3.5508   45.3124   22.0161 C.ar      1 UNK         0.0000 
      4 C4         -4.2221   46.0044   23.0235 C.ar      1 UNK         0.0000 
      5 C5         -3.8323   47.3007   23.3501 C.ar      1 UNK         0.0000 
      6 C6         -2.7738   47.9028   22.6590 C.ar      1 UNK         0.0000 
      7 N7         -2.3532   49.2164   22.9989 N.am      1 UNK         0.0000 
      8 C8         -1.2689   49.3004   23.8408 C.2       1 UNK         0.0000 
      9 O9         -0.7267   48.3257   24.3769 O.2       1 UNK         0.0000 
     10 C10        -0.7051   50.7670   23.9699 C.3       1 UNK         0.0000 
     11 C11         0.0128   50.9112   25.3529 C.3       1 UNK         0.0000 
     12 C12         0.9793   52.0954   25.4221 C.ar      1 UNK         0.0000 
     13 C13         1.3880   52.5625   26.6775 C.ar      1 UNK         0.0000 
     14 C14         2.3666   53.5526   26.8189 C.ar      1 UNK         0.0000 
     15 C15         2.9298   54.0961   25.6605 C.ar      1 UNK         0.0000 
     16 C16         2.5044   53.6773   24.4029 C.ar      1 UNK         0.0000 
     17 C17         1.5396   52.6668   24.2553 C.ar      1 UNK         0.0000 
     18 N18         1.0656   52.2914   22.9867 N.pl3     1 UNK         0.0000 
     19 C19         0.3393   51.0095   22.8124 C.3       1 UNK         0.0000 
     20 H20        -0.2407   51.0943   21.8897 H         1 UNK         0.0000 
     21 C21         1.4038   49.8896   22.5730 C.3       1 UNK         0.0000 
     22 C22         2.3163   50.1357   21.3464 C.3       1 UNK         0.0000 
     23 H23         3.1124   49.3991   21.3167 H         1 UNK         0.0000 
     24 C24         2.8269   51.6011   21.3703 C.3       1 UNK         0.0000 
     25 C25         1.7366   52.6392   21.7195 C.3       1 UNK         0.0000 
     26 C26         1.5862   49.8361   20.0078 C.2       1 UNK         0.0000 
     27 O27         0.3999   49.5148   19.9699 O.2       1 UNK         0.0000 
     28 N28         2.2974   49.8991   18.8814 N.am      1 UNK         0.0000 
     29 N29         2.8050   54.0016   28.1635 N.pl3     1 UNK         0.0000 
     30 O30         3.6415   54.8960   28.2423 O.co2     1 UNK         0.0000 
     31 O31         2.3163   53.4643   29.1541 O.co2     1 UNK         0.0000 
     32 C32        -1.8694   51.8210   23.8265 C.2       1 UNK         0.0000 
     33 O33        -1.7763   52.8981   24.4087 O.2       1 UNK         0.0000 
     34 N34        -2.8749   51.5004   23.0411 N.2       1 UNK         0.0000 
     35 C35        -3.0954   50.2945   22.5455 C.2       1 UNK         0.0000 
     36 O36        -3.9683   50.0859   21.6995 O.2       1 UNK         0.0000 
     37 Cl37       -4.0243   43.6997   21.6226 Cl        1 UNK         0.0000 
     38 H38        -1.2893   47.6703   21.1092 H         1 UNK         0.0000 
     39 H39        -1.9831   45.3701   20.5439 H         1 UNK         0.0000 
     40 H40        -5.0415   45.5381   23.5517 H         1 UNK         0.0000 
     41 H41        -4.3441   47.8373   24.1372 H         1 UNK         0.0000 
     42 H42         0.6261   50.0324   25.5633 H         1 UNK         0.0000 
     43 H43        -0.7119   50.9555   26.1700 H         1 UNK         0.0000 
     44 H44         0.9548   52.1107   27.5591 H         1 UNK         0.0000 
     45 H45         3.6886   54.8635   25.7253 H         1 UNK         0.0000 
     46 H46         2.9553   54.1549   23.5486 H         1 UNK         0.0000 
     47 H47         0.9880   48.8866   22.5096 H         1 UNK         0.0000 
     48 H48         2.0421   49.7483   23.4466 H         1 UNK         0.0000 
     49 H49         3.3431   51.8519   20.4418 H         1 UNK         0.0000 
     50 H50         3.6842   51.6746   22.0403 H         1 UNK         0.0000 
     51 H51         0.9845   52.6711   20.9302 H         1 UNK         0.0000 
     52 H52         2.1517   53.6450   21.7311 H         1 UNK         0.0000 
     53 H53         1.8482   49.6894   18.0041 H         1 UNK         0.0000 
     54 H54         3.2904   50.1031   18.8668 H         1 UNK         0.0000 
@<TRIPOS>BOND
     1    1    6 ar   
     2    1    2 ar   
     3    1   38 1    
     4    2    3 ar   
     5    2   39 1    
     6    3    4 ar   
     7    3   37 1    
     8    4    5 ar   
     9    4   40 1    
    10    5    6 ar   
    11    5   41 1    
    12    6    7 1    
    13    7   35 am   BACKBONE|DICT|INTERRES
    14    7    8 am   BACKBONE|DICT|INTERRES
    15    8    9 2    
    16    8   10 1    
    17   10   19 1    
    18   10   11 1    
    19   10   32 1    
    20   11   12 1    
    21   11   42 1    
    22   11   43 1    
    23   12   17 ar   
    24   12   13 ar   
    25   13   14 ar   
    26   13   44 1    
    27   14   15 ar   
    28   14   29 1    
    29   15   16 ar   
    30   15   45 1    
    31   16   17 ar   
    32   16   46 1    
    33   17   18 1    
    34   18   25 1    
    35   18   19 1    
    36   19   20 1    
    37   19   21 1    
    38   21   22 1    
    39   21   47 1    
    40   21   48 1    
    41   22   23 1    
    42   22   24 1    
    43   22   26 1    
    44   24   25 1    
    45   24   49 1    
    46   24   50 1    
    47   25   51 1    
    48   25   52 1    
    49   26   27 2    
    50   26   28 am   BACKBONE|DICT|INTERRES
    51   28   53 1    
    52   28   54 1    
    53   29   30 2    
    54   29   31 1    
    55   32   33 2    
    56   32   34 1    
    57   34   35 1    
    58   35   36 2    
@<TRIPOS>SUBSTRUCTURE
     1 UNK         1 GROUP             0       ****    0 ROOT    
