ZINC21185576_2255
                    3D
 Schrodinger Suite 2024-2.
 57 59  0  0  1  0            999 V2000
    5.9378   52.8988   28.0912 C   0  0  0  0  0  0
    5.6077   54.3859   27.9511 C   0  0  2  0  0  0
    5.9949   54.8946   28.8355 H   0  0  0  0  0  0
    4.0831   54.6311   27.9367 C   0  0  0  0  0  0
    3.3657   54.0319   26.7025 C   0  0  0  0  0  0
    4.2190   54.1780   25.4368 C   0  0  0  0  0  0
    5.5646   54.5920   25.4686 C   0  0  0  0  0  0
    6.3032   54.5715   23.8951 S   0  0  0  0  0  0
    4.8245   54.0125   23.1908 C   0  0  0  0  0  0
    3.8023   53.8757   24.1219 C   0  0  0  0  0  0
    2.4917   53.4209   23.6609 C   0  0  0  0  0  0
    1.4937   53.2886   24.3784 O   0  0  0  0  0  0
    2.5036   53.1244   22.2968 N   0  0  0  0  0  0
    3.5874   53.3118   21.4222 C   0  0  0  0  0  0
    4.7200   53.7304   21.8681 N   0  0  0  0  0  0
    3.3997   52.9941   19.6328 S   0  0  0  0  0  0
    4.8820   53.6175   18.7397 C   0  0  2  0  0  0
    5.5994   52.7962   18.7542 H   0  0  0  0  0  0
    5.6318   54.8729   19.2638 C   0  0  0  0  0  0
    4.4591   53.8075   17.2656 C   0  0  0  0  0  0
    4.1947   54.9444   16.8601 O   0  0  0  0  0  0
    4.3480   52.6790   16.5231 N   0  0  0  0  0  0
    3.9133   52.5777   15.2455 C   0  0  0  0  0  0
    3.6761   53.5187   14.4832 O   0  0  0  0  0  0
    3.7585   51.2968   14.8816 N   0  0  0  0  0  0
    3.3726   50.8666   13.5460 C   0  0  0  0  0  0
    1.2337   52.5384   21.7818 C   0  0  0  0  0  0
    1.2260   50.9895   21.6349 C   0  0  0  0  0  0
    1.5492   50.2371   22.9407 C   0  0  0  0  0  0
   -0.1217   50.5171   21.0605 C   0  0  0  0  0  0
    6.3158   55.0080   26.7210 C   0  0  0  0  0  0
    5.5057   52.3539   27.2582 H   0  0  0  0  0  0
    7.0121   52.7115   28.0832 H   0  0  0  0  0  0
    5.5043   52.4930   29.0073 H   0  0  0  0  0  0
    3.6369   54.1804   28.8225 H   0  0  0  0  0  0
    3.8620   55.6857   28.0321 H   0  0  0  0  0  0
    2.3881   54.4961   26.5822 H   0  0  0  0  0  0
    3.1689   52.9723   26.8732 H   0  0  0  0  0  0
    6.3370   55.2588   18.5261 H   0  0  0  0  0  0
    4.9429   55.6816   19.5065 H   0  0  0  0  0  0
    6.2375   54.6613   20.1434 H   0  0  0  0  0  0
    4.5700   51.8115   17.0009 H   0  0  0  0  0  0
    3.9049   50.5593   15.5690 H   0  0  0  0  0  0
    3.3860   49.7782   13.4874 H   0  0  0  0  0  0
    4.0597   51.2588   12.7955 H   0  0  0  0  0  0
    2.3648   51.2113   13.3092 H   0  0  0  0  0  0
    0.3745   52.8367   22.3867 H   0  0  0  0  0  0
    1.0098   52.9815   20.8117 H   0  0  0  0  0  0
    1.9871   50.7157   20.9026 H   0  0  0  0  0  0
    0.8630   50.5115   23.7430 H   0  0  0  0  0  0
    1.4866   49.1559   22.8044 H   0  0  0  0  0  0
    2.5624   50.4530   23.2803 H   0  0  0  0  0  0
   -0.9456   50.7469   21.7372 H   0  0  0  0  0  0
   -0.3318   50.9980   20.1035 H   0  0  0  0  0  0
   -0.1231   49.4385   20.8918 H   0  0  0  0  0  0
    7.3467   54.6610   26.6775 H   0  0  0  0  0  0
    6.3778   56.0946   26.7993 H   0  0  0  0  0  0
  1  2  1  0  0  0
  1 32  1  0  0  0
  1 33  1  0  0  0
  1 34  1  0  0  0
  2  3  1  0  0  0
  2 31  1  0  0  0
  2  4  1  0  0  0
  4  5  1  0  0  0
  4 35  1  0  0  0
  4 36  1  0  0  0
  5  6  1  0  0  0
  5 37  1  0  0  0
  5 38  1  0  0  0
  6 10  1  0  0  0
  6  7  2  0  0  0
  7  8  1  0  0  0
  7 31  1  0  0  0
  8  9  1  0  0  0
  9 15  1  0  0  0
  9 10  2  0  0  0
 10 11  1  0  0  0
 11 12  2  0  0  0
 11 13  1  0  0  0
 13 14  1  0  0  0
 13 27  1  0  0  0
 14 15  2  0  0  0
 14 16  1  0  0  0
 16 17  1  0  0  0
 17 18  1  0  0  0
 17 19  1  0  0  0
 17 20  1  0  0  0
 19 39  1  0  0  0
 19 40  1  0  0  0
 19 41  1  0  0  0
 20 21  2  0  0  0
 20 22  1  0  0  0
 22 23  1  0  0  0
 22 42  1  0  0  0
 23 24  2  0  0  0
 23 25  1  0  0  0
 25 26  1  0  0  0
 25 43  1  0  0  0
 26 44  1  0  0  0
 26 45  1  0  0  0
 26 46  1  0  0  0
 27 28  1  0  0  0
 27 47  1  0  0  0
 27 48  1  0  0  0
 28 29  1  0  0  0
 28 30  1  0  0  0
 28 49  1  0  0  0
 29 50  1  0  0  0
 29 51  1  0  0  0
 29 52  1  0  0  0
 30 53  1  0  0  0
 30 54  1  0  0  0
 30 55  1  0  0  0
 31 56  1  0  0  0
 31 57  1  0  0  0
M  END
> <i_i_glide_confnum>
140

> <i_i_glide_lignum>
2256

> <i_i_glide_posenum>
94

> <i_i_glide_rotatable_bonds>
8

> <i_m_Source_File_Index>
5586

> <b_m_subgroup_collapsed>
0

> <r_i_docking_score>
-6.2444

> <r_i_glide_ecoul>
-5.22467

> <r_i_glide_eff_state_penalty>
0

> <r_i_glide_einternal>
1.63938

> <r_i_glide_emodel>
-56.3919

> <r_i_glide_energy>
-38.5636

> <r_i_glide_erotb>
0.627473

> <r_i_glide_esite>
-0.215997

> <r_i_glide_evdw>
-33.339

> <r_i_glide_gscore>
-6.2444

> <r_i_glide_hbond>
-0.304

> <r_i_glide_ligand_efficiency>
-0.215324

> <r_i_glide_ligand_efficiency_ln>
-1.42981

> <r_i_glide_ligand_efficiency_sa>
-0.661544

> <r_i_glide_lipo>
-3.2445

> <r_i_glide_metal>
0

> <r_i_glide_rewards>
-0.65672

> <s_i_glide_gridfile>
wee1_glide-grid

> <s_m_Source_File>
wee1_decoys_glide_SP.sdf

> <s_m_Source_Path>
/Users/zhangxujun/Desktop

> <s_m_entry_id>
5861

> <s_m_entry_name>
wee1_decoys_glide_SP.5586

> <s_m_subgroup_title>
wee1_decoys_glide_SP

> <s_m_subgroupid>
wee1_decoys_glide_SP


$$$$
