@<TRIPOS>MOLECULE
ZINC64435840_2688
54   57    1
SMALL
USER_CHARGES


@<TRIPOS>ATOM
      1 C1          6.6378   55.9177   17.1638 C.3       1 UNK         0.0000 
      2 C2          5.5340   56.4740   18.0846 C.3       1 UNK         0.0000 
      3 H3          5.7831   57.5130   18.3128 H         1 UNK         0.0000 
      4 C4          4.1614   56.4286   17.3904 C.2       1 UNK         0.0000 
      5 O5          3.5623   55.3531   17.3222 O.2       1 UNK         0.0000 
      6 N6          3.7325   57.6026   16.8751 N.am      1 UNK         0.0000 
      7 C7          2.5444   57.8872   16.2602 C.2       1 UNK         0.0000 
      8 C8          1.3821   57.2036   16.4776 C.2       1 UNK         0.0000 
      9 C9          0.0491   57.6777   15.8805 C.3       1 UNK         0.0000 
     10 H10        -0.4118   58.3358   16.6216 H         1 UNK         0.0000 
     11 C11         0.3380   58.4370   14.6146 C.2       1 UNK         0.0000 
     12 C12        -0.5584   58.0508   13.7018 C.2       1 UNK         0.0000 
     13 C13        -1.2865   56.9831   14.3327 C.2       1 UNK         0.0000 
     14 N14        -0.9423   56.7122   15.5329 N.2       1 UNK         0.0000 
     15 C15         1.5127   59.2884   14.5257 C.2       1 UNK         0.0000 
     16 C16         2.5585   59.0253   15.3363 C.2       1 UNK         0.0000 
     17 N17         5.5045   55.6965   19.3291 N.am      1 UNK         0.0000 
     18 C18         6.3035   55.9059   20.3934 C.2       1 UNK         0.0000 
     19 O19         7.1017   56.8468   20.4163 O.2       1 UNK         0.0000 
     20 N20         6.1550   55.0440   21.4385 N.am      1 UNK         0.0000 
     21 C21         5.0724   54.0401   21.5556 C.3       1 UNK         0.0000 
     22 C22         4.5148   54.0383   23.0085 C.3       1 UNK         0.0000 
     23 N23         5.4737   54.2263   24.1218 N.pl3     1 UNK         0.0000 
     24 C24         6.8633   54.1286   23.6525 C.3       1 UNK         0.0000 
     25 C25         7.1851   55.0872   22.4890 C.3       1 UNK         0.0000 
     26 C26         5.0881   54.1737   25.4699 C.ar      1 UNK         0.0000 
     27 C27         6.0270   54.0967   26.5160 C.ar      1 UNK         0.0000 
     28 C28         5.6280   54.0865   27.8511 C.ar      1 UNK         0.0000 
     29 C29         4.2769   54.1529   28.1677 C.ar      1 UNK         0.0000 
     30 C30         3.3256   54.2299   27.1585 C.ar      1 UNK         0.0000 
     31 C31         3.7284   54.2465   25.8251 C.ar      1 UNK         0.0000 
     32 F32         3.8902   54.1484   29.4646 F         1 UNK         0.0000 
     33 H33         6.6780   56.4661   16.2231 H         1 UNK         0.0000 
     34 H34         7.6195   55.9984   17.6301 H         1 UNK         0.0000 
     35 H35         6.4646   54.8668   16.9277 H         1 UNK         0.0000 
     36 H36         4.3509   58.3967   16.9731 H         1 UNK         0.0000 
     37 H37         1.3520   56.3706   17.1630 H         1 UNK         0.0000 
     38 H38        -0.6555   58.3766   12.6766 H         1 UNK         0.0000 
     39 H39        -2.0681   56.4192   13.8332 H         1 UNK         0.0000 
     40 H40         1.5862   60.1090   13.8274 H         1 UNK         0.0000 
     41 H41         3.4309   59.6624   15.2837 H         1 UNK         0.0000 
     42 H42         4.8437   54.9325   19.3335 H         1 UNK         0.0000 
     43 H43         4.2423   54.1838   20.8621 H         1 UNK         0.0000 
     44 H44         5.5104   53.0586   21.3630 H         1 UNK         0.0000 
     45 H45         3.9501   53.1171   23.1601 H         1 UNK         0.0000 
     46 H46         3.8501   54.8969   23.0642 H         1 UNK         0.0000 
     47 H47         6.9926   53.0970   23.3215 H         1 UNK         0.0000 
     48 H48         7.5944   54.2924   24.4376 H         1 UNK         0.0000 
     49 H49         8.1636   54.8343   22.0808 H         1 UNK         0.0000 
     50 H50         7.2220   56.0911   22.9143 H         1 UNK         0.0000 
     51 H51         7.0859   54.0330   26.3356 H         1 UNK         0.0000 
     52 H52         6.3660   54.0332   28.6383 H         1 UNK         0.0000 
     53 H53         2.2758   54.2862   27.4084 H         1 UNK         0.0000 
     54 H54         2.9626   54.3195   25.0686 H         1 UNK         0.0000 
@<TRIPOS>BOND
     1    1    2 1    
     2    1   33 1    
     3    1   34 1    
     4    1   35 1    
     5    2    3 1    
     6    2    4 1    
     7    2   17 1    
     8    4    5 2    
     9    4    6 am   BACKBONE|DICT|INTERRES
    10    6    7 1    
    11    6   36 1    
    12    7   16 1    
    13    7    8 2    
    14    8    9 1    
    15    8   37 1    
    16    9   10 1    
    17    9   14 1    
    18    9   11 1    
    19   11   12 2    
    20   11   15 1    
    21   12   13 1    
    22   12   38 1    
    23   13   14 2    
    24   13   39 1    
    25   15   16 2    
    26   15   40 1    
    27   16   41 1    
    28   17   18 am   BACKBONE|DICT|INTERRES
    29   17   42 1    
    30   18   19 2    
    31   18   20 am   BACKBONE|DICT|INTERRES
    32   20   25 1    
    33   20   21 1    
    34   21   22 1    
    35   21   43 1    
    36   21   44 1    
    37   22   23 1    
    38   22   45 1    
    39   22   46 1    
    40   23   24 1    
    41   23   26 1    
    42   24   25 1    
    43   24   47 1    
    44   24   48 1    
    45   25   49 1    
    46   25   50 1    
    47   26   31 ar   
    48   26   27 ar   
    49   27   28 ar   
    50   27   51 1    
    51   28   29 ar   
    52   28   52 1    
    53   29   30 ar   
    54   29   32 1    
    55   30   31 ar   
    56   30   53 1    
    57   31   54 1    
@<TRIPOS>SUBSTRUCTURE
     1 UNK         1 GROUP             0       ****    0 ROOT    
