@<TRIPOS>MOLECULE
ZINC59167678_2018
40   42    1
SMALL
USER_CHARGES


@<TRIPOS>ATOM
      1 C1          4.3386   54.3780   25.6750 C.ar      1 UNK         0.0000 
      2 C2          3.6103   54.0387   26.8097 C.ar      1 UNK         0.0000 
      3 C3          4.2694   53.6167   27.9713 C.ar      1 UNK         0.0000 
      4 C4          5.6666   53.5961   27.9931 C.ar      1 UNK         0.0000 
      5 C5          6.3989   53.9440   26.8617 C.ar      1 UNK         0.0000 
      6 C6          5.7384   54.2980   25.6851 C.ar      1 UNK         0.0000 
      7 N7          6.5341   54.5775   24.5592 N.am      1 UNK         0.0000 
      8 C8          6.1727   54.4980   23.2638 C.2       1 UNK         0.0000 
      9 O9          5.1236   53.9989   22.8582 O.2       1 UNK         0.0000 
     10 N10         7.1044   55.0744   22.4828 N.am      1 UNK         0.0000 
     11 C11         7.0650   55.3432   21.1030 C.ar      1 UNK         0.0000 
     12 C12         5.9041   55.2959   20.3154 C.ar      1 UNK         0.0000 
     13 C13         5.9733   55.5907   18.9565 C.ar      1 UNK         0.0000 
     14 C14         7.1953   55.9325   18.3823 C.ar      1 UNK         0.0000 
     15 C15         8.3507   55.9858   19.1574 C.ar      1 UNK         0.0000 
     16 C16         8.2819   55.6967   20.5164 C.ar      1 UNK         0.0000 
     17 Cl17        7.2797   56.2942   16.6979 Cl        1 UNK         0.0000 
     18 S18         3.4001   53.1094   29.4790 S.o2      1 UNK         0.0000 
     19 O19         3.7427   51.6972   29.6807 O.2       1 UNK         0.0000 
     20 O20         3.9040   54.0516   30.4793 O.2       1 UNK         0.0000 
     21 N21         1.8923   53.3811   29.1477 N.2       1 UNK         0.0000 
     22 C22         1.0998   52.5688   28.3773 C.ar      1 UNK         0.0000 
     23 C23        -0.1696   53.0607   28.0816 C.ar      1 UNK         0.0000 
     24 C24        -0.9951   52.3641   27.2008 C.ar      1 UNK         0.0000 
     25 C25        -0.5177   51.1789   26.6576 C.ar      1 UNK         0.0000 
     26 N26         0.7044   50.6980   26.9858 N.ar      1 UNK         0.0000 
     27 N27         1.4999   51.3818   27.8318 N.ar      1 UNK         0.0000 
     28 Cl28       -1.4906   50.3104   25.5283 Cl        1 UNK         0.0000 
     29 H29         3.7984   54.6930   24.7945 H         1 UNK         0.0000 
     30 H30         2.5347   54.1010   26.7596 H         1 UNK         0.0000 
     31 H31         6.1925   53.2959   28.8847 H         1 UNK         0.0000 
     32 H32         7.4769   53.8943   26.9007 H         1 UNK         0.0000 
     33 H33         7.5083   54.7573   24.7425 H         1 UNK         0.0000 
     34 H34         7.9880   55.2973   22.9249 H         1 UNK         0.0000 
     35 H35         4.9411   55.0412   20.7293 H         1 UNK         0.0000 
     36 H36         5.0797   55.5515   18.3507 H         1 UNK         0.0000 
     37 H37         9.2984   56.2489   18.7099 H         1 UNK         0.0000 
     38 H38         9.1835   55.7427   21.1085 H         1 UNK         0.0000 
     39 H39        -0.4956   54.0025   28.4969 H         1 UNK         0.0000 
     40 H40        -1.9689   52.7407   26.9264 H         1 UNK         0.0000 
@<TRIPOS>BOND
     1    1    6 ar   
     2    1    2 ar   
     3    1   29 1    
     4    2    3 ar   
     5    2   30 1    
     6    3    4 ar   
     7    3   18 1    
     8    4    5 ar   
     9    4   31 1    
    10    5    6 ar   
    11    5   32 1    
    12    6    7 1    
    13    7    8 am   BACKBONE|DICT|INTERRES
    14    7   33 1    
    15    8    9 2    
    16    8   10 am   BACKBONE|DICT|INTERRES
    17   10   11 1    
    18   10   34 1    
    19   11   16 ar   
    20   11   12 ar   
    21   12   13 ar   
    22   12   35 1    
    23   13   14 ar   
    24   13   36 1    
    25   14   15 ar   
    26   14   17 1    
    27   15   16 ar   
    28   15   37 1    
    29   16   38 1    
    30   18   19 2    
    31   18   20 2    
    32   18   21 1    
    33   21   22 1    
    34   22   27 ar   
    35   22   23 ar   
    36   23   24 ar   
    37   23   39 1    
    38   24   25 ar   
    39   24   40 1    
    40   25   26 ar   
    41   25   28 1    
    42   26   27 ar   
@<TRIPOS>SUBSTRUCTURE
     1 UNK         1 GROUP             0       ****    0 ROOT    
