ZINC09732811_4703
                    3D
 Schrodinger Suite 2024-2.
 39 41  0  0  1  0            999 V2000
    1.8872   53.6836   24.7948 C   0  0  0  0  0  0
    1.1947   52.5980   24.2570 C   0  0  0  0  0  0
    1.6079   52.0340   23.0494 C   0  0  0  0  0  0
    2.7042   52.5739   22.3711 C   0  0  0  0  0  0
    3.3638   53.6957   22.8843 C   0  0  0  0  0  0
    2.9773   54.2270   24.1147 C   0  0  0  0  0  0
    4.5280   54.0778   21.9926 C   0  0  0  0  0  0
    4.2460   53.2998   20.7075 C   0  0  0  0  0  0
    3.4264   52.0794   21.1323 C   0  0  2  0  0  0
    4.1199   51.2918   21.4406 H   0  0  0  0  0  0
    2.5162   51.6410   20.0743 N   0  0  0  0  0  0
    2.2191   50.3552   19.8395 C   0  0  0  0  0  0
    2.2931   49.4759   20.7030 O   0  0  0  0  0  0
    1.8678   50.1674   18.5551 N   0  0  0  0  0  0
    1.9044   48.8619   18.0821 N   0  0  0  0  0  0
    0.7886   48.3449   17.5271 C   0  0  0  0  0  0
   -0.3146   48.9013   17.5327 O   0  0  0  0  0  0
    0.9523   46.9735   16.9073 C   0  0  0  0  0  0
    2.2120   46.4970   16.5049 C   0  0  0  0  0  0
    2.3410   45.2220   15.9630 C   0  0  0  0  0  0
    1.2170   44.4192   15.8017 C   0  0  0  0  0  0
   -0.0400   44.8838   16.1763 C   0  0  0  0  0  0
   -0.1726   46.1564   16.7263 C   0  0  0  0  0  0
    1.3481   43.1785   15.2809 F   0  0  0  0  0  0
    1.5814   54.0953   25.7453 H   0  0  0  0  0  0
    0.3561   52.1737   24.7907 H   0  0  0  0  0  0
    1.0984   51.1617   22.6649 H   0  0  0  0  0  0
    3.5120   55.0584   24.5474 H   0  0  0  0  0  0
    5.4754   53.7633   22.4316 H   0  0  0  0  0  0
    4.5914   55.1468   21.7903 H   0  0  0  0  0  0
    5.1423   53.0319   20.1466 H   0  0  0  0  0  0
    3.6543   53.9369   20.0455 H   0  0  0  0  0  0
    2.1772   52.3533   19.4443 H   0  0  0  0  0  0
    2.1732   50.8166   17.8447 H   0  0  0  0  0  0
    2.8158   48.6653   17.6771 H   0  0  0  0  0  0
    3.1052   47.0983   16.6126 H   0  0  0  0  0  0
    3.3173   44.8549   15.6825 H   0  0  0  0  0  0
   -0.9084   44.2565   16.0426 H   0  0  0  0  0  0
   -1.1555   46.5000   17.0178 H   0  0  0  0  0  0
  1  6  2  0  0  0
  1  2  1  0  0  0
  1 25  1  0  0  0
  2  3  2  0  0  0
  2 26  1  0  0  0
  3  4  1  0  0  0
  3 27  1  0  0  0
  4  9  1  0  0  0
  4  5  2  0  0  0
  5  6  1  0  0  0
  5  7  1  0  0  0
  6 28  1  0  0  0
  7  8  1  0  0  0
  7 29  1  0  0  0
  7 30  1  0  0  0
  8  9  1  0  0  0
  8 31  1  0  0  0
  8 32  1  0  0  0
  9 10  1  0  0  0
  9 11  1  0  0  0
 11 12  1  0  0  0
 11 33  1  0  0  0
 12 13  2  0  0  0
 12 14  1  0  0  0
 14 15  1  0  0  0
 14 34  1  0  0  0
 15 16  1  0  0  0
 15 35  1  0  0  0
 16 17  2  0  0  0
 16 18  1  0  0  0
 18 23  2  0  0  0
 18 19  1  0  0  0
 19 20  2  0  0  0
 19 36  1  0  0  0
 20 21  1  0  0  0
 20 37  1  0  0  0
 21 22  2  0  0  0
 21 24  1  0  0  0
 22 23  1  0  0  0
 22 38  1  0  0  0
 23 39  1  0  0  0
M  END
> <i_i_glide_confnum>
13

> <i_i_glide_lignum>
4704

> <i_i_glide_posenum>
353

> <i_i_glide_rotatable_bonds>
6

> <i_m_Source_File_Index>
704

> <b_m_subgroup_collapsed>
0

> <r_i_docking_score>
-3.93588

> <r_i_glide_ecoul>
-3.76797

> <r_i_glide_eff_state_penalty>
0

> <r_i_glide_einternal>
3.88111

> <r_i_glide_emodel>
-37.594

> <r_i_glide_energy>
-28.8046

> <r_i_glide_erotb>
0.756722

> <r_i_glide_esite>
-0.28877

> <r_i_glide_evdw>
-25.0366

> <r_i_glide_gscore>
-3.93588

> <r_i_glide_hbond>
-0.16

> <r_i_glide_ligand_efficiency>
-0.171125

> <r_i_glide_ligand_efficiency_ln>
-0.951731

> <r_i_glide_ligand_efficiency_sa>
-0.486657

> <r_i_glide_lipo>
-1.2373

> <r_i_glide_metal>
0

> <r_i_glide_rewards>
-1.1895

> <s_i_glide_gridfile>
wee1_glide-grid

> <s_m_Source_File>
wee1_decoys_glide_SP.sdf

> <s_m_Source_Path>
/Users/zhangxujun/Desktop

> <s_m_entry_id>
979

> <s_m_entry_name>
wee1_decoys_glide_SP.704

> <s_m_subgroup_title>
wee1_decoys_glide_SP

> <s_m_subgroupid>
wee1_decoys_glide_SP


$$$$
