@<TRIPOS>MOLECULE
ZINC59102288_3845
45   48    1
SMALL
USER_CHARGES


@<TRIPOS>ATOM
      1 C1          6.4826   54.5956   26.9806 C.ar      1 UNK         0.0000 
      2 C2          5.9795   53.5196   27.6984 C.ar      1 UNK         0.0000 
      3 C3          4.6644   53.1135   27.4939 C.ar      1 UNK         0.0000 
      4 C4          3.8180   53.7846   26.5973 C.ar      1 UNK         0.0000 
      5 C5          4.3427   54.8997   25.9335 C.ar      1 UNK         0.0000 
      6 C6          5.6737   55.2822   26.0822 C.ar      1 UNK         0.0000 
      7 N7          2.4773   53.3379   26.3417 N.pl3     1 UNK         0.0000 
      8 C8          1.6295   53.0142   27.4302 C.2       1 UNK         0.0000 
      9 C9          0.4245   52.3821   27.2314 C.2       1 UNK         0.0000 
     10 C10        -0.1119   52.0466   25.8112 C.3       1 UNK         0.0000 
     11 H11        -1.0031   52.6643   25.6787 H         1 UNK         0.0000 
     12 C12         0.8513   52.5321   24.7336 C.2       1 UNK         0.0000 
     13 C13         2.0385   53.1085   25.0144 C.2       1 UNK         0.0000 
     14 N14         2.8912   53.4350   23.9802 N.pl3     1 UNK         0.0000 
     15 C15         0.4541   52.3024   23.3759 C.1       1 UNK         0.0000 
     16 N16         0.1215   52.0973   22.2868 N.1       1 UNK         0.0000 
     17 C17        -0.6401   50.6209   25.5498 C.ar      1 UNK         0.0000 
     18 C18         0.2432   49.5940   25.1938 C.ar      1 UNK         0.0000 
     19 C19        -0.2379   48.3282   24.8820 C.ar      1 UNK         0.0000 
     20 C20        -1.6048   48.0733   24.9327 C.ar      1 UNK         0.0000 
     21 C21        -2.4971   49.0830   25.2836 C.ar      1 UNK         0.0000 
     22 C22        -2.0156   50.3540   25.5871 C.ar      1 UNK         0.0000 
     23 Cl23       -2.1947   46.4967   24.5567 Cl        1 UNK         0.0000 
     24 C24        -0.4959   52.0967   28.3647 C.2       1 UNK         0.0000 
     25 O25        -1.6469   51.6965   28.2110 O.2       1 UNK         0.0000 
     26 C26        -0.0013   52.4233   29.7740 C.3       1 UNK         0.0000 
     27 C27         0.8058   53.7211   29.7543 C.3       1 UNK         0.0000 
     28 C28         2.0223   53.5420   28.8375 C.3       1 UNK         0.0000 
     29 H29         7.5044   54.8993   27.1390 H         1 UNK         0.0000 
     30 H30         6.6148   52.9845   28.3886 H         1 UNK         0.0000 
     31 H31         4.3203   52.2334   28.0129 H         1 UNK         0.0000 
     32 H32         3.7073   55.4725   25.2800 H         1 UNK         0.0000 
     33 H33         6.0635   56.1223   25.5284 H         1 UNK         0.0000 
     34 H34         2.6062   53.2966   23.0203 H         1 UNK         0.0000 
     35 H35         3.8808   53.5363   24.1529 H         1 UNK         0.0000 
     36 H36         1.3028   49.7694   25.1282 H         1 UNK         0.0000 
     37 H37         0.4558   47.5457   24.6160 H         1 UNK         0.0000 
     38 H38        -3.5569   48.8825   25.3296 H         1 UNK         0.0000 
     39 H39        -2.7183   51.1294   25.8539 H         1 UNK         0.0000 
     40 H40         0.6334   51.5963   30.0861 H         1 UNK         0.0000 
     41 H41        -0.8438   52.4527   30.4661 H         1 UNK         0.0000 
     42 H42         1.1183   53.9887   30.7643 H         1 UNK         0.0000 
     43 H43         0.1802   54.5412   29.4025 H         1 UNK         0.0000 
     44 H44         2.7822   52.9311   29.3212 H         1 UNK         0.0000 
     45 H45         2.4382   54.5470   28.7449 H         1 UNK         0.0000 
@<TRIPOS>BOND
     1    1    6 ar   
     2    1    2 ar   
     3    1   29 1    
     4    2    3 ar   
     5    2   30 1    
     6    3    4 ar   
     7    3   31 1    
     8    4    5 ar   
     9    4    7 1    
    10    5    6 ar   
    11    5   32 1    
    12    6   33 1    
    13    7   13 1    
    14    7    8 1    
    15    8   28 1    
    16    8    9 2    
    17    9   10 1    
    18    9   24 1    
    19   10   11 1    
    20   10   12 1    
    21   10   17 1    
    22   12   13 2    
    23   12   15 1    
    24   13   14 1    
    25   14   34 1    
    26   14   35 1    
    27   15   16 3    
    28   17   22 ar   
    29   17   18 ar   
    30   18   19 ar   
    31   18   36 1    
    32   19   20 ar   
    33   19   37 1    
    34   20   21 ar   
    35   20   23 1    
    36   21   22 ar   
    37   21   38 1    
    38   22   39 1    
    39   24   25 2    
    40   24   26 1    
    41   26   27 1    
    42   26   40 1    
    43   26   41 1    
    44   27   28 1    
    45   27   42 1    
    46   27   43 1    
    47   28   44 1    
    48   28   45 1    
@<TRIPOS>SUBSTRUCTURE
     1 UNK         1 GROUP             0       ****    0 ROOT    
