ZINC09227627_3246
                    3D
 Schrodinger Suite 2024-2.
 55 58  0  0  1  0            999 V2000
    4.0036   54.0330   24.1130 C   0  0  0  0  0  0
    2.6617   53.4746   23.6765 C   0  0  0  0  0  0
    2.5323   52.8425   22.4375 C   0  0  0  0  0  0
    1.2949   52.3431   22.0355 C   0  0  0  0  0  0
    0.1833   52.4968   22.8675 C   0  0  0  0  0  0
    0.3116   53.1383   24.0980 C   0  0  0  0  0  0
    1.5514   53.6159   24.5085 C   0  0  0  0  0  0
   -1.4257   51.8855   22.3726 S   0  0  0  0  0  0
   -1.3507   51.5922   20.9366 O   0  0  0  0  0  0
   -2.4231   52.8341   22.8826 O   0  0  0  0  0  0
   -1.6141   50.3426   23.2287 N   0  0  0  0  0  0
   -0.6251   49.2737   22.9653 C   0  0  0  0  0  0
    0.4364   49.2577   24.0754 C   0  0  0  0  0  0
   -0.1978   49.1881   25.4826 C   0  0  0  0  0  0
   -1.1622   50.3127   25.5869 N   0  0  0  0  0  0
   -2.2639   50.3210   24.5772 C   0  0  2  0  0  0
   -2.8527   51.2355   24.6522 H   0  0  0  0  0  0
   -3.3692   49.2583   24.7010 C   0  0  0  0  0  0
   -3.5365   48.5252   25.8828 C   0  0  0  0  0  0
   -4.5373   47.5634   25.9818 C   0  0  0  0  0  0
   -5.3852   47.3362   24.9015 C   0  0  0  0  0  0
   -5.2399   48.0649   23.7233 C   0  0  0  0  0  0
   -4.2353   49.0244   23.6251 C   0  0  0  0  0  0
   -1.1397   51.2080   26.6177 C   0  0  0  0  0  0
   -1.9797   52.1042   26.7253 O   0  0  0  0  0  0
   -0.0279   51.1064   27.6788 C   0  0  0  0  0  0
   -0.1796   52.2561   29.0984 S   0  0  0  0  0  0
    1.2767   53.2379   28.9527 C   0  0  0  0  0  0
    1.3093   54.5313   29.1765 N   0  0  0  0  0  0
    2.5895   55.0715   29.1088 N   0  0  0  0  0  0
    3.4937   54.1625   28.8579 C   0  0  0  0  0  0
    2.8568   52.5597   28.6751 S   0  0  0  0  0  0
    4.8332   54.3912   28.7541 N   0  0  0  0  0  0
    4.6060   54.3278   23.2529 H   0  0  0  0  0  0
    3.8695   54.9257   24.7237 H   0  0  0  0  0  0
    4.5555   53.2981   24.6984 H   0  0  0  0  0  0
    3.3863   52.7367   21.7840 H   0  0  0  0  0  0
    1.2030   51.8545   21.0758 H   0  0  0  0  0  0
   -0.5499   53.2699   24.7363 H   0  0  0  0  0  0
    1.6435   54.0977   25.4706 H   0  0  0  0  0  0
   -0.1739   49.4319   21.9849 H   0  0  0  0  0  0
   -1.1568   48.3220   22.9299 H   0  0  0  0  0  0
    1.0861   50.1301   24.0055 H   0  0  0  0  0  0
    1.0993   48.4102   23.9263 H   0  0  0  0  0  0
    0.5859   49.1810   26.2381 H   0  0  0  0  0  0
   -0.7545   48.2563   25.5893 H   0  0  0  0  0  0
   -2.8965   48.6957   26.7355 H   0  0  0  0  0  0
   -4.6560   47.0041   26.8986 H   0  0  0  0  0  0
   -6.1676   46.5954   24.9824 H   0  0  0  0  0  0
   -5.9073   47.8918   22.8920 H   0  0  0  0  0  0
   -4.1351   49.5903   22.7103 H   0  0  0  0  0  0
    0.9366   51.2115   27.1868 H   0  0  0  0  0  0
   -0.0955   50.1001   28.0816 H   0  0  0  0  0  0
    5.2282   55.3118   28.8818 H   0  0  0  0  0  0
    5.4809   53.6495   28.5321 H   0  0  0  0  0  0
  1  2  1  0  0  0
  1 34  1  0  0  0
  1 35  1  0  0  0
  1 36  1  0  0  0
  2  7  2  0  0  0
  2  3  1  0  0  0
  3  4  2  0  0  0
  3 37  1  0  0  0
  4  5  1  0  0  0
  4 38  1  0  0  0
  5  6  2  0  0  0
  5  8  1  0  0  0
  6  7  1  0  0  0
  6 39  1  0  0  0
  7 40  1  0  0  0
  8  9  2  0  0  0
  8 10  2  0  0  0
  8 11  1  0  0  0
 11 16  1  0  0  0
 11 12  1  0  0  0
 12 13  1  0  0  0
 12 41  1  0  0  0
 12 42  1  0  0  0
 13 14  1  0  0  0
 13 43  1  0  0  0
 13 44  1  0  0  0
 14 15  1  0  0  0
 14 45  1  0  0  0
 14 46  1  0  0  0
 15 16  1  0  0  0
 15 24  1  0  0  0
 16 17  1  0  0  0
 16 18  1  0  0  0
 18 23  2  0  0  0
 18 19  1  0  0  0
 19 20  2  0  0  0
 19 47  1  0  0  0
 20 21  1  0  0  0
 20 48  1  0  0  0
 21 22  2  0  0  0
 21 49  1  0  0  0
 22 23  1  0  0  0
 22 50  1  0  0  0
 23 51  1  0  0  0
 24 25  2  0  0  0
 24 26  1  0  0  0
 26 27  1  0  0  0
 26 52  1  0  0  0
 26 53  1  0  0  0
 27 28  1  0  0  0
 28 32  1  0  0  0
 28 29  2  0  0  0
 29 30  1  0  0  0
 30 31  2  0  0  0
 31 32  1  0  0  0
 31 33  1  0  0  0
 33 54  1  0  0  0
 33 55  1  0  0  0
M  END
> <i_i_glide_confnum>
258

> <i_i_glide_lignum>
3247

> <i_i_glide_posenum>
238

> <i_i_glide_rotatable_bonds>
7

> <i_m_Source_File_Index>
3283

> <b_m_subgroup_collapsed>
0

> <r_i_docking_score>
-4.1618

> <r_i_glide_ecoul>
-6.61466

> <r_i_glide_eff_state_penalty>
0

> <r_i_glide_einternal>
3.18601

> <r_i_glide_emodel>
-57.2261

> <r_i_glide_energy>
-46.4522

> <r_i_glide_erotb>
0.594026

> <r_i_glide_esite>
-0.149231

> <r_i_glide_evdw>
-39.8375

> <r_i_glide_gscore>
-4.1618

> <r_i_glide_hbond>
0

> <r_i_glide_ligand_efficiency>
-0.130056

> <r_i_glide_ligand_efficiency_ln>
-0.93194

> <r_i_glide_ligand_efficiency_sa>
-0.412903

> <r_i_glide_lipo>
-1.67254

> <r_i_glide_metal>
0

> <r_i_glide_rewards>
0.0500204

> <s_i_glide_gridfile>
wee1_glide-grid

> <s_m_Source_File>
wee1_decoys_glide_SP.sdf

> <s_m_Source_Path>
/Users/zhangxujun/Desktop

> <s_m_entry_id>
3558

> <s_m_entry_name>
wee1_decoys_glide_SP.3283

> <s_m_subgroup_title>
wee1_decoys_glide_SP

> <s_m_subgroupid>
wee1_decoys_glide_SP


$$$$
