@<TRIPOS>MOLECULE
ZINC14461017_4426
49   52    1
SMALL
USER_CHARGES


@<TRIPOS>ATOM
      1 C1          0.0981   53.2921   29.5548 C.2       1 UNK         0.0000 
      2 C2         -0.0410   51.9953   29.2394 C.2       1 UNK         0.0000 
      3 C3          0.7573   51.2949   28.1587 C.3       1 UNK         0.0000 
      4 N4         -0.0957   50.4968   27.2475 N.pl3     1 UNK         0.0000 
      5 S5         -1.1232   51.2648   26.0415 S.o2      1 UNK         0.0000 
      6 O6         -2.0154   50.2371   25.4930 O.2       1 UNK         0.0000 
      7 O7         -1.6686   52.4971   26.6162 O.2       1 UNK         0.0000 
      8 C8         -0.0086   51.7524   24.7318 C.ar      1 UNK         0.0000 
      9 C9         -0.0750   51.1698   23.4673 C.ar      1 UNK         0.0000 
     10 C10         0.8124   51.5769   22.4734 C.ar      1 UNK         0.0000 
     11 C11         1.7679   52.5601   22.7411 C.ar      1 UNK         0.0000 
     12 C12         1.8785   53.1192   24.0247 C.ar      1 UNK         0.0000 
     13 C13         0.9494   52.7291   24.9914 C.ar      1 UNK         0.0000 
     14 C14         2.9341   54.1704   24.3453 C.3       1 UNK         0.0000 
     15 H15         2.3786   55.0998   24.4689 H         1 UNK         0.0000 
     16 C16         3.7349   53.9147   25.6061 C.2       1 UNK         0.0000 
     17 C17         5.0475   54.0974   25.4113 C.2       1 UNK         0.0000 
     18 C18         5.3547   54.4738   23.9821 C.3       1 UNK         0.0000 
     19 C19         3.9979   54.3600   23.2474 C.3       1 UNK         0.0000 
     20 H20         3.7181   55.2967   22.7753 H         1 UNK         0.0000 
     21 C21         4.0269   53.3197   22.0833 C.3       1 UNK         0.0000 
     22 H22         4.5350   52.4263   22.4450 H         1 UNK         0.0000 
     23 N23         2.6729   52.8960   21.7282 N.pl3     1 UNK         0.0000 
     24 C24         4.8453   53.7531   20.8411 C.ar      1 UNK         0.0000 
     25 C25         5.5264   54.9821   20.7913 C.ar      1 UNK         0.0000 
     26 C26         6.2454   55.3699   19.6640 C.ar      1 UNK         0.0000 
     27 C27         6.3240   54.5248   18.5624 C.ar      1 UNK         0.0000 
     28 C28         5.6679   53.2970   18.5914 C.ar      1 UNK         0.0000 
     29 C29         4.9305   52.9149   19.7128 C.ar      1 UNK         0.0000 
     30 O30         4.3021   51.6998   19.6832 O.3       1 UNK         0.0000 
     31 Br31        7.1037   57.0640   19.6385 Br        1 UNK         0.0000 
     32 H32         0.8057   53.9249   29.0382 H         1 UNK         0.0000 
     33 H33        -0.4958   53.7383   30.3377 H         1 UNK         0.0000 
     34 H34        -0.7636   51.3896   29.7710 H         1 UNK         0.0000 
     35 H35         1.3855   51.9823   27.5980 H         1 UNK         0.0000 
     36 H36         1.4507   50.6189   28.6592 H         1 UNK         0.0000 
     37 H37        -0.5380   49.6672   27.6792 H         1 UNK         0.0000 
     38 H38        -0.8074   50.4065   23.2519 H         1 UNK         0.0000 
     39 H39         0.7580   51.1216   21.4961 H         1 UNK         0.0000 
     40 H40         0.9736   53.2064   25.9579 H         1 UNK         0.0000 
     41 H41         3.2679   53.6612   26.5461 H         1 UNK         0.0000 
     42 H42         5.8209   53.9940   26.1589 H         1 UNK         0.0000 
     43 H43         6.1022   53.7887   23.5774 H         1 UNK         0.0000 
     44 H44         5.7786   55.4753   23.9529 H         1 UNK         0.0000 
     45 H45         2.6617   52.3726   20.8597 H         1 UNK         0.0000 
     46 H46         5.5060   55.6790   21.6114 H         1 UNK         0.0000 
     47 H47         6.8835   54.8199   17.6870 H         1 UNK         0.0000 
     48 H48         5.7259   52.6412   17.7335 H         1 UNK         0.0000 
     49 H49         4.7040   51.1147   18.9885 H         1 UNK         0.0000 
@<TRIPOS>BOND
     1    1    2 2    
     2    1   32 1    
     3    1   33 1    
     4    2    3 1    
     5    2   34 1    
     6    3    4 1    
     7    3   35 1    
     8    3   36 1    
     9    4    5 1    
    10    4   37 1    
    11    5    6 2    
    12    5    7 2    
    13    5    8 1    
    14    8   13 ar   
    15    8    9 ar   
    16    9   10 ar   
    17    9   38 1    
    18   10   11 ar   
    19   10   39 1    
    20   11   23 1    
    21   11   12 ar   
    22   12   13 ar   
    23   12   14 1    
    24   13   40 1    
    25   14   15 1    
    26   14   19 1    
    27   14   16 1    
    28   16   17 2    
    29   16   41 1    
    30   17   18 1    
    31   17   42 1    
    32   18   19 1    
    33   18   43 1    
    34   18   44 1    
    35   19   20 1    
    36   19   21 1    
    37   21   22 1    
    38   21   23 1    
    39   21   24 1    
    40   23   45 1    
    41   24   29 ar   
    42   24   25 ar   
    43   25   26 ar   
    44   25   46 1    
    45   26   27 ar   
    46   26   31 1    
    47   27   28 ar   
    48   27   47 1    
    49   28   29 ar   
    50   28   48 1    
    51   29   30 1    
    52   30   49 1    
@<TRIPOS>SUBSTRUCTURE
     1 UNK         1 GROUP             0       ****    0 ROOT    
