@<TRIPOS>MOLECULE
ZINC59384852_4306
43   45    1
SMALL
USER_CHARGES


@<TRIPOS>ATOM
      1 C1          2.7042   50.1373   20.3506 C.3       1 UNK         0.0000 
      2 C2          3.1580   51.5400   20.7511 C.2       1 UNK         0.0000 
      3 C3          2.6863   52.2564   21.8143 C.2       1 UNK         0.0000 
      4 C4          3.2311   53.6972   22.0831 C.3       1 UNK         0.0000 
      5 H5          2.3858   54.3733   22.2177 H         1 UNK         0.0000 
      6 N6          3.9045   54.1706   20.8456 N.pl3     1 UNK         0.0000 
      7 C7          4.3958   53.4045   19.8322 C.2       1 UNK         0.0000 
      8 S8          5.3824   54.0537   18.6747 S.2       1 UNK         0.0000 
      9 N9          4.0163   52.0968   19.8477 N.pl3     1 UNK         0.0000 
     10 C10         4.0860   53.8885   23.3474 C.ar      1 UNK         0.0000 
     11 C11         3.4584   54.0964   24.5808 C.ar      1 UNK         0.0000 
     12 C12         4.2202   54.2878   25.7315 C.ar      1 UNK         0.0000 
     13 C13         5.6109   54.2829   25.6501 C.ar      1 UNK         0.0000 
     14 C14         6.2472   54.0969   24.4265 C.ar      1 UNK         0.0000 
     15 C15         5.4875   53.8829   23.2808 C.ar      1 UNK         0.0000 
     16 Br16        6.6512   54.4965   27.2277 Br        1 UNK         0.0000 
     17 C17         1.7725   51.6685   22.7830 C.2       1 UNK         0.0000 
     18 O18         1.9437   50.5294   23.2306 O.2       1 UNK         0.0000 
     19 N19         0.7234   52.4479   23.1200 N.am      1 UNK         0.0000 
     20 N20        -0.2206   52.0168   23.9858 N.2       1 UNK         0.0000 
     21 C21        -1.1914   52.8167   24.1654 C.2       1 UNK         0.0000 
     22 C22        -2.3203   52.4967   25.0496 C.ar      1 UNK         0.0000 
     23 C23        -2.2024   51.5562   26.0849 C.ar      1 UNK         0.0000 
     24 C24        -3.2837   51.2763   26.9155 C.ar      1 UNK         0.0000 
     25 C25        -4.4947   51.9325   26.7164 C.ar      1 UNK         0.0000 
     26 C26        -4.6296   52.8650   25.6916 C.ar      1 UNK         0.0000 
     27 C27        -3.5478   53.1463   24.8623 C.ar      1 UNK         0.0000 
     28 F28        -5.5424   51.6707   27.5278 F         1 UNK         0.0000 
     29 H29         3.1167   49.3955   21.0342 H         1 UNK         0.0000 
     30 H30         1.6180   50.0603   20.4003 H         1 UNK         0.0000 
     31 H31         3.0018   49.8681   19.3345 H         1 UNK         0.0000 
     32 H32         4.1444   55.1468   20.7652 H         1 UNK         0.0000 
     33 H33         4.4223   51.5495   19.0897 H         1 UNK         0.0000 
     34 H34         2.3805   54.1048   24.6561 H         1 UNK         0.0000 
     35 H35         3.7337   54.4297   26.6853 H         1 UNK         0.0000 
     36 H36         7.3265   54.0913   24.3695 H         1 UNK         0.0000 
     37 H37         5.9995   53.7199   22.3425 H         1 UNK         0.0000 
     38 H38         0.5852   53.3600   22.7116 H         1 UNK         0.0000 
     39 H39        -1.2542   53.7888   23.6815 H         1 UNK         0.0000 
     40 H40        -1.2715   51.0320   26.2566 H         1 UNK         0.0000 
     41 H41        -3.1806   50.5479   27.7078 H         1 UNK         0.0000 
     42 H42        -5.5757   53.3648   25.5452 H         1 UNK         0.0000 
     43 H43        -3.6731   53.8740   24.0728 H         1 UNK         0.0000 
@<TRIPOS>BOND
     1    1    2 1    
     2    1   29 1    
     3    1   30 1    
     4    1   31 1    
     5    2    9 1    
     6    2    3 2    
     7    3    4 1    
     8    3   17 1    
     9    4    5 1    
    10    4    6 1    
    11    4   10 1    
    12    6    7 1    
    13    6   32 1    
    14    7    8 2    
    15    7    9 1    
    16    9   33 1    
    17   10   15 ar   
    18   10   11 ar   
    19   11   12 ar   
    20   11   34 1    
    21   12   13 ar   
    22   12   35 1    
    23   13   14 ar   
    24   13   16 1    
    25   14   15 ar   
    26   14   36 1    
    27   15   37 1    
    28   17   18 2    
    29   17   19 am   BACKBONE|DICT|INTERRES
    30   19   20 1    
    31   19   38 1    
    32   20   21 2    
    33   21   22 1    
    34   21   39 1    
    35   22   27 ar   
    36   22   23 ar   
    37   23   24 ar   
    38   23   40 1    
    39   24   25 ar   
    40   24   41 1    
    41   25   26 ar   
    42   25   28 1    
    43   26   27 ar   
    44   26   42 1    
    45   27   43 1    
@<TRIPOS>SUBSTRUCTURE
     1 UNK         1 GROUP             0       ****    0 ROOT    
