ZINC12772318_2705
                    3D
 Schrodinger Suite 2024-2.
 57 60  0  0  1  0            999 V2000
    2.8898   50.7639   22.0813 C   0  0  0  0  0  0
    1.3438   50.7897   22.1176 C   0  0  0  0  0  0
    0.8970   49.5385   21.3019 C   0  0  0  0  0  0
    0.7072   50.9603   23.5796 C   0  0  1  0  0  0
    1.5047   51.9795   24.5082 C   0  0  2  0  0  0
    2.5433   51.6948   24.5814 H   0  0  0  0  0  0
    0.9421   52.0201   25.9791 C   0  0  2  0  0  0
    1.1032   51.0367   26.4242 H   0  0  0  0  0  0
   -0.5154   52.1621   25.8718 N   0  0  0  0  0  0
   -1.3360   51.8832   24.8255 C   0  0  0  0  0  0
   -2.9451   52.2766   25.0805 S   0  0  0  0  0  0
   -0.7626   51.3346   23.6821 N   0  0  0  0  0  0
   -1.5794   50.9722   22.5855 C   0  0  0  0  0  0
   -2.3317   49.7866   22.6251 C   0  0  0  0  0  0
   -3.1447   49.4337   21.5461 C   0  0  0  0  0  0
   -3.2069   50.2619   20.4263 C   0  0  0  0  0  0
   -2.4417   51.4388   20.3757 C   0  0  0  0  0  0
   -1.6459   51.8016   21.4600 C   0  0  0  0  0  0
   -2.5008   52.3094   19.3049 O   0  0  0  0  0  0
   -3.0226   51.7202   18.1086 C   0  0  0  0  0  0
   -4.2863   50.8824   18.4220 C   0  0  0  0  0  0
   -3.9854   49.8471   19.3642 O   0  0  0  0  0  0
    1.6261   52.9747   26.9870 C   0  0  0  0  0  0
    0.9047   53.4805   28.0802 C   0  0  0  0  0  0
    1.5089   54.3319   29.0017 C   0  0  0  0  0  0
    2.8514   54.6664   28.8543 C   0  0  0  0  0  0
    3.5949   54.1443   27.7999 C   0  0  0  0  0  0
    2.9859   53.2976   26.8778 C   0  0  0  0  0  0
    1.6587   53.3744   23.8815 C   0  0  0  0  0  0
    0.6937   54.0974   23.6816 O   0  0  0  0  0  0
    2.9429   53.6694   23.6092 O   0  0  0  0  0  0
    3.2885   54.8851   22.9900 C   0  0  0  0  0  0
    0.8767   49.6827   24.1759 O   0  0  0  0  0  0
    3.2743   50.0923   22.8431 H   0  0  0  0  0  0
    3.2793   50.4279   21.1184 H   0  0  0  0  0  0
    3.3318   51.7423   22.2280 H   0  0  0  0  0  0
    1.0608   51.6649   21.5326 H   0  0  0  0  0  0
    1.2277   48.6163   21.7765 H   0  0  0  0  0  0
   -0.1716   49.4517   21.1450 H   0  0  0  0  0  0
    1.3292   49.5490   20.2995 H   0  0  0  0  0  0
   -1.0284   52.4039   26.7062 H   0  0  0  0  0  0
   -2.2831   49.1447   23.4938 H   0  0  0  0  0  0
   -3.7222   48.5211   21.5761 H   0  0  0  0  0  0
   -1.0736   52.7154   21.4251 H   0  0  0  0  0  0
   -3.2503   52.5053   17.3875 H   0  0  0  0  0  0
   -2.2637   51.0730   17.6663 H   0  0  0  0  0  0
   -5.0567   51.5324   18.8388 H   0  0  0  0  0  0
   -4.6862   50.4354   17.5116 H   0  0  0  0  0  0
   -0.1341   53.2253   28.2260 H   0  0  0  0  0  0
    0.9380   54.7279   29.8286 H   0  0  0  0  0  0
    3.3217   55.3292   29.5658 H   0  0  0  0  0  0
    4.6417   54.3940   27.6990 H   0  0  0  0  0  0
    3.5895   52.8971   26.0789 H   0  0  0  0  0  0
    4.3451   54.8884   22.7298 H   0  0  0  0  0  0
    2.7105   55.0460   22.0816 H   0  0  0  0  0  0
    3.0978   55.6948   23.6861 H   0  0  0  0  0  0
    1.7968   49.4128   24.0990 H   0  0  0  0  0  0
  1  2  1  0  0  0
  1 34  1  0  0  0
  1 35  1  0  0  0
  1 36  1  0  0  0
  2  3  1  0  0  0
  2  4  1  0  0  0
  2 37  1  0  0  0
  3 38  1  0  0  0
  3 39  1  0  0  0
  3 40  1  0  0  0
  4 12  1  0  0  0
  4  5  1  0  0  0
  4 33  1  0  0  0
  5  6  1  0  0  0
  5  7  1  0  0  0
  5 29  1  0  0  0
  7  8  1  0  0  0
  7  9  1  0  0  0
  7 23  1  0  0  0
  9 10  1  0  0  0
  9 41  1  0  0  0
 10 11  2  0  0  0
 10 12  1  0  0  0
 12 13  1  0  0  0
 13 18  2  0  0  0
 13 14  1  0  0  0
 14 15  2  0  0  0
 14 42  1  0  0  0
 15 16  1  0  0  0
 15 43  1  0  0  0
 16 22  1  0  0  0
 16 17  2  0  0  0
 17 18  1  0  0  0
 17 19  1  0  0  0
 18 44  1  0  0  0
 19 20  1  0  0  0
 20 21  1  0  0  0
 20 45  1  0  0  0
 20 46  1  0  0  0
 21 22  1  0  0  0
 21 47  1  0  0  0
 21 48  1  0  0  0
 23 28  2  0  0  0
 23 24  1  0  0  0
 24 25  2  0  0  0
 24 49  1  0  0  0
 25 26  1  0  0  0
 25 50  1  0  0  0
 26 27  2  0  0  0
 26 51  1  0  0  0
 27 28  1  0  0  0
 27 52  1  0  0  0
 28 53  1  0  0  0
 29 30  2  0  0  0
 29 31  1  0  0  0
 31 32  1  0  0  0
 32 54  1  0  0  0
 32 55  1  0  0  0
 32 56  1  0  0  0
 33 57  1  0  0  0
M  END
> <i_i_glide_confnum>
10

> <i_i_glide_lignum>
2706

> <i_i_glide_posenum>
57

> <i_i_glide_rotatable_bonds>
6

> <i_m_Source_File_Index>
573

> <b_m_subgroup_collapsed>
0

> <r_i_docking_score>
-4.54303

> <r_i_glide_ecoul>
-3.59324

> <r_i_glide_eff_state_penalty>
0

> <r_i_glide_einternal>
1.26612

> <r_i_glide_emodel>
-41.4366

> <r_i_glide_energy>
-32.7159

> <r_i_glide_erotb>
0.306142

> <r_i_glide_esite>
-0.0113921

> <r_i_glide_evdw>
-29.1226

> <r_i_glide_gscore>
-4.54303

> <r_i_glide_hbond>
-0.400535

> <r_i_glide_ligand_efficiency>
-0.146549

> <r_i_glide_ligand_efficiency_ln>
-1.02459

> <r_i_glide_ligand_efficiency_sa>
-0.460367

> <r_i_glide_lipo>
-1.59894

> <r_i_glide_metal>
0

> <r_i_glide_rewards>
-0.843189

> <s_i_glide_gridfile>
wee1_glide-grid

> <s_m_Source_File>
wee1_decoys_glide_SP.sdf

> <s_m_Source_Path>
/Users/zhangxujun/Desktop

> <s_m_entry_id>
848

> <s_m_entry_name>
wee1_decoys_glide_SP.573

> <s_m_subgroup_title>
wee1_decoys_glide_SP

> <s_m_subgroupid>
wee1_decoys_glide_SP


$$$$
