@<TRIPOS>MOLECULE
ZINC04236425_3351
68   72    1
SMALL
USER_CHARGES


@<TRIPOS>ATOM
      1 C1          6.8283   54.6668   27.2730 C.3       1 UNK         0.0000 
      2 O2          6.8565   54.6512   25.8462 O.3       1 UNK         0.0000 
      3 C3          5.6905   54.3632   25.1566 C.ar      1 UNK         0.0000 
      4 C4          4.4320   54.2452   25.7646 C.ar      1 UNK         0.0000 
      5 C5          3.3128   53.9234   25.0042 C.ar      1 UNK         0.0000 
      6 C6          3.4200   53.6933   23.6250 C.ar      1 UNK         0.0000 
      7 C7          4.6722   53.8485   23.0138 C.ar      1 UNK         0.0000 
      8 C8          5.7962   54.1727   23.7772 C.ar      1 UNK         0.0000 
      9 C9          2.1637   53.3641   22.8383 C.2       1 UNK         0.0000 
     10 O10         1.1045   53.8529   23.2459 O.2       1 UNK         0.0000 
     11 N11         2.2175   52.5995   21.7020 N.am      1 UNK         0.0000 
     12 C12         3.1960   51.5113   21.4658 C.3       1 UNK         0.0000 
     13 C13         2.4812   50.1284   21.6015 C.3       1 UNK         0.0000 
     14 H14         3.1496   49.3120   21.3467 H         1 UNK         0.0000 
     15 C15         1.3592   50.0198   20.5719 C.3       1 UNK         0.0000 
     16 C16         0.3627   51.1304   20.8894 C.3       1 UNK         0.0000 
     17 H17        -0.4255   51.1052   20.1356 H         1 UNK         0.0000 
     18 C18         1.0342   52.5222   20.8081 C.3       1 UNK         0.0000 
     19 C19        -0.2799   50.9143   22.2651 C.ar      1 UNK         0.0000 
     20 C20        -1.5584   51.2793   22.4908 C.ar      1 UNK         0.0000 
     21 C21        -2.1033   51.1050   23.8140 C.ar      1 UNK         0.0000 
     22 C22        -1.3378   50.5688   24.8022 C.ar      1 UNK         0.0000 
     23 C23         0.0363   50.1135   24.5471 C.ar      1 UNK         0.0000 
     24 O24         0.7043   49.5646   25.4328 O.2       1 UNK         0.0000 
     25 N25         0.5200   50.3389   23.2679 N.pl3     1 UNK         0.0000 
     26 C26         1.9075   49.8570   23.0155 C.3       1 UNK         0.0000 
     27 N27        -1.8246   50.3784   26.0817 N.am      1 UNK         0.0000 
     28 C28        -2.7316   51.1488   26.7151 C.2       1 UNK         0.0000 
     29 O29        -3.0224   52.2958   26.3613 O.2       1 UNK         0.0000 
     30 N30        -3.3251   50.5006   27.7381 N.am      1 UNK         0.0000 
     31 C31        -4.5071   50.9091   28.3940 C.ar      1 UNK         0.0000 
     32 C32        -5.4986   51.6792   27.7569 C.ar      1 UNK         0.0000 
     33 C33        -6.6292   52.1251   28.4512 C.ar      1 UNK         0.0000 
     34 C34        -6.7751   51.7578   29.7840 C.ar      1 UNK         0.0000 
     35 C35        -5.8380   50.9564   30.4292 C.ar      1 UNK         0.0000 
     36 C36        -4.6980   50.5264   29.7240 C.ar      1 UNK         0.0000 
     37 O37        -6.1122   50.6653   31.7471 O.3       1 UNK         0.0000 
     38 C38        -5.2794   49.7464   32.4317 C.3       1 UNK         0.0000 
     39 O39        -7.6190   52.9260   27.9143 O.3       1 UNK         0.0000 
     40 C40        -7.5011   53.3610   26.5648 C.3       1 UNK         0.0000 
     41 H41         7.8365   54.7986   27.6640 H         1 UNK         0.0000 
     42 H42         6.4477   53.7283   27.6792 H         1 UNK         0.0000 
     43 H43         6.2246   55.4916   27.6523 H         1 UNK         0.0000 
     44 H44         4.3052   54.3932   26.8260 H         1 UNK         0.0000 
     45 H45         2.3587   53.8387   25.5037 H         1 UNK         0.0000 
     46 H46         4.7855   53.7291   21.9447 H         1 UNK         0.0000 
     47 H47         6.7590   54.2771   23.2991 H         1 UNK         0.0000 
     48 H48         3.5695   51.6248   20.4462 H         1 UNK         0.0000 
     49 H49         4.0865   51.5784   22.0814 H         1 UNK         0.0000 
     50 H50         1.7547   50.1331   19.5610 H         1 UNK         0.0000 
     51 H51         0.8798   49.0391   20.6085 H         1 UNK         0.0000 
     52 H52         0.3051   53.2968   21.0123 H         1 UNK         0.0000 
     53 H53         1.3738   52.7055   19.7874 H         1 UNK         0.0000 
     54 H54        -2.1561   51.7273   21.7130 H         1 UNK         0.0000 
     55 H55        -3.1239   51.4099   23.9985 H         1 UNK         0.0000 
     56 H56         1.9038   48.7846   23.1952 H         1 UNK         0.0000 
     57 H57         2.5827   50.2447   23.7779 H         1 UNK         0.0000 
     58 H58        -1.3995   49.6286   26.6186 H         1 UNK         0.0000 
     59 H59        -2.8596   49.6713   28.0988 H         1 UNK         0.0000 
     60 H60        -5.3831   51.9441   26.7180 H         1 UNK         0.0000 
     61 H61        -7.6478   52.0909   30.3265 H         1 UNK         0.0000 
     62 H62        -3.9433   49.9182   30.2039 H         1 UNK         0.0000 
     63 H63        -5.6426   49.6187   33.4526 H         1 UNK         0.0000 
     64 H64        -5.2988   48.7751   31.9382 H         1 UNK         0.0000 
     65 H65        -4.2462   50.0970   32.4818 H         1 UNK         0.0000 
     66 H66        -8.3600   53.9795   26.3086 H         1 UNK         0.0000 
     67 H67        -6.6042   53.9659   26.4190 H         1 UNK         0.0000 
     68 H68        -7.4852   52.5192   25.8719 H         1 UNK         0.0000 
@<TRIPOS>BOND
     1    1    2 1    
     2    1   41 1    
     3    1   42 1    
     4    1   43 1    
     5    2    3 1    
     6    3    8 ar   
     7    3    4 ar   
     8    4    5 ar   
     9    4   44 1    
    10    5    6 ar   
    11    5   45 1    
    12    6    7 ar   
    13    6    9 1    
    14    7    8 ar   
    15    7   46 1    
    16    8   47 1    
    17    9   10 2    
    18    9   11 am   BACKBONE|DICT|INTERRES
    19   11   18 1    
    20   11   12 1    
    21   12   13 1    
    22   12   48 1    
    23   12   49 1    
    24   13   14 1    
    25   13   26 1    
    26   13   15 1    
    27   15   16 1    
    28   15   50 1    
    29   15   51 1    
    30   16   17 1    
    31   16   18 1    
    32   16   19 1    
    33   18   52 1    
    34   18   53 1    
    35   19   25 ar   
    36   19   20 ar   
    37   20   21 ar   
    38   20   54 1    
    39   21   22 ar   
    40   21   55 1    
    41   22   23 ar   
    42   22   27 1    
    43   23   24 2    
    44   23   25 ar   
    45   25   26 1    
    46   26   56 1    
    47   26   57 1    
    48   27   28 am   BACKBONE|DICT|INTERRES
    49   27   58 1    
    50   28   29 2    
    51   28   30 am   BACKBONE|DICT|INTERRES
    52   30   31 1    
    53   30   59 1    
    54   31   36 ar   
    55   31   32 ar   
    56   32   33 ar   
    57   32   60 1    
    58   33   34 ar   
    59   33   39 1    
    60   34   35 ar   
    61   34   61 1    
    62   35   36 ar   
    63   35   37 1    
    64   36   62 1    
    65   37   38 1    
    66   38   63 1    
    67   38   64 1    
    68   38   65 1    
    69   39   40 1    
    70   40   66 1    
    71   40   67 1    
    72   40   68 1    
@<TRIPOS>SUBSTRUCTURE
     1 UNK         1 GROUP             0       ****    0 ROOT    
