@<TRIPOS>MOLECULE
ZINC39686728_345
79   82    1
SMALL
USER_CHARGES


@<TRIPOS>ATOM
      1 C1         -0.3096   48.7786   22.1815 C.3       1 UNK         0.0000 
      2 C2         -0.3629   50.1813   21.5477 C.3       1 UNK         0.0000 
      3 H3          0.6427   50.3911   21.1803 H         1 UNK         0.0000 
      4 C4         -1.3311   50.1725   20.3367 C.3       1 UNK         0.0000 
      5 C5         -1.1761   51.3143   19.3301 C.ar      1 UNK         0.0000 
      6 C6         -2.2956   52.0972   19.0318 C.ar      1 UNK         0.0000 
      7 C7         -2.2166   53.1132   18.0817 C.ar      1 UNK         0.0000 
      8 C8         -1.0129   53.3619   17.4274 C.ar      1 UNK         0.0000 
      9 C9          0.1055   52.5793   17.7063 C.ar      1 UNK         0.0000 
     10 C10         0.0360   51.5347   18.6445 C.ar      1 UNK         0.0000 
     11 O11         1.0952   50.6863   18.9103 O.3       1 UNK         0.0000 
     12 C12         2.3562   50.8988   18.2839 C.3       1 UNK         0.0000 
     13 N13        -0.6783   51.1966   22.5656 N.am      1 UNK         0.0000 
     14 C14         0.2030   51.6010   23.5031 C.2       1 UNK         0.0000 
     15 O15         1.3820   51.2418   23.4603 O.2       1 UNK         0.0000 
     16 C16        -0.3393   52.4392   24.7067 C.3       1 UNK         0.0000 
     17 H17        -0.4794   53.4613   24.3516 H         1 UNK         0.0000 
     18 C18         0.8045   52.5133   25.7518 C.3       1 UNK         0.0000 
     19 N19         0.1586   52.6569   27.0515 N.am      1 UNK         0.0000 
     20 C20        -1.2881   52.5007   26.9222 C.3       1 UNK         0.0000 
     21 C21        -1.5421   51.8747   25.5219 C.3       1 UNK         0.0000 
     22 C22        -1.5624   50.3166   25.6008 C.3       1 UNK         0.0000 
     23 C23        -2.6818   49.7887   26.5146 C.3       1 UNK         0.0000 
     24 N24        -4.0438   50.3339   26.0351 N.4       1 UNK         0.0000 
     25 C25        -4.0805   51.8651   25.8291 C.3       1 UNK         0.0000 
     26 C26        -2.9109   52.2558   24.9033 C.3       1 UNK         0.0000 
     27 C27         0.7458   53.3842   28.0368 C.2       1 UNK         0.0000 
     28 O28         0.7044   54.6119   28.0817 O.2       1 UNK         0.0000 
     29 C29         1.6258   52.6439   29.0759 C.3       1 UNK         0.0000 
     30 H30         1.8857   51.6506   28.7037 H         1 UNK         0.0000 
     31 C31         0.8608   52.5042   30.4314 C.3       1 UNK         0.0000 
     32 C32         0.5673   53.8509   31.1370 C.3       1 UNK         0.0000 
     33 C33        -0.4572   51.7035   30.3118 C.3       1 UNK         0.0000 
     34 O34         2.8688   53.3488   29.3666 O.3       1 UNK         0.0000 
     35 C35         3.7940   53.6940   28.3847 C.ar      1 UNK         0.0000 
     36 C36         4.9064   54.4496   28.7549 C.ar      1 UNK         0.0000 
     37 C37         5.8749   54.7882   27.8057 C.ar      1 UNK         0.0000 
     38 C38         5.7167   54.4426   26.4720 C.ar      1 UNK         0.0000 
     39 C39         4.6172   53.6968   26.0867 C.ar      1 UNK         0.0000 
     40 C40         3.7002   53.2967   27.0489 C.ar      1 UNK         0.0000 
     41 H41        -0.0956   48.0338   21.4167 H         1 UNK         0.0000 
     42 H42         0.4770   48.6999   22.9333 H         1 UNK         0.0000 
     43 H43        -1.2626   48.4991   22.6299 H         1 UNK         0.0000 
     44 H44        -1.1704   49.2630   19.7561 H         1 UNK         0.0000 
     45 H45        -2.3608   50.1079   20.6917 H         1 UNK         0.0000 
     46 H46        -3.2405   51.9060   19.5206 H         1 UNK         0.0000 
     47 H47        -3.0878   53.7056   17.8407 H         1 UNK         0.0000 
     48 H48        -0.9470   54.1507   16.6925 H         1 UNK         0.0000 
     49 H49         1.0171   52.7840   17.1676 H         1 UNK         0.0000 
     50 H50         3.0760   50.1802   18.6766 H         1 UNK         0.0000 
     51 H51         2.3004   50.7541   17.2045 H         1 UNK         0.0000 
     52 H52         2.7497   51.8938   18.4941 H         1 UNK         0.0000 
     53 H53        -1.6124   51.5717   22.5653 H         1 UNK         0.0000 
     54 H54         1.4499   53.3498   25.4736 H         1 UNK         0.0000 
     55 H55         1.2771   51.5310   25.7964 H         1 UNK         0.0000 
     56 H56        -1.8020   52.0579   27.7726 H         1 UNK         0.0000 
     57 H57        -1.6964   53.5112   26.8815 H         1 UNK         0.0000 
     58 H58        -1.6486   49.8517   24.6197 H         1 UNK         0.0000 
     59 H59        -0.6140   49.9562   26.0046 H         1 UNK         0.0000 
     60 H60        -2.7497   48.7000   26.4817 H         1 UNK         0.0000 
     61 H61        -2.5697   50.0966   27.5555 H         1 UNK         0.0000 
     62 H62        -4.2699   49.8843   25.1580 H         1 UNK         0.0000 
     63 H63        -5.0539   52.0930   25.3916 H         1 UNK         0.0000 
     64 H64        -4.0236   52.3197   26.8193 H         1 UNK         0.0000 
     65 H65        -2.9524   53.3375   24.7712 H         1 UNK         0.0000 
     66 H66        -3.0367   51.8391   23.9040 H         1 UNK         0.0000 
     67 H67         1.5192   51.9361   31.0905 H         1 UNK         0.0000 
     68 H68        -0.2505   54.3882   30.6551 H         1 UNK         0.0000 
     69 H69         0.2847   53.6970   32.1795 H         1 UNK         0.0000 
     70 H70         1.4271   54.5178   31.1109 H         1 UNK         0.0000 
     71 H71        -1.2945   52.3100   29.9606 H         1 UNK         0.0000 
     72 H72        -0.3600   50.8781   29.6131 H         1 UNK         0.0000 
     73 H73        -0.7491   51.2966   31.2787 H         1 UNK         0.0000 
     74 H74         5.0344   54.7574   29.7819 H         1 UNK         0.0000 
     75 H75         6.7587   55.3174   28.0817 H         1 UNK         0.0000 
     76 H76         6.4649   54.7182   25.7433 H         1 UNK         0.0000 
     77 H77         4.5121   53.3665   25.0640 H         1 UNK         0.0000 
     78 H78         2.9586   52.5903   26.7576 H         1 UNK         0.0000 
     79 H79        -4.7603   50.0567   26.6933 H         1 UNK         0.0000 
@<TRIPOS>BOND
     1    1    2 1    
     2    1   41 1    
     3    1   42 1    
     4    1   43 1    
     5    2    3 1    
     6    2    4 1    
     7    2   13 1    
     8    4    5 1    
     9    4   44 1    
    10    4   45 1    
    11    5   10 ar   
    12    5    6 ar   
    13    6    7 ar   
    14    6   46 1    
    15    7    8 ar   
    16    7   47 1    
    17    8    9 ar   
    18    8   48 1    
    19    9   10 ar   
    20    9   49 1    
    21   10   11 1    
    22   11   12 1    
    23   12   50 1    
    24   12   51 1    
    25   12   52 1    
    26   13   14 am   BACKBONE|DICT|INTERRES
    27   13   53 1    
    28   14   15 2    
    29   14   16 1    
    30   16   17 1    
    31   16   21 1    
    32   16   18 1    
    33   18   19 1    
    34   18   54 1    
    35   18   55 1    
    36   19   20 1    
    37   19   27 am   BACKBONE|DICT|INTERRES
    38   20   21 1    
    39   20   56 1    
    40   20   57 1    
    41   21   26 1    
    42   21   22 1    
    43   22   23 1    
    44   22   58 1    
    45   22   59 1    
    46   23   24 1    
    47   23   60 1    
    48   23   61 1    
    49   24   25 1    
    50   24   62 1    
    51   24   79 1    
    52   25   26 1    
    53   25   63 1    
    54   25   64 1    
    55   26   65 1    
    56   26   66 1    
    57   27   28 2    
    58   27   29 1    
    59   29   30 1    
    60   29   31 1    
    61   29   34 1    
    62   31   32 1    
    63   31   33 1    
    64   31   67 1    
    65   32   68 1    
    66   32   69 1    
    67   32   70 1    
    68   33   71 1    
    69   33   72 1    
    70   33   73 1    
    71   34   35 1    
    72   35   40 ar   
    73   35   36 ar   
    74   36   37 ar   
    75   36   74 1    
    76   37   38 ar   
    77   37   75 1    
    78   38   39 ar   
    79   38   76 1    
    80   39   40 ar   
    81   39   77 1    
    82   40   78 1    
@<TRIPOS>SUBSTRUCTURE
     1 UNK         1 GROUP             0       ****    0 ROOT    
