@<TRIPOS>MOLECULE
ZINC11044353_5074
63   66    1
SMALL
USER_CHARGES


@<TRIPOS>ATOM
      1 C1          5.8252   53.5765   19.6811 C.3       1 UNK         0.0000 
      2 C2          4.4312   54.1055   20.0620 C.3       1 UNK         0.0000 
      3 H3          4.3942   55.1914   19.9791 H         1 UNK         0.0000 
      4 C4          3.9981   53.6618   21.4914 C.2       1 UNK         0.0000 
      5 O5          3.1305   52.7958   21.6379 O.2       1 UNK         0.0000 
      6 N6          4.6536   54.2630   22.5102 N.am      1 UNK         0.0000 
      7 C7          4.4535   54.1304   23.9045 C.ar      1 UNK         0.0000 
      8 C8          3.2505   53.7087   24.4952 C.ar      1 UNK         0.0000 
      9 C9          3.1387   53.6307   25.8854 C.ar      1 UNK         0.0000 
     10 C10         4.2291   53.9636   26.6969 C.ar      1 UNK         0.0000 
     11 C11         5.4171   54.4031   26.1141 C.ar      1 UNK         0.0000 
     12 C12         5.5249   54.4965   24.7246 C.ar      1 UNK         0.0000 
     13 S13         4.1423   53.8010   28.4922 S.o2      1 UNK         0.0000 
     14 O14         4.4956   52.4195   28.8257 O.2       1 UNK         0.0000 
     15 O15         4.9275   54.8969   29.0528 O.2       1 UNK         0.0000 
     16 N16         2.4502   54.0498   28.9450 N.pl3     1 UNK         0.0000 
     17 C17         1.8229   55.3837   28.8866 C.3       1 UNK         0.0000 
     18 C18         1.1388   55.6695   30.2376 C.3       1 UNK         0.0000 
     19 C19         0.2251   54.4976   30.6928 C.3       1 UNK         0.0000 
     20 C20         0.8770   53.0954   30.5660 C.3       1 UNK         0.0000 
     21 C21         1.5387   52.9121   29.1887 C.3       1 UNK         0.0000 
     22 C22         3.4933   53.8212   17.5844 C.3       1 UNK         0.0000 
     23 H23         4.4108   53.2802   17.3527 H         1 UNK         0.0000 
     24 C24         2.3484   53.1103   16.8621 C.ar      1 UNK         0.0000 
     25 C25         2.6386   52.0534   15.9957 C.ar      1 UNK         0.0000 
     26 C26         1.6088   51.3740   15.3502 C.ar      1 UNK         0.0000 
     27 C27         0.2883   51.7511   15.5689 C.ar      1 UNK         0.0000 
     28 C28        -0.0161   52.7994   16.4338 C.ar      1 UNK         0.0000 
     29 C29         1.0132   53.4688   17.0909 C.ar      1 UNK         0.0000 
     30 C30         3.6804   55.3129   17.2608 C.2       1 UNK         0.0000 
     31 C31         4.8465   56.0841   17.3586 C.2       1 UNK         0.0000 
     32 C32         4.7155   57.4200   16.9674 C.2       1 UNK         0.0000 
     33 C33         3.4451   57.7170   16.5238 C.2       1 UNK         0.0000 
     34 S34         2.4207   56.3289   16.5802 S.3       1 UNK         0.0000 
     35 H35         6.5895   54.0979   20.2539 H         1 UNK         0.0000 
     36 H36         5.9043   52.5006   19.8511 H         1 UNK         0.0000 
     37 H37         6.0860   53.7515   18.6385 H         1 UNK         0.0000 
     38 H38         5.4128   54.8746   22.2516 H         1 UNK         0.0000 
     39 H39         2.3948   53.4398   23.8936 H         1 UNK         0.0000 
     40 H40         2.2146   53.2850   26.3222 H         1 UNK         0.0000 
     41 H41         6.2613   54.6650   26.7363 H         1 UNK         0.0000 
     42 H42         6.4547   54.8378   24.2962 H         1 UNK         0.0000 
     43 H43         2.5821   56.1303   28.6545 H         1 UNK         0.0000 
     44 H44         1.0993   55.3883   28.0721 H         1 UNK         0.0000 
     45 H45         1.9039   55.8590   30.9857 H         1 UNK         0.0000 
     46 H46         0.5774   56.6012   30.1844 H         1 UNK         0.0000 
     47 H47        -0.6741   54.4960   30.0779 H         1 UNK         0.0000 
     48 H48        -0.0988   54.6564   31.7207 H         1 UNK         0.0000 
     49 H49         0.1286   52.3196   30.7276 H         1 UNK         0.0000 
     50 H50         1.6190   52.9548   31.3524 H         1 UNK         0.0000 
     51 H51         0.7911   52.8846   28.3929 H         1 UNK         0.0000 
     52 H52         2.0899   51.9736   29.1429 H         1 UNK         0.0000 
     53 H53         3.6570   51.7376   15.8292 H         1 UNK         0.0000 
     54 H54         1.8412   50.5524   14.6883 H         1 UNK         0.0000 
     55 H55        -0.5094   51.2222   15.0662 H         1 UNK         0.0000 
     56 H56        -1.0449   53.0865   16.5969 H         1 UNK         0.0000 
     57 H57         0.7697   54.2735   17.7703 H         1 UNK         0.0000 
     58 H58         5.7879   55.6938   17.7114 H         1 UNK         0.0000 
     59 H59         5.5164   58.1463   16.9972 H         1 UNK         0.0000 
     60 H60         3.0696   58.6693   16.1713 H         1 UNK         0.0000 
     61 N61         3.3720   53.5972   19.1086 N.4       1 UNK         0.0000 
     62 H62         2.5024   54.0231   19.4182 H         1 UNK         0.0000 
     63 H63         3.3056   52.6017   19.2737 H         1 UNK         0.0000 
@<TRIPOS>BOND
     1    1    2 1    
     2    1   35 1    
     3    1   36 1    
     4    1   37 1    
     5    2    3 1    
     6    2    4 1    
     7    2   61 1    
     8    4    5 2    
     9    4    6 am   BACKBONE|DICT|INTERRES
    10    6    7 1    
    11    6   38 1    
    12    7   12 ar   
    13    7    8 ar   
    14    8    9 ar   
    15    8   39 1    
    16    9   10 ar   
    17    9   40 1    
    18   10   11 ar   
    19   10   13 1    
    20   11   12 ar   
    21   11   41 1    
    22   12   42 1    
    23   13   14 2    
    24   13   15 2    
    25   13   16 1    
    26   16   21 1    
    27   16   17 1    
    28   17   18 1    
    29   17   43 1    
    30   17   44 1    
    31   18   19 1    
    32   18   45 1    
    33   18   46 1    
    34   19   20 1    
    35   19   47 1    
    36   19   48 1    
    37   20   21 1    
    38   20   49 1    
    39   20   50 1    
    40   21   51 1    
    41   21   52 1    
    42   22   23 1    
    43   22   24 1    
    44   22   30 1    
    45   22   61 1    
    46   24   29 ar   
    47   24   25 ar   
    48   25   26 ar   
    49   25   53 1    
    50   26   27 ar   
    51   26   54 1    
    52   27   28 ar   
    53   27   55 1    
    54   28   29 ar   
    55   28   56 1    
    56   29   57 1    
    57   30   34 1    
    58   30   31 2    
    59   31   32 1    
    60   31   58 1    
    61   32   33 2    
    62   32   59 1    
    63   33   34 1    
    64   33   60 1    
    65   61   62 1    
    66   61   63 1    
@<TRIPOS>SUBSTRUCTURE
     1 UNK         1 GROUP             0       ****    0 ROOT    
