@<TRIPOS>MOLECULE
ZINC13267785_5629
57   61    1
SMALL
USER_CHARGES


@<TRIPOS>ATOM
      1 C1         -0.2001   49.2368   22.1403 C.3       1 UNK         0.0000 
      2 O2         -0.8960   48.0037   21.9826 O.3       1 UNK         0.0000 
      3 C3         -1.9475   47.6833   22.8250 C.ar      1 UNK         0.0000 
      4 C4         -2.3982   48.5610   23.8293 C.ar      1 UNK         0.0000 
      5 C5         -3.4503   48.2187   24.6841 C.ar      1 UNK         0.0000 
      6 C6         -4.0725   46.9771   24.5274 C.ar      1 UNK         0.0000 
      7 C7         -3.6458   46.1054   23.5312 C.ar      1 UNK         0.0000 
      8 C8         -2.5788   46.4271   22.6836 C.ar      1 UNK         0.0000 
      9 C9         -2.1279   45.4048   21.6840 C.2       1 UNK         0.0000 
     10 O10        -1.8306   45.7831   20.5294 O.co2     1 UNK         0.0000 
     11 Cl11       -5.3776   46.4744   25.5503 Cl        1 UNK         0.0000 
     12 N12        -3.9072   49.0959   25.6825 N.pl3     1 UNK         0.0000 
     13 S13        -3.9105   50.8638   25.5571 S.o2      1 UNK         0.0000 
     14 O14        -3.9595   51.2263   24.1338 O.2       1 UNK         0.0000 
     15 O15        -4.9435   51.3279   26.4906 O.2       1 UNK         0.0000 
     16 C16        -2.3465   51.4046   26.2328 C.ar      1 UNK         0.0000 
     17 C17        -2.1288   51.2930   27.6028 C.ar      1 UNK         0.0000 
     18 C18        -0.9328   51.7307   28.1574 C.ar      1 UNK         0.0000 
     19 C19         0.0468   52.3281   27.3536 C.ar      1 UNK         0.0000 
     20 C20        -0.1697   52.3909   25.9679 C.ar      1 UNK         0.0000 
     21 C21        -1.3592   51.9370   25.4098 C.ar      1 UNK         0.0000 
     22 C22         1.3160   52.9131   28.0219 C.3       1 UNK         0.0000 
     23 C23         2.1706   51.7754   28.6523 C.3       1 UNK         0.0000 
     24 C24         3.4512   52.3431   29.3270 C.3       1 UNK         0.0000 
     25 C25         4.3100   53.1381   28.3065 C.3       1 UNK         0.0000 
     26 C26         3.4761   54.2953   27.7104 C.3       1 UNK         0.0000 
     27 C27         2.2329   53.6922   27.0163 C.3       1 UNK         0.0000 
     28 C28         3.0310   55.2562   28.8427 C.3       1 UNK         0.0000 
     29 C29         2.1860   54.4751   29.8761 C.3       1 UNK         0.0000 
     30 C30         3.0304   53.3060   30.4656 C.3       1 UNK         0.0000 
     31 C31         0.9270   53.9083   29.1679 C.3       1 UNK         0.0000 
     32 H32         0.5932   49.3016   21.3952 H         1 UNK         0.0000 
     33 H33        -0.8578   50.0924   21.9936 H         1 UNK         0.0000 
     34 H34         0.2702   49.3084   23.1215 H         1 UNK         0.0000 
     35 H35        -1.9255   49.5178   23.9673 H         1 UNK         0.0000 
     36 H36        -4.1533   45.1579   23.4272 H         1 UNK         0.0000 
     37 H37        -4.3556   48.6934   26.4915 H         1 UNK         0.0000 
     38 H38        -2.8759   50.8457   28.2433 H         1 UNK         0.0000 
     39 H39        -0.7953   51.6243   29.2222 H         1 UNK         0.0000 
     40 H40         0.5567   52.8197   25.2952 H         1 UNK         0.0000 
     41 H41        -1.5131   52.0204   24.3439 H         1 UNK         0.0000 
     42 H42         1.5846   51.2295   29.3920 H         1 UNK         0.0000 
     43 H43         2.4210   51.0450   27.8879 H         1 UNK         0.0000 
     44 H44         4.0442   51.5244   29.7380 H         1 UNK         0.0000 
     45 H45         4.6654   52.4979   27.5019 H         1 UNK         0.0000 
     46 H46         5.2078   53.5274   28.7885 H         1 UNK         0.0000 
     47 H47         4.0733   54.8428   26.9792 H         1 UNK         0.0000 
     48 H48         2.5708   53.0338   26.2164 H         1 UNK         0.0000 
     49 H49         1.6662   54.4897   26.5391 H         1 UNK         0.0000 
     50 H50         3.9033   55.6956   29.3171 H         1 UNK         0.0000 
     51 H51         2.4519   56.0904   28.4411 H         1 UNK         0.0000 
     52 H52         1.8737   55.1581   30.6658 H         1 UNK         0.0000 
     53 H53         2.4709   52.7716   31.2324 H         1 UNK         0.0000 
     54 H54         3.9373   53.6903   30.9308 H         1 UNK         0.0000 
     55 H55         0.3266   54.7247   28.7627 H         1 UNK         0.0000 
     56 H56         0.3014   53.4258   29.9211 H         1 UNK         0.0000 
     57 O57        -2.0971   44.2136   22.0815 O.co2     1 UNK         0.0000 
@<TRIPOS>BOND
     1    1    2 1    
     2    1   32 1    
     3    1   33 1    
     4    1   34 1    
     5    2    3 1    
     6    3    8 ar   
     7    3    4 ar   
     8    4    5 ar   
     9    4   35 1    
    10    5    6 ar   
    11    5   12 1    
    12    6    7 ar   
    13    6   11 1    
    14    7    8 ar   
    15    7   36 1    
    16    8    9 1    
    17    9   10 2    
    18    9   57 1    
    19   12   13 1    
    20   12   37 1    
    21   13   14 2    
    22   13   15 2    
    23   13   16 1    
    24   16   21 ar   
    25   16   17 ar   
    26   17   18 ar   
    27   17   38 1    
    28   18   19 ar   
    29   18   39 1    
    30   19   20 ar   
    31   19   22 1    
    32   20   21 ar   
    33   20   40 1    
    34   21   41 1    
    35   22   27 1    
    36   22   31 1    
    37   22   23 1    
    38   23   24 1    
    39   23   42 1    
    40   23   43 1    
    41   24   30 1    
    42   24   25 1    
    43   24   44 1    
    44   25   26 1    
    45   25   45 1    
    46   25   46 1    
    47   26   27 1    
    48   26   28 1    
    49   26   47 1    
    50   27   48 1    
    51   27   49 1    
    52   28   29 1    
    53   28   50 1    
    54   28   51 1    
    55   29   30 1    
    56   29   31 1    
    57   29   52 1    
    58   30   53 1    
    59   30   54 1    
    60   31   55 1    
    61   31   56 1    
@<TRIPOS>SUBSTRUCTURE
     1 UNK         1 GROUP             0       ****    0 ROOT    
