ZINC16034506_2719
                    3D
 Schrodinger Suite 2024-2.
 63 65  0  0  1  0            999 V2000
   -2.2397   50.8593   26.3906 C   0  0  0  0  0  0
   -1.0446   51.5275   25.6602 C   0  0  0  0  0  0
   -1.6160   52.7255   24.8679 C   0  0  0  0  0  0
   -0.1132   52.1033   26.7585 C   0  0  0  0  0  0
   -0.2041   50.5539   24.7313 C   0  0  1  0  0  0
    0.8120   50.9532   24.7199 H   0  0  0  0  0  0
    0.0264   49.1322   25.3195 C   0  0  0  0  0  0
   -1.1157   48.1823   24.9597 C   0  0  0  0  0  0
   -2.0563   48.3970   24.0035 C   0  0  0  0  0  0
   -2.0096   49.6608   23.1274 C   0  0  1  0  0  0
   -2.7610   50.3329   23.5360 H   0  0  0  0  0  0
   -0.6465   50.3844   23.2563 C   0  0  0  0  0  0
   -2.4905   49.3384   21.6809 C   0  0  2  0  0  0
   -2.6369   50.2993   21.1844 H   0  0  0  0  0  0
   -3.9212   48.6853   21.7076 C   0  0  0  0  0  0
   -4.0323   47.5714   22.7695 C   0  0  0  0  0  0
   -3.1799   47.4764   23.8191 C   0  0  0  0  0  0
   -3.4432   46.4968   24.8287 C   0  0  0  0  0  0
   -3.6930   45.6969   25.6268 N   0  0  0  0  0  0
   -5.1331   46.7502   22.6340 N   0  0  0  0  0  0
   -4.3094   48.2037   20.3655 C   0  0  0  0  0  0
   -4.6157   47.8238   19.3159 N   0  0  0  0  0  0
   -4.9163   49.6967   22.1089 C   0  0  0  0  0  0
   -5.6990   50.4849   22.4302 N   0  0  0  0  0  0
   -1.4322   48.6275   20.7962 C   0  0  0  0  0  0
   -1.4162   47.2315   20.6908 C   0  0  0  0  0  0
   -0.5131   46.5638   19.8496 C   0  0  0  0  0  0
    0.4356   47.3075   19.1377 C   0  0  0  0  0  0
    0.4426   48.7049   19.2594 C   0  0  0  0  0  0
   -0.4885   49.3767   20.0669 C   0  0  0  0  0  0
   -0.5228   50.7566   20.1861 O   0  0  0  0  0  0
    0.4669   51.5529   19.5404 C   0  0  0  0  0  0
    1.3238   46.6032   18.3428 O   0  0  0  0  0  0
    2.3547   47.3000   17.6498 C   0  0  0  0  0  0
   -0.4979   45.1886   19.6826 O   0  0  0  0  0  0
   -1.4317   44.3842   20.3927 C   0  0  0  0  0  0
   -2.7990   51.5802   26.9890 H   0  0  0  0  0  0
   -1.9076   50.0967   27.0889 H   0  0  0  0  0  0
   -2.9570   50.3989   25.7155 H   0  0  0  0  0  0
   -0.8288   53.3682   24.4723 H   0  0  0  0  0  0
   -2.2506   52.4286   24.0353 H   0  0  0  0  0  0
   -2.2561   53.3173   25.5169 H   0  0  0  0  0  0
    0.7262   52.6536   26.3318 H   0  0  0  0  0  0
   -0.6429   52.7923   27.4184 H   0  0  0  0  0  0
    0.3033   51.3167   27.3889 H   0  0  0  0  0  0
    0.9547   48.7032   24.9400 H   0  0  0  0  0  0
    0.1451   49.1697   26.4032 H   0  0  0  0  0  0
   -1.1831   47.2926   25.5697 H   0  0  0  0  0  0
   -0.6978   51.3523   22.7582 H   0  0  0  0  0  0
    0.1236   49.8282   22.7200 H   0  0  0  0  0  0
   -5.7945   46.8699   21.8787 H   0  0  0  0  0  0
   -5.3587   46.0611   23.3379 H   0  0  0  0  0  0
   -2.1331   46.6593   21.2528 H   0  0  0  0  0  0
    1.1726   49.2739   18.7076 H   0  0  0  0  0  0
    0.3034   52.6016   19.7878 H   0  0  0  0  0  0
    1.4726   51.2916   19.8738 H   0  0  0  0  0  0
    0.4125   51.4581   18.4552 H   0  0  0  0  0  0
    2.9581   46.5907   17.0837 H   0  0  0  0  0  0
    1.9475   48.0216   16.9402 H   0  0  0  0  0  0
    3.0220   47.8124   18.3442 H   0  0  0  0  0  0
   -1.2738   43.3382   20.1315 H   0  0  0  0  0  0
   -1.2995   44.4783   21.4716 H   0  0  0  0  0  0
   -2.4603   44.6376   20.1313 H   0  0  0  0  0  0
  1  2  1  0  0  0
  1 37  1  0  0  0
  1 38  1  0  0  0
  1 39  1  0  0  0
  2  3  1  0  0  0
  2  4  1  0  0  0
  2  5  1  0  0  0
  3 40  1  0  0  0
  3 41  1  0  0  0
  3 42  1  0  0  0
  4 43  1  0  0  0
  4 44  1  0  0  0
  4 45  1  0  0  0
  5  6  1  0  0  0
  5 12  1  0  0  0
  5  7  1  0  0  0
  7  8  1  0  0  0
  7 46  1  0  0  0
  7 47  1  0  0  0
  8  9  2  0  0  0
  8 48  1  0  0  0
  9 17  1  0  0  0
  9 10  1  0  0  0
 10 11  1  0  0  0
 10 12  1  0  0  0
 10 13  1  0  0  0
 12 49  1  0  0  0
 12 50  1  0  0  0
 13 14  1  0  0  0
 13 15  1  0  0  0
 13 25  1  0  0  0
 15 16  1  0  0  0
 15 21  1  0  0  0
 15 23  1  0  0  0
 16 17  2  0  0  0
 16 20  1  0  0  0
 17 18  1  0  0  0
 18 19  3  0  0  0
 20 51  1  0  0  0
 20 52  1  0  0  0
 21 22  3  0  0  0
 23 24  3  0  0  0
 25 30  2  0  0  0
 25 26  1  0  0  0
 26 27  2  0  0  0
 26 53  1  0  0  0
 27 28  1  0  0  0
 27 35  1  0  0  0
 28 29  2  0  0  0
 28 33  1  0  0  0
 29 30  1  0  0  0
 29 54  1  0  0  0
 30 31  1  0  0  0
 31 32  1  0  0  0
 32 55  1  0  0  0
 32 56  1  0  0  0
 32 57  1  0  0  0
 33 34  1  0  0  0
 34 58  1  0  0  0
 34 59  1  0  0  0
 34 60  1  0  0  0
 35 36  1  0  0  0
 36 61  1  0  0  0
 36 62  1  0  0  0
 36 63  1  0  0  0
M  END
> <i_i_glide_confnum>
2

> <i_i_glide_lignum>
2720

> <i_i_glide_posenum>
48

> <i_i_glide_rotatable_bonds>
8

> <i_m_Source_File_Index>
3280

> <b_m_subgroup_collapsed>
0

> <r_i_docking_score>
-2.21786

> <r_i_glide_ecoul>
-4.1904

> <r_i_glide_eff_state_penalty>
0

> <r_i_glide_einternal>
7.27293

> <r_i_glide_emodel>
-24.593

> <r_i_glide_energy>
-25.1953

> <r_i_glide_erotb>
0.100388

> <r_i_glide_esite>
-0.0645135

> <r_i_glide_evdw>
-21.0049

> <r_i_glide_gscore>
-2.21786

> <r_i_glide_hbond>
-0.16

> <r_i_glide_ligand_efficiency>
-0.0672079

> <r_i_glide_ligand_efficiency_ln>
-0.493241

> <r_i_glide_ligand_efficiency_sa>
-0.215572

> <r_i_glide_lipo>
-0.0504393

> <r_i_glide_metal>
0

> <r_i_glide_rewards>
-0.36449

> <s_i_glide_gridfile>
wee1_glide-grid

> <s_m_Source_File>
wee1_decoys_glide_SP.sdf

> <s_m_Source_Path>
/Users/zhangxujun/Desktop

> <s_m_entry_id>
3555

> <s_m_entry_name>
wee1_decoys_glide_SP.3280

> <s_m_subgroup_title>
wee1_decoys_glide_SP

> <s_m_subgroupid>
wee1_decoys_glide_SP


$$$$
