@<TRIPOS>MOLECULE
ZINC20459039_4180
52   55    1
SMALL
USER_CHARGES


@<TRIPOS>ATOM
      1 C1          3.7891   51.9001   31.3763 C.3       1 UNK         0.0000 
      2 O2          3.1048   51.9545   30.1301 O.3       1 UNK         0.0000 
      3 C3          1.8620   52.4954   30.0338 C.2       1 UNK         0.0000 
      4 O4          1.2379   52.9264   31.0052 O.2       1 UNK         0.0000 
      5 C5          1.2944   52.4768   28.6576 C.2       1 UNK         0.0000 
      6 C6          2.0465   52.8722   27.5950 C.2       1 UNK         0.0000 
      7 N7          1.5779   53.0052   26.3156 N.am      1 UNK         0.0000 
      8 C8          2.3732   53.5974   25.3843 C.2       1 UNK         0.0000 
      9 O9          1.9767   53.9788   24.2840 O.2       1 UNK         0.0000 
     10 C10         3.7273   53.6899   25.8854 C.2       1 UNK         0.0000 
     11 C11         4.8619   53.9278   25.1856 C.2       1 UNK         0.0000 
     12 C12         5.1884   54.1602   23.7551 C.ar      1 UNK         0.0000 
     13 C13         4.4281   53.6941   22.6724 C.ar      1 UNK         0.0000 
     14 C14         4.7753   54.0194   21.3607 C.ar      1 UNK         0.0000 
     15 C15         5.9044   54.7957   21.1081 C.ar      1 UNK         0.0000 
     16 C16         6.7040   55.2190   22.1684 C.ar      1 UNK         0.0000 
     17 C17         6.3439   54.9052   23.4796 C.ar      1 UNK         0.0000 
     18 F18         7.1041   55.3841   24.4938 F         1 UNK         0.0000 
     19 S19         3.7269   53.4323   27.6168 S.3       1 UNK         0.0000 
     20 C20         0.2000   52.5402   25.9503 C.3       1 UNK         0.0000 
     21 H21        -0.2691   53.2940   25.3124 H         1 UNK         0.0000 
     22 C22        -0.6719   52.3495   27.2215 C.2       1 UNK         0.0000 
     23 C23        -0.1370   52.1700   28.4687 C.2       1 UNK         0.0000 
     24 N24        -0.8957   51.7200   29.5317 N.pl3     1 UNK         0.0000 
     25 C25        -2.0937   52.0946   26.8816 C.2       1 UNK         0.0000 
     26 O26        -2.7049   52.7922   26.0681 O.2       1 UNK         0.0000 
     27 O27        -2.6187   51.0042   27.4822 O.3       1 UNK         0.0000 
     28 C28        -3.9460   50.5828   27.2099 C.3       1 UNK         0.0000 
     29 C29         0.2366   51.2787   25.0593 C.ar      1 UNK         0.0000 
     30 C30         0.3043   49.9978   25.6305 C.ar      1 UNK         0.0000 
     31 C31         0.1974   48.8597   24.8336 C.ar      1 UNK         0.0000 
     32 C32         0.0129   48.9810   23.4590 C.ar      1 UNK         0.0000 
     33 C33        -0.0534   50.2448   22.8783 C.ar      1 UNK         0.0000 
     34 C34         0.0432   51.3865   23.6724 C.ar      1 UNK         0.0000 
     35 F35        -0.1023   52.5948   23.0856 F         1 UNK         0.0000 
     36 H36         4.7050   51.3183   31.2737 H         1 UNK         0.0000 
     37 H37         4.0660   52.8975   31.7125 H         1 UNK         0.0000 
     38 H38         3.1769   51.4325   32.1495 H         1 UNK         0.0000 
     39 H39         5.7428   53.9343   25.8130 H         1 UNK         0.0000 
     40 H40         3.5688   53.0606   22.8192 H         1 UNK         0.0000 
     41 H41         4.1687   53.6643   20.5393 H         1 UNK         0.0000 
     42 H42         6.1721   55.0449   20.0912 H         1 UNK         0.0000 
     43 H43         7.5942   55.8019   21.9817 H         1 UNK         0.0000 
     44 H44        -0.5186   51.7002   30.4703 H         1 UNK         0.0000 
     45 H45        -1.7470   51.1991   29.3642 H         1 UNK         0.0000 
     46 H46        -4.1750   49.6918   27.7951 H         1 UNK         0.0000 
     47 H47        -4.6670   51.3588   27.4719 H         1 UNK         0.0000 
     48 H48        -4.0677   50.3359   26.1544 H         1 UNK         0.0000 
     49 H49         0.4121   49.8734   26.6995 H         1 UNK         0.0000 
     50 H50         0.2439   47.8788   25.2826 H         1 UNK         0.0000 
     51 H51        -0.0945   48.0971   22.8484 H         1 UNK         0.0000 
     52 H52        -0.2090   50.3441   21.8143 H         1 UNK         0.0000 
@<TRIPOS>BOND
     1    1    2 1    
     2    1   36 1    
     3    1   37 1    
     4    1   38 1    
     5    2    3 1    
     6    3    4 2    
     7    3    5 1    
     8    5   23 1    
     9    5    6 2    
    10    6   19 1    
    11    6    7 am   BACKBONE|DICT|INTERRES
    12    7    8 am   BACKBONE|DICT|INTERRES
    13    7   20 1    
    14    8    9 2    
    15    8   10 1    
    16   10   11 2    
    17   10   19 1    
    18   11   12 1    
    19   11   39 1    
    20   12   17 ar   
    21   12   13 ar   
    22   13   14 ar   
    23   13   40 1    
    24   14   15 ar   
    25   14   41 1    
    26   15   16 ar   
    27   15   42 1    
    28   16   17 ar   
    29   16   43 1    
    30   17   18 1    
    31   20   21 1    
    32   20   22 1    
    33   20   29 1    
    34   22   23 2    
    35   22   25 1    
    36   23   24 1    
    37   24   44 1    
    38   24   45 1    
    39   25   26 2    
    40   25   27 1    
    41   27   28 1    
    42   28   46 1    
    43   28   47 1    
    44   28   48 1    
    45   29   34 ar   
    46   29   30 ar   
    47   30   31 ar   
    48   30   49 1    
    49   31   32 ar   
    50   31   50 1    
    51   32   33 ar   
    52   32   51 1    
    53   33   34 ar   
    54   33   52 1    
    55   34   35 1    
@<TRIPOS>SUBSTRUCTURE
     1 UNK         1 GROUP             0       ****    0 ROOT    
