@<TRIPOS>MOLECULE
ZINC34750169_321
73   77    1
SMALL
USER_CHARGES


@<TRIPOS>ATOM
      1 C1          1.8108   52.2003   29.3093 C.3       1 UNK         0.0000 
      2 C2          1.8360   53.7467   29.2639 C.3       1 UNK         0.0000 
      3 C3          2.0511   54.2660   27.8088 C.3       1 UNK         0.0000 
      4 C4          3.5157   54.1063   27.3641 C.2       1 UNK         0.0000 
      5 C5          4.5134   54.0228   28.3247 C.2       1 UNK         0.0000 
      6 S6          6.1414   54.0954   27.7140 S.3       1 UNK         0.0000 
      7 C7          5.5100   54.2492   26.0977 C.ar      1 UNK         0.0000 
      8 C8          4.0838   54.1136   26.0339 C.ar      1 UNK         0.0000 
      9 C9          3.5605   54.0631   24.7063 C.ar      1 UNK         0.0000 
     10 N10         4.3752   54.2695   23.6347 N.ar      1 UNK         0.0000 
     11 C11         5.6889   54.4878   23.8600 C.ar      1 UNK         0.0000 
     12 N12         6.3151   54.4500   25.0551 N.ar      1 UNK         0.0000 
     13 S13         6.7116   54.8963   22.4866 S.3       1 UNK         0.0000 
     14 C14         5.7268   54.9892   20.9595 C.3       1 UNK         0.0000 
     15 C15         6.2807   55.9825   19.9285 C.2       1 UNK         0.0000 
     16 O16         7.0449   56.8940   20.2420 O.2       1 UNK         0.0000 
     17 N17         5.8878   55.8300   18.6669 N.am      1 UNK         0.0000 
     18 N18         2.2354   53.7532   24.3990 N.pl3     1 UNK         0.0000 
     19 C19         1.5399   52.6071   25.0078 C.3       1 UNK         0.0000 
     20 C20         1.3679   51.3885   24.0859 C.3       1 UNK         0.0000 
     21 N21         0.6596   51.8161   22.7811 N.4       1 UNK         0.0000 
     22 C22         1.5063   52.9232   22.1141 C.3       1 UNK         0.0000 
     23 C23         1.6273   54.1012   23.1011 C.3       1 UNK         0.0000 
     24 C24         0.4302   50.5886   21.8567 C.3       1 UNK         0.0000 
     25 C25        -0.8962   49.9318   22.2599 C.2       1 UNK         0.0000 
     26 O26        -1.9200   50.2551   21.6637 O.2       1 UNK         0.0000 
     27 N27        -0.8819   49.0742   23.3025 N.am      1 UNK         0.0000 
     28 C28        -2.0559   48.4752   23.9548 C.3       1 UNK         0.0000 
     29 C29        -1.6757   47.4291   25.0377 C.3       1 UNK         0.0000 
     30 C30        -2.8822   46.8051   25.7737 C.3       1 UNK         0.0000 
     31 C31        -3.8506   47.8738   26.3029 C.3       1 UNK         0.0000 
     32 C32        -4.3121   48.8223   25.1860 C.3       1 UNK         0.0000 
     33 C33        -3.1213   49.4841   24.4676 C.3       1 UNK         0.0000 
     34 C34         4.2129   53.8684   29.7975 C.3       1 UNK         0.0000 
     35 O35         2.8799   54.2791   30.0813 O.3       1 UNK         0.0000 
     36 C36         0.5594   54.3696   29.8512 C.3       1 UNK         0.0000 
     37 H37         0.9290   51.8041   28.8017 H         1 UNK         0.0000 
     38 H38         2.6850   51.7486   28.8328 H         1 UNK         0.0000 
     39 H39         1.7775   51.8526   30.3413 H         1 UNK         0.0000 
     40 H40         1.8123   55.3312   27.7639 H         1 UNK         0.0000 
     41 H41         1.3105   53.8025   27.1720 H         1 UNK         0.0000 
     42 H42         5.6984   53.9927   20.5220 H         1 UNK         0.0000 
     43 H43         4.7032   55.2665   21.1984 H         1 UNK         0.0000 
     44 H44         5.2873   55.0708   18.3878 H         1 UNK         0.0000 
     45 H45         6.2255   56.4831   17.9743 H         1 UNK         0.0000 
     46 H46         0.5523   52.9710   25.2920 H         1 UNK         0.0000 
     47 H47         2.0542   52.2633   25.9035 H         1 UNK         0.0000 
     48 H48         0.7262   50.6631   24.5882 H         1 UNK         0.0000 
     49 H49         2.3073   50.9144   23.8052 H         1 UNK         0.0000 
     50 H50         2.4725   52.5027   21.8266 H         1 UNK         0.0000 
     51 H51         0.9758   53.2839   21.2285 H         1 UNK         0.0000 
     52 H52         2.1764   54.9017   22.6069 H         1 UNK         0.0000 
     53 H53         0.6445   54.4951   23.3467 H         1 UNK         0.0000 
     54 H54         1.2945   49.9289   21.9166 H         1 UNK         0.0000 
     55 H55         0.3594   50.9670   20.8337 H         1 UNK         0.0000 
     56 H56         0.0043   48.8610   23.7415 H         1 UNK         0.0000 
     57 H57        -2.5708   47.9080   23.1745 H         1 UNK         0.0000 
     58 H58        -1.0587   47.9017   25.8034 H         1 UNK         0.0000 
     59 H59        -1.0744   46.6295   24.5995 H         1 UNK         0.0000 
     60 H60        -2.5304   46.1878   26.6038 H         1 UNK         0.0000 
     61 H61        -3.4133   46.1403   25.0943 H         1 UNK         0.0000 
     62 H62        -3.3670   48.4494   27.0930 H         1 UNK         0.0000 
     63 H63        -4.7170   47.3972   26.7713 H         1 UNK         0.0000 
     64 H64        -4.9713   49.5935   25.5983 H         1 UNK         0.0000 
     65 H65        -4.9130   48.2746   24.4573 H         1 UNK         0.0000 
     66 H66        -3.5199   50.0837   23.6479 H         1 UNK         0.0000 
     67 H67        -2.6341   50.1606   25.1721 H         1 UNK         0.0000 
     68 H68         4.3446   52.8360   30.1200 H         1 UNK         0.0000 
     69 H69         4.8627   54.4997   30.3957 H         1 UNK         0.0000 
     70 H70        -0.3223   54.0985   29.2701 H         1 UNK         0.0000 
     71 H71         0.3905   54.0396   30.8742 H         1 UNK         0.0000 
     72 H72         0.6371   55.4589   29.8808 H         1 UNK         0.0000 
     73 H73        -0.2440   52.2133   23.0067 H         1 UNK         0.0000 
@<TRIPOS>BOND
     1    1    2 1    
     2    1   37 1    
     3    1   38 1    
     4    1   39 1    
     5    2   35 1    
     6    2    3 1    
     7    2   36 1    
     8    3    4 1    
     9    3   40 1    
    10    3   41 1    
    11    4    8 1    
    12    4    5 2    
    13    5    6 1    
    14    5   34 1    
    15    6    7 1    
    16    7   12 ar   
    17    7    8 ar   
    18    8    9 ar   
    19    9   10 ar   
    20    9   18 1    
    21   10   11 ar   
    22   11   12 ar   
    23   11   13 1    
    24   13   14 1    
    25   14   15 1    
    26   14   42 1    
    27   14   43 1    
    28   15   16 2    
    29   15   17 am   BACKBONE|DICT|INTERRES
    30   17   44 1    
    31   17   45 1    
    32   18   23 1    
    33   18   19 1    
    34   19   20 1    
    35   19   46 1    
    36   19   47 1    
    37   20   21 1    
    38   20   48 1    
    39   20   49 1    
    40   21   22 1    
    41   21   24 1    
    42   21   73 1    
    43   22   23 1    
    44   22   50 1    
    45   22   51 1    
    46   23   52 1    
    47   23   53 1    
    48   24   25 1    
    49   24   54 1    
    50   24   55 1    
    51   25   26 2    
    52   25   27 am   BACKBONE|DICT|INTERRES
    53   27   28 1    
    54   27   56 1    
    55   28   33 1    
    56   28   29 1    
    57   28   57 1    
    58   29   30 1    
    59   29   58 1    
    60   29   59 1    
    61   30   31 1    
    62   30   60 1    
    63   30   61 1    
    64   31   32 1    
    65   31   62 1    
    66   31   63 1    
    67   32   33 1    
    68   32   64 1    
    69   32   65 1    
    70   33   66 1    
    71   33   67 1    
    72   34   35 1    
    73   34   68 1    
    74   34   69 1    
    75   36   70 1    
    76   36   71 1    
    77   36   72 1    
@<TRIPOS>SUBSTRUCTURE
     1 UNK         1 GROUP             0       ****    0 ROOT    
