@<TRIPOS>MOLECULE
ZINC65301166_5371
72   76    1
SMALL
USER_CHARGES


@<TRIPOS>ATOM
      1 C1         -1.3603   52.6001   12.9577 C.3       1 UNK         0.0000 
      2 C2         -0.8469   53.8905   13.6153 C.3       1 UNK         0.0000 
      3 C3          0.0821   53.6237   14.7902 C.ar      1 UNK         0.0000 
      4 C4          1.4399   53.3829   14.5645 C.ar      1 UNK         0.0000 
      5 C5          2.2892   53.1348   15.6389 C.ar      1 UNK         0.0000 
      6 C6          1.7907   53.1259   16.9429 C.ar      1 UNK         0.0000 
      7 C7          0.4284   53.3796   17.1685 C.ar      1 UNK         0.0000 
      8 C8         -0.4217   53.6186   16.0932 C.ar      1 UNK         0.0000 
      9 N9          2.7249   52.8999   17.9680 N.am      1 UNK         0.0000 
     10 C10         2.5039   52.4816   19.2343 C.2       1 UNK         0.0000 
     11 O11         1.4043   52.0979   19.6481 O.2       1 UNK         0.0000 
     12 C12         3.7580   52.4288   20.1520 C.3       1 UNK         0.0000 
     13 C13         4.0816   53.8621   20.6604 C.3       1 UNK         0.0000 
     14 C14         3.3516   54.3032   21.9606 C.3       1 UNK         0.0000 
     15 N15         3.4124   53.2871   23.0174 N.pl3     1 UNK         0.0000 
     16 C16         2.7750   52.0554   22.4898 C.3       1 UNK         0.0000 
     17 C17         3.5584   51.4361   21.3179 C.3       1 UNK         0.0000 
     18 C18         3.3141   53.6243   24.3742 C.ar      1 UNK         0.0000 
     19 C19         2.1522   53.4285   25.1858 C.ar      1 UNK         0.0000 
     20 C20         2.2084   53.7095   26.5557 C.ar      1 UNK         0.0000 
     21 N21         3.3363   54.1498   27.1253 N.pl3     1 UNK         0.0000 
     22 C22         4.4601   54.3534   26.4152 C.ar      1 UNK         0.0000 
     23 C23         4.4980   54.1098   25.0175 C.ar      1 UNK         0.0000 
     24 C24         5.8398   54.3881   24.5742 C.2       1 UNK         0.0000 
     25 N25         6.6892   54.8297   25.4699 N.2       1 UNK         0.0000 
     26 S26         6.0093   54.8674   27.0403 S.3       1 UNK         0.0000 
     27 C27         6.4171   54.2315   23.1864 C.3       1 UNK         0.0000 
     28 C28         0.8149   53.0155   24.6052 C.2       1 UNK         0.0000 
     29 O29         0.3775   53.6974   23.6823 O.2       1 UNK         0.0000 
     30 N30         0.1428   51.9244   25.0785 N.am      1 UNK         0.0000 
     31 C31        -1.1353   51.5212   24.4438 C.3       1 UNK         0.0000 
     32 C32        -2.2548   51.7276   25.4889 C.3       1 UNK         0.0000 
     33 C33        -1.9815   50.9047   26.7648 C.3       1 UNK         0.0000 
     34 C34        -0.6069   51.3307   27.3190 C.3       1 UNK         0.0000 
     35 C35         0.5099   51.1212   26.2672 C.3       1 UNK         0.0000 
     36 C36        -3.1093   51.0496   27.7999 C.3       1 UNK         0.0000 
     37 H37        -2.0247   52.8285   12.1226 H         1 UNK         0.0000 
     38 H38        -1.9175   51.9853   13.6687 H         1 UNK         0.0000 
     39 H39        -0.5366   51.9985   12.5724 H         1 UNK         0.0000 
     40 H40        -0.3228   54.5006   12.8774 H         1 UNK         0.0000 
     41 H41        -1.6905   54.4989   13.9465 H         1 UNK         0.0000 
     42 H42         1.8376   53.3878   13.5597 H         1 UNK         0.0000 
     43 H43         3.3380   52.9486   15.4498 H         1 UNK         0.0000 
     44 H44         0.0193   53.4155   18.1654 H         1 UNK         0.0000 
     45 H45        -1.4712   53.8049   16.2751 H         1 UNK         0.0000 
     46 H46         3.6911   52.9952   17.6957 H         1 UNK         0.0000 
     47 H47         4.5314   52.0966   19.4588 H         1 UNK         0.0000 
     48 H48         5.1628   53.9683   20.7309 H         1 UNK         0.0000 
     49 H49         3.9345   54.5975   19.8661 H         1 UNK         0.0000 
     50 H50         3.7850   55.2372   22.3127 H         1 UNK         0.0000 
     51 H51         2.3036   54.4986   21.7677 H         1 UNK         0.0000 
     52 H52         2.6837   51.3076   23.2780 H         1 UNK         0.0000 
     53 H53         1.7570   52.2665   22.1635 H         1 UNK         0.0000 
     54 H54         3.0714   50.5305   20.9480 H         1 UNK         0.0000 
     55 H55         4.4931   50.9546   21.6138 H         1 UNK         0.0000 
     56 H56         1.3659   53.6209   27.2282 H         1 UNK         0.0000 
     57 H57         6.1453   53.2696   22.7527 H         1 UNK         0.0000 
     58 H58         6.0671   55.0200   22.5236 H         1 UNK         0.0000 
     59 H59         7.5060   54.2780   23.1628 H         1 UNK         0.0000 
     60 H60        -1.3364   52.0180   23.4923 H         1 UNK         0.0000 
     61 H61        -1.0541   50.4602   24.1991 H         1 UNK         0.0000 
     62 H62        -2.3713   52.7878   25.7221 H         1 UNK         0.0000 
     63 H63        -3.2166   51.4364   25.0651 H         1 UNK         0.0000 
     64 H64        -1.9071   49.8500   26.4839 H         1 UNK         0.0000 
     65 H65        -0.3859   50.7502   28.2158 H         1 UNK         0.0000 
     66 H66        -0.6351   52.3669   27.6617 H         1 UNK         0.0000 
     67 H67         0.5243   50.0747   25.9572 H         1 UNK         0.0000 
     68 H68         1.5047   51.3052   26.6557 H         1 UNK         0.0000 
     69 H69        -3.2661   52.0903   28.0825 H         1 UNK         0.0000 
     70 H70        -4.0512   50.6729   27.4022 H         1 UNK         0.0000 
     71 H71        -2.8916   50.4776   28.7040 H         1 UNK         0.0000 
     72 H72         3.3320   54.3282   28.1197 H         1 UNK         0.0000 
@<TRIPOS>BOND
     1    1    2 1    
     2    1   37 1    
     3    1   38 1    
     4    1   39 1    
     5    2    3 1    
     6    2   40 1    
     7    2   41 1    
     8    3    8 ar   
     9    3    4 ar   
    10    4    5 ar   
    11    4   42 1    
    12    5    6 ar   
    13    5   43 1    
    14    6    7 ar   
    15    6    9 1    
    16    7    8 ar   
    17    7   44 1    
    18    8   45 1    
    19    9   10 am   BACKBONE|DICT|INTERRES
    20    9   46 1    
    21   10   11 2    
    22   10   12 1    
    23   12   17 1    
    24   12   13 1    
    25   12   47 1    
    26   13   14 1    
    27   13   48 1    
    28   13   49 1    
    29   14   15 1    
    30   14   50 1    
    31   14   51 1    
    32   15   16 1    
    33   15   18 1    
    34   16   17 1    
    35   16   52 1    
    36   16   53 1    
    37   17   54 1    
    38   17   55 1    
    39   18   23 ar   
    40   18   19 ar   
    41   19   20 ar   
    42   19   28 1    
    43   20   21 ar   
    44   20   56 1    
    45   21   22 ar   
    46   21   72 1    
    47   22   26 1    
    48   22   23 ar   
    49   23   24 1    
    50   24   25 2    
    51   24   27 1    
    52   25   26 1    
    53   27   57 1    
    54   27   58 1    
    55   27   59 1    
    56   28   29 2    
    57   28   30 am   BACKBONE|DICT|INTERRES
    58   30   35 1    
    59   30   31 1    
    60   31   32 1    
    61   31   60 1    
    62   31   61 1    
    63   32   33 1    
    64   32   62 1    
    65   32   63 1    
    66   33   34 1    
    67   33   36 1    
    68   33   64 1    
    69   34   35 1    
    70   34   65 1    
    71   34   66 1    
    72   35   67 1    
    73   35   68 1    
    74   36   69 1    
    75   36   70 1    
    76   36   71 1    
@<TRIPOS>SUBSTRUCTURE
     1 UNK         1 GROUP             0       ****    0 ROOT    
