ZINC22002279_833
                    3D
 Schrodinger Suite 2024-2.
 64 66  0  0  1  0            999 V2000
    0.6242   51.5617   22.9636 C   0  0  0  0  0  0
   -0.6010   50.6862   23.3227 C   0  0  0  0  0  0
   -0.7918   50.5658   24.8585 C   0  0  1  0  0  0
    0.1996   50.6774   25.3002 H   0  0  0  0  0  0
   -1.5306   51.7603   25.2602 N   0  0  0  0  0  0
   -2.4035   52.2490   24.3220 C   0  0  0  0  0  0
   -3.6958   53.2888   24.4966 S   0  0  0  0  0  0
   -2.0742   51.5632   22.7226 S   0  0  0  0  0  0
   -1.5659   52.2266   26.6667 C   0  0  0  0  0  0
   -0.4466   51.7571   27.6394 C   0  0  0  0  0  0
    0.9514   52.3793   27.5160 C   0  0  0  0  0  0
    1.8486   52.2076   28.5741 C   0  0  0  0  0  0
    3.1239   52.7727   28.5310 C   0  0  0  0  0  0
    3.5395   53.5198   27.4155 C   0  0  0  0  0  0
    2.6469   53.6806   26.3451 C   0  0  0  0  0  0
    1.3686   53.1166   26.4014 C   0  0  0  0  0  0
    2.9928   54.4316   25.2471 O   0  0  0  0  0  0
    3.7689   53.7460   24.2777 C   0  0  0  0  0  0
    4.7834   54.1172   27.2981 O   0  0  0  0  0  0
    5.7353   53.9657   28.3462 C   0  0  0  0  0  0
   -1.4172   49.3318   25.4030 N   0  0  0  0  0  0
   -2.6683   48.8099   25.2200 C   0  0  0  0  0  0
   -3.4469   49.2348   24.3674 O   0  0  0  0  0  0
   -3.0410   47.8355   26.0811 N   0  0  0  0  0  0
   -4.3609   47.1950   26.1364 C   0  0  0  0  0  0
   -4.3157   45.9087   26.9995 C   0  0  0  0  0  0
   -4.0379   46.2041   28.4924 C   0  0  0  0  0  0
   -5.0337   47.2295   29.0810 C   0  0  0  0  0  0
   -5.1664   48.4936   28.2043 C   0  0  0  0  0  0
   -5.4537   48.1243   26.7304 C   0  0  0  0  0  0
   -0.4955   48.5225   26.0816 O   0  0  0  0  0  0
   -0.4827   49.3287   22.5925 C   0  0  0  0  0  0
    1.5470   51.1159   23.3365 H   0  0  0  0  0  0
    0.7356   51.6744   21.8848 H   0  0  0  0  0  0
    0.5502   52.5655   23.3801 H   0  0  0  0  0  0
   -1.7136   53.3024   26.7519 H   0  0  0  0  0  0
   -2.4899   51.7917   27.0556 H   0  0  0  0  0  0
   -0.7969   52.0132   28.6409 H   0  0  0  0  0  0
   -0.3749   50.6697   27.6621 H   0  0  0  0  0  0
    1.5507   51.6360   29.4414 H   0  0  0  0  0  0
    3.7795   52.6193   29.3736 H   0  0  0  0  0  0
    0.6990   53.2848   25.5736 H   0  0  0  0  0  0
    4.0947   54.4521   23.5156 H   0  0  0  0  0  0
    4.6670   53.3015   24.7087 H   0  0  0  0  0  0
    3.1812   52.9660   23.7904 H   0  0  0  0  0  0
    6.6572   54.4788   28.0701 H   0  0  0  0  0  0
    5.3778   54.4071   29.2772 H   0  0  0  0  0  0
    5.9822   52.9137   28.5098 H   0  0  0  0  0  0
   -2.4644   47.7158   26.9097 H   0  0  0  0  0  0
   -4.6283   46.9064   25.1163 H   0  0  0  0  0  0
   -3.5500   45.2259   26.6267 H   0  0  0  0  0  0
   -5.2617   45.3728   26.9070 H   0  0  0  0  0  0
   -3.0121   46.5559   28.6198 H   0  0  0  0  0  0
   -4.0930   45.2817   29.0622 H   0  0  0  0  0  0
   -4.7302   47.5110   30.0942 H   0  0  0  0  0  0
   -6.0157   46.7608   29.1762 H   0  0  0  0  0  0
   -4.2456   49.0774   28.2699 H   0  0  0  0  0  0
   -5.9633   49.1330   28.5902 H   0  0  0  0  0  0
   -6.4277   47.6355   26.6578 H   0  0  0  0  0  0
   -5.5424   49.0330   26.1312 H   0  0  0  0  0  0
   -0.8261   48.4965   27.0057 H   0  0  0  0  0  0
    0.3442   48.7440   22.9952 H   0  0  0  0  0  0
   -1.3854   48.7250   22.6796 H   0  0  0  0  0  0
   -0.2968   49.4627   21.5266 H   0  0  0  0  0  0
  1  2  1  0  0  0
  1 33  1  0  0  0
  1 34  1  0  0  0
  1 35  1  0  0  0
  2  8  1  0  0  0
  2  3  1  0  0  0
  2 32  1  0  0  0
  3  4  1  0  0  0
  3  5  1  0  0  0
  3 21  1  0  0  0
  5  6  1  0  0  0
  5  9  1  0  0  0
  6  7  2  0  0  0
  6  8  1  0  0  0
  9 10  1  0  0  0
  9 36  1  0  0  0
  9 37  1  0  0  0
 10 11  1  0  0  0
 10 38  1  0  0  0
 10 39  1  0  0  0
 11 16  2  0  0  0
 11 12  1  0  0  0
 12 13  2  0  0  0
 12 40  1  0  0  0
 13 14  1  0  0  0
 13 41  1  0  0  0
 14 15  2  0  0  0
 14 19  1  0  0  0
 15 16  1  0  0  0
 15 17  1  0  0  0
 16 42  1  0  0  0
 17 18  1  0  0  0
 18 43  1  0  0  0
 18 44  1  0  0  0
 18 45  1  0  0  0
 19 20  1  0  0  0
 20 46  1  0  0  0
 20 47  1  0  0  0
 20 48  1  0  0  0
 21 22  1  0  0  0
 21 31  1  0  0  0
 22 23  2  0  0  0
 22 24  1  0  0  0
 24 25  1  0  0  0
 24 49  1  0  0  0
 25 30  1  0  0  0
 25 26  1  0  0  0
 25 50  1  0  0  0
 26 27  1  0  0  0
 26 51  1  0  0  0
 26 52  1  0  0  0
 27 28  1  0  0  0
 27 53  1  0  0  0
 27 54  1  0  0  0
 28 29  1  0  0  0
 28 55  1  0  0  0
 28 56  1  0  0  0
 29 30  1  0  0  0
 29 57  1  0  0  0
 29 58  1  0  0  0
 30 59  1  0  0  0
 30 60  1  0  0  0
 31 61  1  0  0  0
 32 62  1  0  0  0
 32 63  1  0  0  0
 32 64  1  0  0  0
M  END
> <i_i_glide_confnum>
8

> <i_i_glide_lignum>
834

> <i_i_glide_posenum>
268

> <i_i_glide_rotatable_bonds>
10

> <i_m_Source_File_Index>
2280

> <b_m_subgroup_collapsed>
0

> <r_i_docking_score>
-4.84417

> <r_i_glide_ecoul>
-9.21535

> <r_i_glide_eff_state_penalty>
0

> <r_i_glide_einternal>
15.8336

> <r_i_glide_emodel>
-45.9425

> <r_i_glide_energy>
-39.6756

> <r_i_glide_erotb>
0.553759

> <r_i_glide_esite>
-0.26979

> <r_i_glide_evdw>
-30.4603

> <r_i_glide_gscore>
-4.84417

> <r_i_glide_hbond>
-0.152441

> <r_i_glide_ligand_efficiency>
-0.156264

> <r_i_glide_ligand_efficiency_ln>
-1.09251

> <r_i_glide_ligand_efficiency_sa>
-0.490884

> <r_i_glide_lipo>
-1.60149

> <r_i_glide_metal>
0

> <r_i_glide_rewards>
-0.468897

> <s_i_glide_gridfile>
wee1_glide-grid

> <s_m_Source_File>
wee1_decoys_glide_SP.sdf

> <s_m_Source_Path>
/Users/zhangxujun/Desktop

> <s_m_entry_id>
2555

> <s_m_entry_name>
wee1_decoys_glide_SP.2280

> <s_m_subgroup_title>
wee1_decoys_glide_SP

> <s_m_subgroupid>
wee1_decoys_glide_SP


$$$$
