ZINC13184045_516
                    3D
 Schrodinger Suite 2024-2.
 56 58  0  0  1  0            999 V2000
    5.4027   53.6570   19.8444 C   0  0  0  0  0  0
    5.7440   54.8778   20.5966 N   0  0  0  0  0  0
    6.1364   54.7300   22.0238 C   0  0  0  0  0  0
    5.0657   54.1005   22.9387 C   0  0  0  0  0  0
    4.1420   53.4232   22.4881 O   0  0  0  0  0  0
    5.2596   54.3701   24.2449 N   0  0  0  0  0  0
    4.4595   54.0981   25.3747 C   0  0  0  0  0  0
    3.0853   53.8244   25.2581 C   0  0  0  0  0  0
    2.3184   53.5362   26.3845 C   0  0  0  0  0  0
    2.9090   53.5165   27.6431 C   0  0  0  0  0  0
    4.2672   53.7910   27.7766 C   0  0  0  0  0  0
    5.0645   54.0972   26.6601 C   0  0  0  0  0  0
    6.5260   54.3909   26.8799 C   0  0  0  0  0  0
    7.1044   55.1698   26.0819 O   0  0  0  0  0  0
    6.0341   56.0494   19.9561 C   0  0  0  0  0  0
    6.6999   56.9386   20.4992 O   0  0  0  0  0  0
    5.5038   56.3292   18.5575 C   0  0  0  0  0  0
    6.2297   57.1781   17.7078 C   0  0  0  0  0  0
    5.7491   57.5113   16.4429 C   0  0  0  0  0  0
    4.5294   57.0042   16.0033 C   0  0  0  0  0  0
    3.7798   56.1698   16.8331 C   0  0  0  0  0  0
    4.2581   55.8484   18.1087 C   0  0  0  0  0  0
    2.1893   55.5622   16.2657 S   0  0  0  0  0  0
    2.2849   55.4094   14.8095 O   0  0  0  0  0  0
    1.8429   54.4169   17.1155 O   0  0  0  0  0  0
    1.0593   56.8902   16.6357 N   0  0  0  0  0  0
   -0.2413   56.4989   17.2330 C   0  0  0  0  0  0
   -1.1930   55.9488   16.1507 C   0  0  0  0  0  0
   -1.3663   56.9573   14.9882 C   0  0  0  0  0  0
   -0.0213   57.5175   14.4585 C   0  0  0  0  0  0
    0.9143   57.9572   15.6098 C   0  0  0  0  0  0
    4.3304   53.4664   19.8972 H   0  0  0  0  0  0
    5.6904   53.7057   18.7932 H   0  0  0  0  0  0
    5.8994   52.7838   20.2659 H   0  0  0  0  0  0
    6.4453   55.6698   22.4850 H   0  0  0  0  0  0
    7.0164   54.0966   22.0816 H   0  0  0  0  0  0
    6.1291   54.8300   24.5015 H   0  0  0  0  0  0
    2.5886   53.8378   24.3002 H   0  0  0  0  0  0
    1.2645   53.3227   26.2789 H   0  0  0  0  0  0
    2.3142   53.2854   28.5145 H   0  0  0  0  0  0
    4.7031   53.7687   28.7668 H   0  0  0  0  0  0
    7.1754   57.5951   18.0263 H   0  0  0  0  0  0
    6.3192   58.1721   15.8062 H   0  0  0  0  0  0
    4.1647   57.2700   15.0216 H   0  0  0  0  0  0
    3.6337   55.2459   18.7539 H   0  0  0  0  0  0
   -0.0778   55.8361   18.0821 H   0  0  0  0  0  0
   -0.6942   57.4024   17.6441 H   0  0  0  0  0  0
   -0.8046   55.0014   15.7686 H   0  0  0  0  0  0
   -2.1642   55.7201   16.5911 H   0  0  0  0  0  0
   -1.9798   57.7907   15.3367 H   0  0  0  0  0  0
   -1.9264   56.4964   14.1734 H   0  0  0  0  0  0
   -0.2105   58.3643   13.7988 H   0  0  0  0  0  0
    0.4692   56.7725   13.8326 H   0  0  0  0  0  0
    0.4192   58.8031   16.0879 H   0  0  0  0  0  0
    1.8960   58.3309   15.3146 H   0  0  0  0  0  0
    7.0922   53.8330   27.8456 O   0  5  0  0  0  0
  1  2  1  0  0  0
  1 32  1  0  0  0
  1 33  1  0  0  0
  1 34  1  0  0  0
  2  3  1  0  0  0
  2 15  1  0  0  0
  3  4  1  0  0  0
  3 35  1  0  0  0
  3 36  1  0  0  0
  4  5  2  0  0  0
  4  6  1  0  0  0
  6  7  1  0  0  0
  6 37  1  0  0  0
  7 12  2  0  0  0
  7  8  1  0  0  0
  8  9  2  0  0  0
  8 38  1  0  0  0
  9 10  1  0  0  0
  9 39  1  0  0  0
 10 11  2  0  0  0
 10 40  1  0  0  0
 11 12  1  0  0  0
 11 41  1  0  0  0
 12 13  1  0  0  0
 13 14  2  0  0  0
 13 56  1  0  0  0
 15 16  2  0  0  0
 15 17  1  0  0  0
 17 22  2  0  0  0
 17 18  1  0  0  0
 18 19  2  0  0  0
 18 42  1  0  0  0
 19 20  1  0  0  0
 19 43  1  0  0  0
 20 21  2  0  0  0
 20 44  1  0  0  0
 21 22  1  0  0  0
 21 23  1  0  0  0
 22 45  1  0  0  0
 23 24  2  0  0  0
 23 25  2  0  0  0
 23 26  1  0  0  0
 26 31  1  0  0  0
 26 27  1  0  0  0
 27 28  1  0  0  0
 27 46  1  0  0  0
 27 47  1  0  0  0
 28 29  1  0  0  0
 28 48  1  0  0  0
 28 49  1  0  0  0
 29 30  1  0  0  0
 29 50  1  0  0  0
 29 51  1  0  0  0
 30 31  1  0  0  0
 30 52  1  0  0  0
 30 53  1  0  0  0
 31 54  1  0  0  0
 31 55  1  0  0  0
M  CHG  1  56  -1
M  END
> <i_i_glide_confnum>
217

> <i_i_glide_lignum>
517

> <i_i_glide_posenum>
99

> <i_i_glide_rotatable_bonds>
9

> <i_m_Source_File_Index>
323

> <b_m_subgroup_collapsed>
0

> <r_i_docking_score>
-5.26613

> <r_i_glide_ecoul>
-6.74359

> <r_i_glide_eff_state_penalty>
0

> <r_i_glide_einternal>
5.49884

> <r_i_glide_emodel>
-57.3949

> <r_i_glide_energy>
-43.3504

> <r_i_glide_erotb>
0.765383

> <r_i_glide_esite>
-0.0058419

> <r_i_glide_evdw>
-36.6068

> <r_i_glide_gscore>
-5.26613

> <r_i_glide_hbond>
-0.494701

> <r_i_glide_ligand_efficiency>
-0.164566

> <r_i_glide_ligand_efficiency_ln>
-1.17923

> <r_i_glide_ligand_efficiency_sa>
-0.522466

> <r_i_glide_lipo>
-1.96511

> <r_i_glide_metal>
0

> <r_i_glide_rewards>
-0.723978

> <s_i_glide_gridfile>
wee1_glide-grid

> <s_m_Source_File>
wee1_decoys_glide_SP.sdf

> <s_m_Source_Path>
/Users/zhangxujun/Desktop

> <s_m_entry_id>
598

> <s_m_entry_name>
wee1_decoys_glide_SP.323

> <s_m_subgroup_title>
wee1_decoys_glide_SP

> <s_m_subgroupid>
wee1_decoys_glide_SP


$$$$
