@<TRIPOS>MOLECULE
ZINC08442119_2437
54   58    1
SMALL
USER_CHARGES


@<TRIPOS>ATOM
      1 C1          6.8142   54.7429   26.9762 C.3       1 UNK         0.0000 
      2 C2          6.0164   54.5431   25.7054 C.ar      1 UNK         0.0000 
      3 C3          4.6481   54.7921   25.7356 C.ar      1 UNK         0.0000 
      4 C4          3.8709   54.5142   24.6203 C.ar      1 UNK         0.0000 
      5 C5          4.4435   53.9544   23.4823 C.ar      1 UNK         0.0000 
      6 C6          5.8286   53.7862   23.4191 C.ar      1 UNK         0.0000 
      7 C7          6.6190   54.0967   24.5272 C.ar      1 UNK         0.0000 
      8 S8          3.4378   53.3945   22.1292 S.3       1 UNK         0.0000 
      9 C9          1.6498   53.5901   22.4821 C.3       1 UNK         0.0000 
     10 C10         1.1011   52.7467   23.6234 C.ar      1 UNK         0.0000 
     11 C11         0.5669   51.4386   23.5917 C.ar      1 UNK         0.0000 
     12 C12         0.2872   51.1824   24.9172 C.ar      1 UNK         0.0000 
     13 N13         0.5788   52.2928   25.6337 N.pl3     1 UNK         0.0000 
     14 H14         0.4441   52.4029   26.6286 H         1 UNK         0.0000 
     15 N15         1.0383   53.2611   24.8417 N.2       1 UNK         0.0000 
     16 O16        -0.2353   50.0543   25.4838 O.3       1 UNK         0.0000 
     17 C17        -0.5789   49.1019   24.5768 C.2       1 UNK         0.0000 
     18 C18        -0.3858   49.1570   23.2303 C.2       1 UNK         0.0000 
     19 C19         0.2894   50.3698   22.5264 C.3       1 UNK         0.0000 
     20 C20        -0.5059   50.8770   21.3611 C.ar      1 UNK         0.0000 
     21 C21        -1.7997   51.3964   21.2782 C.ar      1 UNK         0.0000 
     22 C22        -2.3396   51.6978   20.0238 C.ar      1 UNK         0.0000 
     23 C23        -1.5801   51.5111   18.8657 C.ar      1 UNK         0.0000 
     24 C24        -0.2825   51.0037   18.9563 C.ar      1 UNK         0.0000 
     25 C25         0.2359   50.6778   20.2109 C.ar      1 UNK         0.0000 
     26 N26         1.4763   50.1315   20.5348 N.am      1 UNK         0.0000 
     27 C27         1.6199   49.9418   21.8707 C.2       1 UNK         0.0000 
     28 O28         2.6070   49.5174   22.4698 O.2       1 UNK         0.0000 
     29 C29         2.5193   49.7389   19.5748 C.3       1 UNK         0.0000 
     30 C30         2.3043   48.3933   18.8841 C.2       1 UNK         0.0000 
     31 C31         1.2535   47.5666   19.0242 C.2       1 UNK         0.0000 
     32 C32        -0.8995   48.0968   22.4222 C.1       1 UNK         0.0000 
     33 N33        -1.3603   47.2586   21.7714 N.1       1 UNK         0.0000 
     34 N34        -1.1853   48.0980   25.2817 N.pl3     1 UNK         0.0000 
     35 H35         6.4102   54.1101   27.7694 H         1 UNK         0.0000 
     36 H36         7.8694   54.4962   26.8644 H         1 UNK         0.0000 
     37 H37         6.7058   55.7693   27.3222 H         1 UNK         0.0000 
     38 H38         4.1804   55.1862   26.6261 H         1 UNK         0.0000 
     39 H39         2.8322   54.7762   24.6457 H         1 UNK         0.0000 
     40 H40         6.2868   53.3783   22.5312 H         1 UNK         0.0000 
     41 H41         7.6843   53.9314   24.4808 H         1 UNK         0.0000 
     42 H42         1.1321   53.3140   21.5637 H         1 UNK         0.0000 
     43 H43         1.4502   54.6516   22.6265 H         1 UNK         0.0000 
     44 H44        -2.3999   51.5318   22.1665 H         1 UNK         0.0000 
     45 H45        -3.3514   52.0603   19.9433 H         1 UNK         0.0000 
     46 H46        -1.9976   51.7458   17.8987 H         1 UNK         0.0000 
     47 H47         0.2950   50.8507   18.0553 H         1 UNK         0.0000 
     48 H48         3.4957   49.6951   20.0638 H         1 UNK         0.0000 
     49 H49         2.6388   50.5147   18.8157 H         1 UNK         0.0000 
     50 H50         3.1017   48.0962   18.2157 H         1 UNK         0.0000 
     51 H51         0.4250   47.8023   19.6758 H         1 UNK         0.0000 
     52 H52         1.2094   46.6338   18.4839 H         1 UNK         0.0000 
     53 H53        -1.5774   47.2915   24.8213 H         1 UNK         0.0000 
     54 H54        -1.1472   48.0962   26.2964 H         1 UNK         0.0000 
@<TRIPOS>BOND
     1    1    2 1    
     2    1   35 1    
     3    1   36 1    
     4    1   37 1    
     5    2    7 ar   
     6    2    3 ar   
     7    3    4 ar   
     8    3   38 1    
     9    4    5 ar   
    10    4   39 1    
    11    5    6 ar   
    12    5    8 1    
    13    6    7 ar   
    14    6   40 1    
    15    7   41 1    
    16    8    9 1    
    17    9   10 1    
    18    9   42 1    
    19    9   43 1    
    20   10   15 ar   
    21   10   11 ar   
    22   11   19 1    
    23   11   12 ar   
    24   12   13 ar   
    25   12   16 1    
    26   13   14 1    
    27   13   15 ar   
    28   16   17 1    
    29   17   18 2    
    30   17   34 1    
    31   18   19 1    
    32   18   32 1    
    33   19   27 1    
    34   19   20 1    
    35   20   25 ar   
    36   20   21 ar   
    37   21   22 ar   
    38   21   44 1    
    39   22   23 ar   
    40   22   45 1    
    41   23   24 ar   
    42   23   46 1    
    43   24   25 ar   
    44   24   47 1    
    45   25   26 1    
    46   26   27 am   BACKBONE|DICT|INTERRES
    47   26   29 1    
    48   27   28 2    
    49   29   30 1    
    50   29   48 1    
    51   29   49 1    
    52   30   31 2    
    53   30   50 1    
    54   31   51 1    
    55   31   52 1    
    56   32   33 3    
    57   34   53 1    
    58   34   54 1    
@<TRIPOS>SUBSTRUCTURE
     1 UNK         1 GROUP             0       ****    0 ROOT    
