ZINC39678565_645
                    3D
 Schrodinger Suite 2024-2.
 66 69  0  0  1  0            999 V2000
    2.7856   53.8871   27.4313 C   0  0  0  0  0  0
    3.5090   54.0199   26.1039 C   0  0  0  0  0  0
    2.7923   54.0967   24.9151 C   0  0  0  0  0  0
    3.4617   54.2413   23.7038 C   0  0  0  0  0  0
    4.8687   54.2737   23.6219 C   0  0  0  0  0  0
    5.5838   54.2260   24.8495 C   0  0  0  0  0  0
    4.8981   54.0967   26.0646 C   0  0  0  0  0  0
    7.1044   54.2843   24.9360 C   0  0  0  0  0  0
    5.5700   54.4967   22.2750 C   0  0  0  0  0  0
    6.6513   55.0909   22.2515 O   0  0  0  0  0  0
    4.9953   54.1092   21.1020 N   0  0  0  0  0  0
    3.8782   53.1862   20.9461 C   0  0  0  0  0  0
    4.0796   52.5700   19.5476 C   0  0  2  0  0  0
    4.7213   51.6973   19.6815 H   0  0  0  0  0  0
    4.7524   53.7207   18.7225 C   0  0  0  0  0  0
    5.6266   54.3929   19.8074 C   0  0  0  0  0  0
    3.7386   54.7303   18.0963 C   0  0  0  0  0  0
    4.4191   55.9516   17.4408 C   0  0  0  0  0  0
    5.3988   55.4465   16.3587 N   0  3  0  0  0  0
    6.3809   54.3547   16.8431 C   0  0  0  0  0  0
    5.5710   53.2217   17.5081 C   0  0  0  0  0  0
    2.6918   52.0885   19.0411 C   0  0  0  0  0  0
    1.6400   52.4257   19.5871 O   0  0  0  0  0  0
    2.7044   51.2968   17.9609 N   0  0  0  0  0  0
    1.5268   50.8894   17.1963 C   0  0  0  0  0  0
    0.9010   52.0391   16.4102 C   0  0  0  0  0  0
    1.2659   52.2641   15.0809 C   0  0  0  0  0  0
    0.6878   53.3115   14.3639 C   0  0  0  0  0  0
   -0.2564   54.1391   14.9720 C   0  0  0  0  0  0
   -0.6335   53.9249   16.3060 C   0  0  0  0  0  0
   -0.0695   52.8555   17.0023 C   0  0  0  0  0  0
   -1.5561   54.7010   16.9761 O   0  0  0  0  0  0
   -1.6404   56.0817   16.6302 C   0  0  0  0  0  0
   -2.4776   56.2606   15.6068 F   0  0  0  0  0  0
   -2.0891   56.7617   17.6817 F   0  0  0  0  0  0
    1.7593   54.2507   27.3647 H   0  0  0  0  0  0
    2.7746   52.8474   27.7580 H   0  0  0  0  0  0
    3.2822   54.4823   28.1985 H   0  0  0  0  0  0
    1.7120   54.0721   24.9264 H   0  0  0  0  0  0
    2.8347   54.3854   22.8412 H   0  0  0  0  0  0
    5.4495   54.0477   26.9925 H   0  0  0  0  0  0
    7.4704   54.0631   25.9386 H   0  0  0  0  0  0
    7.5483   53.5565   24.2564 H   0  0  0  0  0  0
    7.4679   55.2727   24.6549 H   0  0  0  0  0  0
    2.9942   53.8210   20.9120 H   0  0  0  0  0  0
    3.8194   52.4033   21.7052 H   0  0  0  0  0  0
    6.5732   53.8562   19.8015 H   0  0  0  0  0  0
    5.8946   55.4317   19.6297 H   0  0  0  0  0  0
    3.0571   54.2453   17.3934 H   0  0  0  0  0  0
    3.1045   55.1220   18.8818 H   0  0  0  0  0  0
    3.7016   56.5930   16.9265 H   0  0  0  0  0  0
    4.9919   56.5708   18.1305 H   0  0  0  0  0  0
    4.8573   55.0652   15.5939 H   0  0  0  0  0  0
    6.9210   54.0112   15.9597 H   0  0  0  0  0  0
    7.0864   54.8391   17.5210 H   0  0  0  0  0  0
    6.3015   52.4967   17.8619 H   0  0  0  0  0  0
    4.9503   52.6772   16.7932 H   0  0  0  0  0  0
    3.5926   50.8790   17.6819 H   0  0  0  0  0  0
    0.7841   50.4392   17.8579 H   0  0  0  0  0  0
    1.8244   50.0972   16.5073 H   0  0  0  0  0  0
    2.0025   51.6327   14.6038 H   0  0  0  0  0  0
    0.9708   53.4825   13.3349 H   0  0  0  0  0  0
   -0.6931   54.9398   14.3941 H   0  0  0  0  0  0
   -0.3681   52.6819   18.0252 H   0  0  0  0  0  0
   -0.6724   56.5228   16.3786 H   0  0  0  0  0  0
    5.9170   56.2275   15.9773 H   0  0  0  0  0  0
  1  2  1  0  0  0
  1 36  1  0  0  0
  1 37  1  0  0  0
  1 38  1  0  0  0
  2  7  2  0  0  0
  2  3  1  0  0  0
  3  4  2  0  0  0
  3 39  1  0  0  0
  4  5  1  0  0  0
  4 40  1  0  0  0
  5  6  2  0  0  0
  5  9  1  0  0  0
  6  7  1  0  0  0
  6  8  1  0  0  0
  7 41  1  0  0  0
  8 42  1  0  0  0
  8 43  1  0  0  0
  8 44  1  0  0  0
  9 10  2  0  0  0
  9 11  1  0  0  0
 11 16  1  0  0  0
 11 12  1  0  0  0
 12 13  1  0  0  0
 12 45  1  0  0  0
 12 46  1  0  0  0
 13 14  1  0  0  0
 13 15  1  0  0  0
 13 22  1  0  0  0
 15 21  1  0  0  0
 15 16  1  0  0  0
 15 17  1  0  0  0
 16 47  1  0  0  0
 16 48  1  0  0  0
 17 18  1  0  0  0
 17 49  1  0  0  0
 17 50  1  0  0  0
 18 19  1  0  0  0
 18 51  1  0  0  0
 18 52  1  0  0  0
 19 20  1  0  0  0
 19 53  1  0  0  0
 19 66  1  0  0  0
 20 21  1  0  0  0
 20 54  1  0  0  0
 20 55  1  0  0  0
 21 56  1  0  0  0
 21 57  1  0  0  0
 22 23  2  0  0  0
 22 24  1  0  0  0
 24 25  1  0  0  0
 24 58  1  0  0  0
 25 26  1  0  0  0
 25 59  1  0  0  0
 25 60  1  0  0  0
 26 31  2  0  0  0
 26 27  1  0  0  0
 27 28  2  0  0  0
 27 61  1  0  0  0
 28 29  1  0  0  0
 28 62  1  0  0  0
 29 30  2  0  0  0
 29 63  1  0  0  0
 30 31  1  0  0  0
 30 32  1  0  0  0
 31 64  1  0  0  0
 32 33  1  0  0  0
 33 34  1  0  0  0
 33 35  1  0  0  0
 33 65  1  0  0  0
M  CHG  1  19   1
M  END
> <i_i_glide_confnum>
398

> <i_i_glide_lignum>
646

> <i_i_glide_posenum>
91

> <i_i_glide_rotatable_bonds>
8

> <i_m_Source_File_Index>
1411

> <b_m_subgroup_collapsed>
0

> <r_i_docking_score>
-4.5387

> <r_i_glide_ecoul>
-6.39988

> <r_i_glide_eff_state_penalty>
0

> <r_i_glide_einternal>
2.31366

> <r_i_glide_emodel>
-48.376

> <r_i_glide_energy>
-36.8478

> <r_i_glide_erotb>
0.63388

> <r_i_glide_esite>
-0.164609

> <r_i_glide_evdw>
-30.448

> <r_i_glide_gscore>
-4.5387

> <r_i_glide_hbond>
-0.266716

> <r_i_glide_ligand_efficiency>
-0.133491

> <r_i_glide_ligand_efficiency_ln>
-1.00273

> <r_i_glide_ligand_efficiency_sa>
-0.43246

> <r_i_glide_lipo>
-1.79297

> <r_i_glide_metal>
0

> <r_i_glide_rewards>
-0.46591

> <s_i_glide_gridfile>
wee1_glide-grid

> <s_m_Source_File>
wee1_decoys_glide_SP.sdf

> <s_m_Source_Path>
/Users/zhangxujun/Desktop

> <s_m_entry_id>
1686

> <s_m_entry_name>
wee1_decoys_glide_SP.1411

> <s_m_subgroup_title>
wee1_decoys_glide_SP

> <s_m_subgroupid>
wee1_decoys_glide_SP


$$$$
