ZINC64417224_300
                    3D
 Schrodinger Suite 2024-2.
 58 61  0  0  1  0            999 V2000
   -1.4023   45.4555   18.3880 C   0  0  0  0  0  0
   -0.7104   46.8047   18.4308 C   0  0  0  0  0  0
    0.6824   46.8732   18.4388 C   0  0  0  0  0  0
    1.3348   48.1057   18.4734 C   0  0  0  0  0  0
    0.5992   49.3011   18.5216 C   0  0  0  0  0  0
   -0.8034   49.2158   18.5221 C   0  0  0  0  0  0
   -1.4544   47.9838   18.4655 C   0  0  0  0  0  0
   -1.6140   50.3355   18.5313 O   0  0  0  0  0  0
   -1.2130   51.4998   19.1296 C   0  0  0  0  0  0
   -2.0776   52.3669   19.2767 O   0  0  0  0  0  0
    0.2824   51.5915   19.5491 C   0  0  2  0  0  0
    0.5512   52.6372   19.3957 H   0  0  0  0  0  0
    1.2107   50.6951   18.6568 C   0  0  2  0  0  0
    2.1757   50.5972   19.1569 H   0  0  0  0  0  0
    1.4841   51.3152   17.2735 C   0  0  0  0  0  0
    0.3835   51.2721   21.0762 C   0  0  0  0  0  0
    1.6913   51.6455   21.7934 C   0  0  0  0  0  0
    1.9048   51.1736   22.9086 O   0  0  0  0  0  0
    2.5430   52.4994   21.1952 N   0  0  0  0  0  0
    3.8042   52.9696   21.7707 C   0  0  0  0  0  0
    3.6023   53.9668   22.9362 C   0  0  0  0  0  0
    4.8161   54.2040   23.8261 C   0  0  0  0  0  0
    4.9244   54.2543   25.1678 C   0  0  0  0  0  0
    3.9035   54.0970   26.2169 C   0  0  0  0  0  0
    4.2228   54.1686   27.5352 C   0  0  0  0  0  0
    5.6248   54.4093   27.8514 C   0  0  0  0  0  0
    6.5826   54.5628   26.9015 C   0  0  0  0  0  0
    6.2504   54.4944   25.5429 C   0  0  0  0  0  0
    7.0119   54.6137   24.4792 N   0  3  0  0  0  0
    6.2055   54.4170   23.2644 C   0  0  0  0  0  0
    3.3510   54.0339   28.5760 O   0  0  0  0  0  0
    1.9768   53.7620   28.3061 C   0  0  0  0  0  0
    2.7043   48.0967   18.4820 O   0  0  0  0  0  0
   -2.4747   45.5394   18.5703 H   0  0  0  0  0  0
   -1.2428   44.9786   17.4193 H   0  0  0  0  0  0
   -0.9884   44.7980   19.1519 H   0  0  0  0  0  0
    1.2659   45.9664   18.4081 H   0  0  0  0  0  0
   -2.5335   47.9494   18.4540 H   0  0  0  0  0  0
    2.1729   50.6990   16.6945 H   0  0  0  0  0  0
    0.5703   51.4218   16.6892 H   0  0  0  0  0  0
    1.9372   52.3025   17.3688 H   0  0  0  0  0  0
   -0.4052   51.7841   21.6311 H   0  0  0  0  0  0
    0.2179   50.2056   21.2391 H   0  0  0  0  0  0
    2.2955   52.8688   20.2894 H   0  0  0  0  0  0
    4.3782   52.0976   22.0887 H   0  0  0  0  0  0
    4.4098   53.4294   20.9878 H   0  0  0  0  0  0
    3.2769   54.9229   22.5283 H   0  0  0  0  0  0
    2.7910   53.6246   23.5795 H   0  0  0  0  0  0
    2.8781   53.9156   25.9344 H   0  0  0  0  0  0
    5.9131   54.4692   28.8913 H   0  0  0  0  0  0
    7.5943   54.7281   27.2349 H   0  0  0  0  0  0
    6.5965   53.5359   22.7636 H   0  0  0  0  0  0
    6.3121   55.2962   22.6287 H   0  0  0  0  0  0
    1.4358   53.6794   29.2486 H   0  0  0  0  0  0
    1.5108   54.5648   27.7311 H   0  0  0  0  0  0
    1.8516   52.8169   27.7753 H   0  0  0  0  0  0
    3.1470   48.6893   17.8433 H   0  0  0  0  0  0
    8.0180   54.7909   24.4609 H   0  0  0  0  0  0
  1  2  1  0  0  0
  1 34  1  0  0  0
  1 35  1  0  0  0
  1 36  1  0  0  0
  2  7  2  0  0  0
  2  3  1  0  0  0
  3  4  2  0  0  0
  3 37  1  0  0  0
  4  5  1  0  0  0
  4 33  1  0  0  0
  5 13  1  0  0  0
  5  6  2  0  0  0
  6  7  1  0  0  0
  6  8  1  0  0  0
  7 38  1  0  0  0
  8  9  1  0  0  0
  9 10  2  0  0  0
  9 11  1  0  0  0
 11 12  1  0  0  0
 11 13  1  0  0  0
 11 16  1  0  0  0
 13 14  1  0  0  0
 13 15  1  0  0  0
 15 39  1  0  0  0
 15 40  1  0  0  0
 15 41  1  0  0  0
 16 17  1  0  0  0
 16 42  1  0  0  0
 16 43  1  0  0  0
 17 18  2  0  0  0
 17 19  1  0  0  0
 19 20  1  0  0  0
 19 44  1  0  0  0
 20 21  1  0  0  0
 20 45  1  0  0  0
 20 46  1  0  0  0
 21 22  1  0  0  0
 21 47  1  0  0  0
 21 48  1  0  0  0
 22 30  1  0  0  0
 22 23  2  0  0  0
 23 28  1  0  0  0
 23 24  1  0  0  0
 24 25  2  0  0  0
 24 49  1  0  0  0
 25 26  1  0  0  0
 25 31  1  0  0  0
 26 27  2  0  0  0
 26 50  1  0  0  0
 27 28  1  0  0  0
 27 51  1  0  0  0
 28 29  2  0  0  0
 29 30  1  0  0  0
 29 58  1  0  0  0
 30 52  1  0  0  0
 30 53  1  0  0  0
 31 32  1  0  0  0
 32 54  1  0  0  0
 32 55  1  0  0  0
 32 56  1  0  0  0
 33 57  1  0  0  0
M  CHG  1  29   1
M  END
> <i_i_glide_confnum>
204

> <i_i_glide_lignum>
301

> <i_i_glide_posenum>
337

> <i_i_glide_rotatable_bonds>
8

> <i_m_Source_File_Index>
2848

> <b_m_subgroup_collapsed>
0

> <r_i_docking_score>
-6.31334

> <r_i_glide_ecoul>
-9.34924

> <r_i_glide_eff_state_penalty>
0

> <r_i_glide_einternal>
13.5815

> <r_i_glide_emodel>
-56.5864

> <r_i_glide_energy>
-43.7843

> <r_i_glide_erotb>
0.663104

> <r_i_glide_esite>
-0.0227109

> <r_i_glide_evdw>
-34.435

> <r_i_glide_gscore>
-6.31334

> <r_i_glide_hbond>
-0.456

> <r_i_glide_ligand_efficiency>
-0.203656

> <r_i_glide_ligand_efficiency_ln>
-1.42385

> <r_i_glide_ligand_efficiency_sa>
-0.639762

> <r_i_glide_lipo>
-2.73623

> <r_i_glide_metal>
0

> <r_i_glide_rewards>
-0.637365

> <s_i_glide_gridfile>
wee1_glide-grid

> <s_m_Source_File>
wee1_decoys_glide_SP.sdf

> <s_m_Source_Path>
/Users/zhangxujun/Desktop

> <s_m_entry_id>
3123

> <s_m_entry_name>
wee1_decoys_glide_SP.2848

> <s_m_subgroup_title>
wee1_decoys_glide_SP

> <s_m_subgroupid>
wee1_decoys_glide_SP


$$$$
