@<TRIPOS>MOLECULE
ZINC15073494_1428
53   56    1
SMALL
USER_CHARGES


@<TRIPOS>ATOM
      1 C1         -2.2204   52.6362   25.4653 C.3       1 UNK         0.0000 
      2 O2         -1.0321   52.7489   24.6915 O.3       1 UNK         0.0000 
      3 C3         -1.0221   52.2928   23.3824 C.ar      1 UNK         0.0000 
      4 C4         -2.1314   51.6765   22.7757 C.ar      1 UNK         0.0000 
      5 C5         -2.0784   51.2560   21.4488 C.ar      1 UNK         0.0000 
      6 C6         -0.9167   51.4471   20.7054 C.ar      1 UNK         0.0000 
      7 C7          0.1948   52.0518   21.2890 C.ar      1 UNK         0.0000 
      8 C8          0.1568   52.4693   22.6318 C.ar      1 UNK         0.0000 
      9 N9          1.2377   53.1091   23.2753 N.am      1 UNK         0.0000 
     10 C10         2.5361   53.1585   22.9194 C.2       1 UNK         0.0000 
     11 O11         3.0279   52.5759   21.9540 O.2       1 UNK         0.0000 
     12 N12         3.2307   53.9116   23.7908 N.am      1 UNK         0.0000 
     13 C13         4.6043   54.0968   23.7646 C.ar      1 UNK         0.0000 
     14 C14         5.4932   54.0712   22.6962 C.ar      1 UNK         0.0000 
     15 C15         6.7325   54.3918   23.2329 C.ar      1 UNK         0.0000 
     16 N16         6.6773   54.5937   24.5229 N.2       1 UNK         0.0000 
     17 N17         5.3906   54.4108   24.8703 N.pl3     1 UNK         0.0000 
     18 C18         5.0822   54.6250   26.3044 C.3       1 UNK         0.0000 
     19 C19         3.5858   54.4868   26.6347 C.3       1 UNK         0.0000 
     20 C20         3.2864   54.6639   28.1367 C.3       1 UNK         0.0000 
     21 N21         4.0922   53.6417   28.8305 N.am      1 UNK         0.0000 
     22 C22         5.5493   53.8232   28.6745 C.3       1 UNK         0.0000 
     23 C23         5.8757   53.6289   27.1817 C.3       1 UNK         0.0000 
     24 C24         3.5860   52.5479   29.4689 C.2       1 UNK         0.0000 
     25 O25         4.2776   51.7084   30.0469 O.2       1 UNK         0.0000 
     26 C26         2.1612   52.3486   29.4304 C.2       1 UNK         0.0000 
     27 C27         1.2900   52.6165   30.5035 C.2       1 UNK         0.0000 
     28 C28        -0.0335   52.3383   30.1949 C.2       1 UNK         0.0000 
     29 S29        -0.2373   51.7630   28.5725 S.3       1 UNK         0.0000 
     30 C30         1.4677   51.9108   28.2996 C.2       1 UNK         0.0000 
     31 H31        -2.0559   53.0911   26.4442 H         1 UNK         0.0000 
     32 H32        -3.0559   53.1598   24.9967 H         1 UNK         0.0000 
     33 H33        -2.4894   51.5902   25.6290 H         1 UNK         0.0000 
     34 H34        -3.0496   51.5108   23.3211 H         1 UNK         0.0000 
     35 H35        -2.9390   50.7798   20.9974 H         1 UNK         0.0000 
     36 H36        -0.8744   51.1275   19.6745 H         1 UNK         0.0000 
     37 H37         1.0678   52.2058   20.6707 H         1 UNK         0.0000 
     38 H38         0.9884   53.5240   24.1597 H         1 UNK         0.0000 
     39 H39         2.7346   54.3122   24.5689 H         1 UNK         0.0000 
     40 H40         5.2623   53.8642   21.6603 H         1 UNK         0.0000 
     41 H41         7.6672   54.4652   22.6901 H         1 UNK         0.0000 
     42 H42         5.4119   55.6516   26.4772 H         1 UNK         0.0000 
     43 H43         3.1579   53.5522   26.2732 H         1 UNK         0.0000 
     44 H44         3.1051   55.2981   26.1113 H         1 UNK         0.0000 
     45 H45         2.2246   54.6372   28.3824 H         1 UNK         0.0000 
     46 H46         3.6258   55.6431   28.4860 H         1 UNK         0.0000 
     47 H47         5.8027   54.8351   28.9996 H         1 UNK         0.0000 
     48 H48         6.1485   53.1590   29.2794 H         1 UNK         0.0000 
     49 H49         6.9444   53.8239   27.0791 H         1 UNK         0.0000 
     50 H50         5.7266   52.5879   26.8782 H         1 UNK         0.0000 
     51 H51         1.6082   52.9795   31.4747 H         1 UNK         0.0000 
     52 H52        -0.8945   52.4106   30.8493 H         1 UNK         0.0000 
     53 H53         1.8808   51.6537   27.3343 H         1 UNK         0.0000 
@<TRIPOS>BOND
     1    1    2 1    
     2    1   31 1    
     3    1   32 1    
     4    1   33 1    
     5    2    3 1    
     6    3    8 ar   
     7    3    4 ar   
     8    4    5 ar   
     9    4   34 1    
    10    5    6 ar   
    11    5   35 1    
    12    6    7 ar   
    13    6   36 1    
    14    7    8 ar   
    15    7   37 1    
    16    8    9 1    
    17    9   10 am   BACKBONE|DICT|INTERRES
    18    9   38 1    
    19   10   11 2    
    20   10   12 am   BACKBONE|DICT|INTERRES
    21   12   13 1    
    22   12   39 1    
    23   13   17 ar   
    24   13   14 ar   
    25   14   15 ar   
    26   14   40 1    
    27   15   16 ar   
    28   15   41 1    
    29   16   17 ar   
    30   17   18 1    
    31   18   23 1    
    32   18   19 1    
    33   18   42 1    
    34   19   20 1    
    35   19   43 1    
    36   19   44 1    
    37   20   21 1    
    38   20   45 1    
    39   20   46 1    
    40   21   22 1    
    41   21   24 am   BACKBONE|DICT|INTERRES
    42   22   23 1    
    43   22   47 1    
    44   22   48 1    
    45   23   49 1    
    46   23   50 1    
    47   24   25 2    
    48   24   26 1    
    49   26   30 2    
    50   26   27 1    
    51   27   28 2    
    52   27   51 1    
    53   28   29 1    
    54   28   52 1    
    55   29   30 1    
    56   30   53 1    
@<TRIPOS>SUBSTRUCTURE
     1 UNK         1 GROUP             0       ****    0 ROOT    
