@<TRIPOS>MOLECULE
ZINC46587840_4959
57   61    1
SMALL
USER_CHARGES


@<TRIPOS>ATOM
      1 C1          6.6871   57.4201   17.7177 C.3       1 UNK         0.0000 
      2 C2          6.4715   56.9150   19.1392 C.2       1 UNK         0.0000 
      3 O3          6.7045   57.6701   20.0815 O.2       1 UNK         0.0000 
      4 N4          5.9960   55.6617   19.2634 N.am      1 UNK         0.0000 
      5 C5          5.7007   54.9734   20.4500 C.ar      1 UNK         0.0000 
      6 C6          4.7040   53.9989   20.3731 C.ar      1 UNK         0.0000 
      7 C7          4.3473   53.2708   21.5039 C.ar      1 UNK         0.0000 
      8 C8          4.9923   53.5115   22.7144 C.ar      1 UNK         0.0000 
      9 C9          5.9968   54.4792   22.8166 C.ar      1 UNK         0.0000 
     10 C10         6.3594   55.1961   21.6729 C.ar      1 UNK         0.0000 
     11 N11         6.7040   54.7017   24.0106 N.pl3     1 UNK         0.0000 
     12 C12         6.2741   54.5676   25.3142 C.2       1 UNK         0.0000 
     13 N13         7.1020   54.4968   26.3215 N.2       1 UNK         0.0000 
     14 N14         6.4649   54.3293   27.5428 N.2       1 UNK         0.0000 
     15 C15         5.1578   54.3091   27.4576 C.2       1 UNK         0.0000 
     16 S16         4.5980   54.4966   25.8108 S.3       1 UNK         0.0000 
     17 S17         4.1247   54.1023   28.8821 S.3       1 UNK         0.0000 
     18 C18         2.4298   54.2258   28.2154 C.3       1 UNK         0.0000 
     19 C19         1.8422   52.8829   27.7673 C.2       1 UNK         0.0000 
     20 O20         1.9347   51.9042   28.5094 O.2       1 UNK         0.0000 
     21 N21         1.2664   52.8770   26.5458 N.am      1 UNK         0.0000 
     22 C22         0.7049   51.7947   25.8441 C.ar      1 UNK         0.0000 
     23 C23         0.2304   50.6099   26.4563 C.ar      1 UNK         0.0000 
     24 C24        -0.2309   49.5353   25.6817 C.ar      1 UNK         0.0000 
     25 C25        -0.2336   49.6924   24.3009 C.ar      1 UNK         0.0000 
     26 C26         0.1974   50.8413   23.7080 C.ar      1 UNK         0.0000 
     27 C27         0.6765   51.9174   24.4448 C.ar      1 UNK         0.0000 
     28 O28         0.1225   50.6943   22.3600 O.3       1 UNK         0.0000 
     29 C29        -0.6567   49.5421   22.1318 C.3       1 UNK         0.0000 
     30 O30        -0.5890   48.8073   23.3320 O.3       1 UNK         0.0000 
     31 C31        -0.1512   48.7282   20.9458 C.3       1 UNK         0.0000 
     32 C32        -0.7548   49.4644   19.7527 C.3       1 UNK         0.0000 
     33 C33        -2.1172   49.9532   20.2255 C.3       1 UNK         0.0000 
     34 C34        -2.1093   49.8822   21.7595 C.3       1 UNK         0.0000 
     35 H35         6.1444   58.3550   17.5683 H         1 UNK         0.0000 
     36 H36         7.7463   57.6106   17.5467 H         1 UNK         0.0000 
     37 H37         6.3423   56.7032   16.9715 H         1 UNK         0.0000 
     38 H38         5.7328   55.1872   18.4132 H         1 UNK         0.0000 
     39 H39         4.1922   53.8030   19.4411 H         1 UNK         0.0000 
     40 H40         3.5786   52.5144   21.4376 H         1 UNK         0.0000 
     41 H41         4.7295   52.9069   23.5648 H         1 UNK         0.0000 
     42 H42         7.1601   55.9173   21.7413 H         1 UNK         0.0000 
     43 H43         7.6508   55.0243   23.8453 H         1 UNK         0.0000 
     44 H44         2.3753   54.9885   27.4414 H         1 UNK         0.0000 
     45 H45         1.7940   54.5808   29.0260 H         1 UNK         0.0000 
     46 H46         1.3320   53.7309   26.0151 H         1 UNK         0.0000 
     47 H47         0.2212   50.4967   27.5300 H         1 UNK         0.0000 
     48 H48        -0.5646   48.6227   26.1569 H         1 UNK         0.0000 
     49 H49         1.0436   52.8037   23.9485 H         1 UNK         0.0000 
     50 H50        -0.4930   47.6967   21.0432 H         1 UNK         0.0000 
     51 H51         0.9394   48.7105   20.9390 H         1 UNK         0.0000 
     52 H52        -0.8249   48.8252   18.8716 H         1 UNK         0.0000 
     53 H53        -0.1227   50.3131   19.4839 H         1 UNK         0.0000 
     54 H54        -2.9160   49.3278   19.8242 H         1 UNK         0.0000 
     55 H55        -2.3068   50.9693   19.8771 H         1 UNK         0.0000 
     56 H56        -2.4096   50.8165   22.2350 H         1 UNK         0.0000 
     57 H57        -2.7684   49.0987   22.1365 H         1 UNK         0.0000 
@<TRIPOS>BOND
     1    1    2 1    
     2    1   35 1    
     3    1   36 1    
     4    1   37 1    
     5    2    3 2    
     6    2    4 am   BACKBONE|DICT|INTERRES
     7    4    5 1    
     8    4   38 1    
     9    5   10 ar   
    10    5    6 ar   
    11    6    7 ar   
    12    6   39 1    
    13    7    8 ar   
    14    7   40 1    
    15    8    9 ar   
    16    8   41 1    
    17    9   10 ar   
    18    9   11 1    
    19   10   42 1    
    20   11   12 1    
    21   11   43 1    
    22   12   16 1    
    23   12   13 2    
    24   13   14 1    
    25   14   15 2    
    26   15   16 1    
    27   15   17 1    
    28   17   18 1    
    29   18   19 1    
    30   18   44 1    
    31   18   45 1    
    32   19   20 2    
    33   19   21 am   BACKBONE|DICT|INTERRES
    34   21   22 1    
    35   21   46 1    
    36   22   27 ar   
    37   22   23 ar   
    38   23   24 ar   
    39   23   47 1    
    40   24   25 ar   
    41   24   48 1    
    42   25   30 1    
    43   25   26 ar   
    44   26   27 ar   
    45   26   28 1    
    46   27   49 1    
    47   28   29 1    
    48   29   34 1    
    49   29   30 1    
    50   29   31 1    
    51   31   32 1    
    52   31   50 1    
    53   31   51 1    
    54   32   33 1    
    55   32   52 1    
    56   32   53 1    
    57   33   34 1    
    58   33   54 1    
    59   33   55 1    
    60   34   56 1    
    61   34   57 1    
@<TRIPOS>SUBSTRUCTURE
     1 UNK         1 GROUP             0       ****    0 ROOT    
