@<TRIPOS>MOLECULE
ZINC38905308_5453
56   59    1
SMALL
USER_CHARGES


@<TRIPOS>ATOM
      1 C1          0.5867   52.2517   25.6351 C.3       1 UNK         0.0000 
      2 O2          0.5398   51.5657   24.3888 O.3       1 UNK         0.0000 
      3 C3         -0.1336   50.3574   24.3019 C.ar      1 UNK         0.0000 
      4 C4         -0.6788   49.6946   25.4125 C.ar      1 UNK         0.0000 
      5 C5         -1.3312   48.4733   25.2655 C.ar      1 UNK         0.0000 
      6 C6         -1.4555   47.8692   24.0092 C.ar      1 UNK         0.0000 
      7 C7         -0.8951   48.5145   22.8994 C.ar      1 UNK         0.0000 
      8 C8         -0.2534   49.7473   23.0383 C.ar      1 UNK         0.0000 
      9 N9          0.2826   50.3345   21.8855 N.am      1 UNK         0.0000 
     10 C10        -0.1415   51.4993   21.3511 C.2       1 UNK         0.0000 
     11 O11        -1.1519   52.0966   21.7295 O.2       1 UNK         0.0000 
     12 C12         0.6959   52.0945   20.2011 C.3       1 UNK         0.0000 
     13 H13         0.3418   53.1239   20.1454 H         1 UNK         0.0000 
     14 C14         0.3811   51.3882   18.8657 C.3       1 UNK         0.0000 
     15 C15         1.2065   52.0634   17.7535 C.3       1 UNK         0.0000 
     16 C16         2.7172   52.0438   18.0574 C.3       1 UNK         0.0000 
     17 N17         2.9986   52.7630   19.4070 N.4       1 UNK         0.0000 
     18 C18         2.2021   52.1030   20.5630 C.3       1 UNK         0.0000 
     19 C19         4.5375   52.7553   19.6475 C.3       1 UNK         0.0000 
     20 C20         4.9788   53.5144   20.8931 C.2       1 UNK         0.0000 
     21 N21         4.6523   53.2975   22.1377 N.2       1 UNK         0.0000 
     22 C22         5.4096   54.1566   22.7915 C.2       1 UNK         0.0000 
     23 N23         6.2096   54.8971   22.0509 N.2       1 UNK         0.0000 
     24 O24         5.9040   54.4962   20.7502 O.3       1 UNK         0.0000 
     25 C25         5.3456   54.2806   24.2825 C.ar      1 UNK         0.0000 
     26 C26         4.1217   54.0969   24.9390 C.ar      1 UNK         0.0000 
     27 C27         4.0497   54.1681   26.3268 C.ar      1 UNK         0.0000 
     28 C28         5.2016   54.4236   27.0643 C.ar      1 UNK         0.0000 
     29 C29         6.4222   54.6220   26.4250 C.ar      1 UNK         0.0000 
     30 C30         6.4948   54.5589   25.0337 C.ar      1 UNK         0.0000 
     31 Br31        5.1044   54.4974   28.9627 Br        1 UNK         0.0000 
     32 N32        -2.1709   46.5814   23.8607 N.pl3     1 UNK         0.0000 
     33 O33        -2.7212   46.0968   24.8453 O.co2     1 UNK         0.0000 
     34 O34        -2.1880   46.0388   22.7592 O.co2     1 UNK         0.0000 
     35 H35         1.0984   53.2044   25.5009 H         1 UNK         0.0000 
     36 H36        -0.4147   52.4691   26.0102 H         1 UNK         0.0000 
     37 H37         1.1354   51.6845   26.3879 H         1 UNK         0.0000 
     38 H38        -0.6074   50.1012   26.4103 H         1 UNK         0.0000 
     39 H39        -1.7405   47.9956   26.1437 H         1 UNK         0.0000 
     40 H40        -0.9760   48.0680   21.9181 H         1 UNK         0.0000 
     41 H41         1.0227   49.8294   21.4235 H         1 UNK         0.0000 
     42 H42         0.6857   50.3393   18.8808 H         1 UNK         0.0000 
     43 H43        -0.6705   51.4909   18.5894 H         1 UNK         0.0000 
     44 H44         1.0273   51.5551   16.8045 H         1 UNK         0.0000 
     45 H45         0.8751   53.0936   17.6088 H         1 UNK         0.0000 
     46 H46         3.1053   51.0237   18.1216 H         1 UNK         0.0000 
     47 H47         3.2610   52.5877   17.2824 H         1 UNK         0.0000 
     48 H48         2.3472   52.7293   21.4417 H         1 UNK         0.0000 
     49 H49         2.6380   51.1100   20.6956 H         1 UNK         0.0000 
     50 H50         4.8234   51.7020   19.6829 H         1 UNK         0.0000 
     51 H51         4.9759   53.1836   18.7440 H         1 UNK         0.0000 
     52 H52         3.2247   53.8870   24.3744 H         1 UNK         0.0000 
     53 H53         3.1071   54.0169   26.8312 H         1 UNK         0.0000 
     54 H54         7.3049   54.8124   27.0171 H         1 UNK         0.0000 
     55 H55         7.4475   54.6992   24.5407 H         1 UNK         0.0000 
     56 H56         2.6785   53.7231   19.3247 H         1 UNK         0.0000 
@<TRIPOS>BOND
     1    1    2 1    
     2    1   35 1    
     3    1   36 1    
     4    1   37 1    
     5    2    3 1    
     6    3    8 ar   
     7    3    4 ar   
     8    4    5 ar   
     9    4   38 1    
    10    5    6 ar   
    11    5   39 1    
    12    6    7 ar   
    13    6   32 1    
    14    7    8 ar   
    15    7   40 1    
    16    8    9 1    
    17    9   10 am   BACKBONE|DICT|INTERRES
    18    9   41 1    
    19   10   11 2    
    20   10   12 1    
    21   12   13 1    
    22   12   18 1    
    23   12   14 1    
    24   14   15 1    
    25   14   42 1    
    26   14   43 1    
    27   15   16 1    
    28   15   44 1    
    29   15   45 1    
    30   16   17 1    
    31   16   46 1    
    32   16   47 1    
    33   17   18 1    
    34   17   19 1    
    35   17   56 1    
    36   18   48 1    
    37   18   49 1    
    38   19   20 1    
    39   19   50 1    
    40   19   51 1    
    41   20   24 1    
    42   20   21 2    
    43   21   22 1    
    44   22   23 2    
    45   22   25 1    
    46   23   24 1    
    47   25   30 ar   
    48   25   26 ar   
    49   26   27 ar   
    50   26   52 1    
    51   27   28 ar   
    52   27   53 1    
    53   28   29 ar   
    54   28   31 1    
    55   29   30 ar   
    56   29   54 1    
    57   30   55 1    
    58   32   33 2    
    59   32   34 1    
@<TRIPOS>SUBSTRUCTURE
     1 UNK         1 GROUP             0       ****    0 ROOT    
