@<TRIPOS>MOLECULE
ZINC35751029_5160
62   66    1
SMALL
USER_CHARGES


@<TRIPOS>ATOM
      1 C1          9.5823   52.5593   12.9144 C.ar      1 UNK         0.0000 
      2 C2          8.5937   53.4570   13.3132 C.ar      1 UNK         0.0000 
      3 C3          8.0842   53.3927   14.6075 C.ar      1 UNK         0.0000 
      4 C4          8.5698   52.4323   15.5009 C.ar      1 UNK         0.0000 
      5 C5          9.5640   51.5378   15.0943 C.ar      1 UNK         0.0000 
      6 C6         10.0691   51.5988   13.7982 C.ar      1 UNK         0.0000 
      7 C7          8.0096   52.3254   16.9142 C.3       1 UNK         0.0000 
      8 N8          7.6717   53.5857   17.5912 N.am      1 UNK         0.0000 
      9 C9          6.4454   53.7421   18.3440 C.3       1 UNK         0.0000 
     10 H10         6.3011   52.8614   18.9735 H         1 UNK         0.0000 
     11 C11         6.6732   55.0025   19.1857 C.3       1 UNK         0.0000 
     12 H12         6.1484   55.8636   18.7660 H         1 UNK         0.0000 
     13 O13         8.0589   55.2459   18.9981 O.3       1 UNK         0.0000 
     14 C14         8.6338   54.4966   18.0253 C.2       1 UNK         0.0000 
     15 O15         9.8040   54.6438   17.6815 O.2       1 UNK         0.0000 
     16 C16         6.2389   54.8967   20.6532 C.ar      1 UNK         0.0000 
     17 C17         5.0027   54.3189   20.9627 C.ar      1 UNK         0.0000 
     18 C18         4.6347   54.1036   22.2861 C.ar      1 UNK         0.0000 
     19 C19         5.4821   54.4963   23.3233 C.ar      1 UNK         0.0000 
     20 C20         6.7049   55.1077   23.0198 C.ar      1 UNK         0.0000 
     21 C21         7.0821   55.3008   21.6935 C.ar      1 UNK         0.0000 
     22 N22         4.9978   54.2685   24.6205 N.am      1 UNK         0.0000 
     23 C23         5.5534   54.5142   25.8276 C.2       1 UNK         0.0000 
     24 O24         6.6914   54.9626   25.9956 O.2       1 UNK         0.0000 
     25 C25         4.6577   54.2214   27.0192 C.ar      1 UNK         0.0000 
     26 C26         3.3589   53.6969   26.8665 C.ar      1 UNK         0.0000 
     27 C27         2.5513   53.4593   27.9748 C.ar      1 UNK         0.0000 
     28 C28         3.0257   53.7463   29.2489 C.ar      1 UNK         0.0000 
     29 C29         4.3044   54.2663   29.4210 C.ar      1 UNK         0.0000 
     30 C30         5.1184   54.4953   28.3155 C.ar      1 UNK         0.0000 
     31 C31         5.2158   53.9069   17.4293 C.2       1 UNK         0.0000 
     32 O32         5.1859   54.8178   16.5991 O.2       1 UNK         0.0000 
     33 N33         4.2328   53.0021   17.6071 N.am      1 UNK         0.0000 
     34 C34         2.9260   53.0358   17.0918 C.ar      1 UNK         0.0000 
     35 C35         2.2568   51.8144   16.9968 C.ar      1 UNK         0.0000 
     36 C36         0.9436   51.7691   16.5368 C.ar      1 UNK         0.0000 
     37 C37         0.2953   52.9502   16.1835 C.ar      1 UNK         0.0000 
     38 C38         0.9490   54.1766   16.2860 C.ar      1 UNK         0.0000 
     39 C39         2.2630   54.2235   16.7432 C.ar      1 UNK         0.0000 
     40 H40         9.9741   52.6045   11.9082 H         1 UNK         0.0000 
     41 H41         8.2197   54.1967   12.6206 H         1 UNK         0.0000 
     42 H42         7.3093   54.0829   14.9113 H         1 UNK         0.0000 
     43 H43         9.9414   50.7905   15.7773 H         1 UNK         0.0000 
     44 H44        10.8329   50.9033   13.4764 H         1 UNK         0.0000 
     45 H45         7.1198   51.6969   16.8672 H         1 UNK         0.0000 
     46 H46         8.7225   51.7844   17.5390 H         1 UNK         0.0000 
     47 H47         4.3241   54.0099   20.1818 H         1 UNK         0.0000 
     48 H48         3.6784   53.6443   22.4918 H         1 UNK         0.0000 
     49 H49         7.3908   55.4335   23.7855 H         1 UNK         0.0000 
     50 H50         8.0468   55.7431   21.4883 H         1 UNK         0.0000 
     51 H51         4.0739   53.8719   24.6472 H         1 UNK         0.0000 
     52 H52         2.9474   53.4601   25.8973 H         1 UNK         0.0000 
     53 H53         1.5586   53.0530   27.8480 H         1 UNK         0.0000 
     54 H54         2.3926   53.5596   30.1037 H         1 UNK         0.0000 
     55 H55         4.6728   54.4957   30.4094 H         1 UNK         0.0000 
     56 H56         6.1094   54.8988   28.4782 H         1 UNK         0.0000 
     57 H57         4.4922   52.1436   18.0815 H         1 UNK         0.0000 
     58 H58         2.7541   50.8964   17.2730 H         1 UNK         0.0000 
     59 H59         0.4334   50.8204   16.4564 H         1 UNK         0.0000 
     60 H60        -0.7242   52.9172   15.8286 H         1 UNK         0.0000 
     61 H61         0.4374   55.0890   16.0182 H         1 UNK         0.0000 
     62 H62         2.7454   55.1854   16.8378 H         1 UNK         0.0000 
@<TRIPOS>BOND
     1    1    6 ar   
     2    1    2 ar   
     3    1   40 1    
     4    2    3 ar   
     5    2   41 1    
     6    3    4 ar   
     7    3   42 1    
     8    4    5 ar   
     9    4    7 1    
    10    5    6 ar   
    11    5   43 1    
    12    6   44 1    
    13    7    8 1    
    14    7   45 1    
    15    7   46 1    
    16    8   14 am   BACKBONE|DICT|INTERRES
    17    8    9 1    
    18    9   10 1    
    19    9   11 1    
    20    9   31 1    
    21   11   12 1    
    22   11   13 1    
    23   11   16 1    
    24   13   14 1    
    25   14   15 2    
    26   16   21 ar   
    27   16   17 ar   
    28   17   18 ar   
    29   17   47 1    
    30   18   19 ar   
    31   18   48 1    
    32   19   20 ar   
    33   19   22 1    
    34   20   21 ar   
    35   20   49 1    
    36   21   50 1    
    37   22   23 am   BACKBONE|DICT|INTERRES
    38   22   51 1    
    39   23   24 2    
    40   23   25 1    
    41   25   30 ar   
    42   25   26 ar   
    43   26   27 ar   
    44   26   52 1    
    45   27   28 ar   
    46   27   53 1    
    47   28   29 ar   
    48   28   54 1    
    49   29   30 ar   
    50   29   55 1    
    51   30   56 1    
    52   31   32 2    
    53   31   33 am   BACKBONE|DICT|INTERRES
    54   33   34 1    
    55   33   57 1    
    56   34   39 ar   
    57   34   35 ar   
    58   35   36 ar   
    59   35   58 1    
    60   36   37 ar   
    61   36   59 1    
    62   37   38 ar   
    63   37   60 1    
    64   38   39 ar   
    65   38   61 1    
    66   39   62 1    
@<TRIPOS>SUBSTRUCTURE
     1 UNK         1 GROUP             0       ****    0 ROOT    
