ZINC08644385_2393
                    3D
 Schrodinger Suite 2024-2.
 39 42  0  0  1  0            999 V2000
    2.7085   54.6169   28.2494 C   0  0  0  0  0  0
    1.5689   54.4766   29.0321 C   0  0  0  0  0  0
    1.5599   53.5623   30.0815 C   0  0  0  0  0  0
    2.6869   52.7890   30.3545 C   0  0  0  0  0  0
    3.8340   52.9382   29.5770 C   0  0  0  0  0  0
    3.8489   53.8569   28.5218 C   0  0  0  0  0  0
    5.0622   54.0444   27.6760 C   0  0  0  0  0  0
    6.3020   53.6973   27.9295 N   0  0  0  0  0  0
    7.0462   54.0961   26.8230 N   0  0  0  0  0  0
    6.1935   54.6289   25.9841 C   0  0  0  0  0  0
    4.9271   54.6401   26.4624 O   0  0  0  0  0  0
    6.4406   55.1606   24.5924 C   0  0  0  0  0  0
    5.8221   54.0276   23.3073 S   0  0  0  0  0  0
    6.3097   54.8967   21.8514 C   0  0  0  0  0  0
    7.4374   55.5480   21.7173 N   0  0  0  0  0  0
    7.4530   56.0968   20.4452 N   0  0  0  0  0  0
    6.3191   55.7917   19.8630 C   0  0  0  0  0  0
    5.5750   54.9689   20.6871 N   0  0  0  0  0  0
    4.3526   54.3704   20.4228 N   0  0  0  0  0  0
    5.9054   56.3081   18.5151 C   0  0  0  0  0  0
    5.3459   55.4139   17.5928 C   0  0  0  0  0  0
    4.9244   55.8518   16.3380 C   0  0  0  0  0  0
    5.0556   57.1940   15.9871 C   0  0  0  0  0  0
    5.6159   58.0959   16.8896 C   0  0  0  0  0  0
    6.0473   57.6618   18.1444 C   0  0  0  0  0  0
    6.7045   58.8489   19.2226 Cl  0  0  0  0  0  0
    4.5236   57.7378   14.4382 Cl  0  0  0  0  0  0
    0.1510   53.4033   31.0631 Cl  0  0  0  0  0  0
    2.7042   55.3257   27.4356 H   0  0  0  0  0  0
    0.7025   55.0824   28.8224 H   0  0  0  0  0  0
    2.6723   52.0922   31.1788 H   0  0  0  0  0  0
    4.7070   52.3392   29.7923 H   0  0  0  0  0  0
    5.9563   56.1291   24.4805 H   0  0  0  0  0  0
    7.5042   55.3293   24.4332 H   0  0  0  0  0  0
    4.4017   53.3619   20.3979 H   0  0  0  0  0  0
    3.5877   54.7366   20.9718 H   0  0  0  0  0  0
    5.2372   54.3684   17.8438 H   0  0  0  0  0  0
    4.4941   55.1485   15.6400 H   0  0  0  0  0  0
    5.7065   59.1418   16.6235 H   0  0  0  0  0  0
  1  6  2  0  0  0
  1  2  1  0  0  0
  1 29  1  0  0  0
  2  3  2  0  0  0
  2 30  1  0  0  0
  3  4  1  0  0  0
  3 28  1  0  0  0
  4  5  2  0  0  0
  4 31  1  0  0  0
  5  6  1  0  0  0
  5 32  1  0  0  0
  6  7  1  0  0  0
  7 11  1  0  0  0
  7  8  2  0  0  0
  8  9  1  0  0  0
  9 10  2  0  0  0
 10 11  1  0  0  0
 10 12  1  0  0  0
 12 13  1  0  0  0
 12 33  1  0  0  0
 12 34  1  0  0  0
 13 14  1  0  0  0
 14 18  1  0  0  0
 14 15  2  0  0  0
 15 16  1  0  0  0
 16 17  2  0  0  0
 17 18  1  0  0  0
 17 20  1  0  0  0
 18 19  1  0  0  0
 19 35  1  0  0  0
 19 36  1  0  0  0
 20 25  2  0  0  0
 20 21  1  0  0  0
 21 22  2  0  0  0
 21 37  1  0  0  0
 22 23  1  0  0  0
 22 38  1  0  0  0
 23 24  2  0  0  0
 23 27  1  0  0  0
 24 25  1  0  0  0
 24 39  1  0  0  0
 25 26  1  0  0  0
M  END
> <i_i_glide_confnum>
61

> <i_i_glide_lignum>
2394

> <i_i_glide_posenum>
184

> <i_i_glide_rotatable_bonds>
5

> <i_m_Source_File_Index>
2465

> <b_m_subgroup_collapsed>
0

> <r_i_docking_score>
-5.68141

> <r_i_glide_ecoul>
-1.4909

> <r_i_glide_eff_state_penalty>
0

> <r_i_glide_einternal>
1.2109

> <r_i_glide_emodel>
-65.0086

> <r_i_glide_energy>
-48.9281

> <r_i_glide_erotb>
0.487568

> <r_i_glide_esite>
-0.00078256

> <r_i_glide_evdw>
-47.4371

> <r_i_glide_gscore>
-5.68141

> <r_i_glide_hbond>
-0.0154904

> <r_i_glide_ligand_efficiency>
-0.202908

> <r_i_glide_ligand_efficiency_ln>
-1.31144

> <r_i_glide_ligand_efficiency_sa>
-0.616147

> <r_i_glide_lipo>
-2.53075

> <r_i_glide_metal>
0

> <r_i_glide_rewards>
-1.02646

> <s_i_glide_gridfile>
wee1_glide-grid

> <s_m_Source_File>
wee1_decoys_glide_SP.sdf

> <s_m_Source_Path>
/Users/zhangxujun/Desktop

> <s_m_entry_id>
2740

> <s_m_entry_name>
wee1_decoys_glide_SP.2465

> <s_m_subgroup_title>
wee1_decoys_glide_SP

> <s_m_subgroupid>
wee1_decoys_glide_SP


$$$$
