@<TRIPOS>MOLECULE
ZINC66671379_1454
45   48    1
SMALL
USER_CHARGES


@<TRIPOS>ATOM
      1 C1          0.5278   54.0505   30.1757 C.ar      1 UNK         0.0000 
      2 C2         -0.0961   52.8174   30.3650 C.ar      1 UNK         0.0000 
      3 C3         -0.0730   51.8839   29.3311 C.ar      1 UNK         0.0000 
      4 N4          0.5597   52.1123   28.1566 N.ar      1 UNK         0.0000 
      5 C5          1.1818   53.3130   27.9784 C.ar      1 UNK         0.0000 
      6 C6          1.1690   54.3113   28.9637 C.ar      1 UNK         0.0000 
      7 C7          1.9062   53.5474   26.6428 C.3       1 UNK         0.0000 
      8 H8          1.5065   54.4924   26.3072 H         1 UNK         0.0000 
      9 C9          3.4284   53.7578   26.7899 C.ar      1 UNK         0.0000 
     10 C10         4.1279   53.2232   27.8814 C.ar      1 UNK         0.0000 
     11 C11         5.4853   53.4749   28.0430 C.ar      1 UNK         0.0000 
     12 C12         6.1564   54.2619   27.1143 C.ar      1 UNK         0.0000 
     13 C13         5.4780   54.8126   26.0319 C.ar      1 UNK         0.0000 
     14 C14         4.1145   54.5724   25.8788 C.ar      1 UNK         0.0000 
     15 F15         7.4763   54.4966   27.2703 F         1 UNK         0.0000 
     16 N16         1.5046   52.5928   25.5976 N.am      1 UNK         0.0000 
     17 C17         1.6674   52.7088   24.2705 C.2       1 UNK         0.0000 
     18 O18         1.9606   53.7574   23.6955 O.2       1 UNK         0.0000 
     19 N19         1.5044   51.5121   23.6829 N.am      1 UNK         0.0000 
     20 C20         1.8053   51.1148   22.3643 C.ar      1 UNK         0.0000 
     21 C21         2.7711   51.7656   21.5769 C.ar      1 UNK         0.0000 
     22 C22         3.0668   51.2837   20.2997 C.ar      1 UNK         0.0000 
     23 C23         2.3842   50.1613   19.8328 C.ar      1 UNK         0.0000 
     24 N24         1.4467   49.5145   20.5670 N.ar      1 UNK         0.0000 
     25 C25         1.1630   49.9849   21.8164 C.ar      1 UNK         0.0000 
     26 N26         0.1884   49.2463   22.5304 N.pl3     1 UNK         0.0000 
     27 C27         0.2285   48.7439   23.8072 C.ar      1 UNK         0.0000 
     28 N28        -0.8757   48.1034   24.0915 N.2       1 UNK         0.0000 
     29 C29        -1.5644   48.2478   22.9719 C.ar      1 UNK         0.0000 
     30 N30        -0.9939   48.9149   21.9925 N.2       1 UNK         0.0000 
     31 H31         0.5089   54.7961   30.9569 H         1 UNK         0.0000 
     32 H32        -0.6090   52.5843   31.2829 H         1 UNK         0.0000 
     33 H33        -0.5635   50.9262   29.4380 H         1 UNK         0.0000 
     34 H34         1.6608   55.2591   28.7989 H         1 UNK         0.0000 
     35 H35         3.6243   52.6003   28.6067 H         1 UNK         0.0000 
     36 H36         6.0195   53.0565   28.8815 H         1 UNK         0.0000 
     37 H37         6.0028   55.4286   25.3198 H         1 UNK         0.0000 
     38 H38         3.5949   55.0243   25.0496 H         1 UNK         0.0000 
     39 H39         1.0496   51.7646   25.9498 H         1 UNK         0.0000 
     40 H40         1.0675   50.7991   24.2445 H         1 UNK         0.0000 
     41 H41         3.3111   52.6250   21.9429 H         1 UNK         0.0000 
     42 H42         3.8184   51.7563   19.6829 H         1 UNK         0.0000 
     43 H43         2.6025   49.7576   18.8515 H         1 UNK         0.0000 
     44 H44         1.1038   48.8529   24.4322 H         1 UNK         0.0000 
     45 H45        -2.5545   47.8305   22.8687 H         1 UNK         0.0000 
@<TRIPOS>BOND
     1    1    6 ar   
     2    1    2 ar   
     3    1   31 1    
     4    2    3 ar   
     5    2   32 1    
     6    3    4 ar   
     7    3   33 1    
     8    4    5 ar   
     9    5    6 ar   
    10    5    7 1    
    11    6   34 1    
    12    7    8 1    
    13    7    9 1    
    14    7   16 1    
    15    9   14 ar   
    16    9   10 ar   
    17   10   11 ar   
    18   10   35 1    
    19   11   12 ar   
    20   11   36 1    
    21   12   13 ar   
    22   12   15 1    
    23   13   14 ar   
    24   13   37 1    
    25   14   38 1    
    26   16   17 am   BACKBONE|DICT|INTERRES
    27   16   39 1    
    28   17   18 2    
    29   17   19 am   BACKBONE|DICT|INTERRES
    30   19   20 1    
    31   19   40 1    
    32   20   25 ar   
    33   20   21 ar   
    34   21   22 ar   
    35   21   41 1    
    36   22   23 ar   
    37   22   42 1    
    38   23   24 ar   
    39   23   43 1    
    40   24   25 ar   
    41   25   26 1    
    42   26   30 ar   
    43   26   27 ar   
    44   27   28 ar   
    45   27   44 1    
    46   28   29 ar   
    47   29   30 ar   
    48   29   45 1    
@<TRIPOS>SUBSTRUCTURE
     1 UNK         1 GROUP             0       ****    0 ROOT    
