@<TRIPOS>MOLECULE
ZINC25382053_575
64   66    1
SMALL
USER_CHARGES


@<TRIPOS>ATOM
      1 C1          5.0417   56.8102   16.1948 C.3       1 UNK         0.0000 
      2 C2          5.1552   55.7101   17.2646 C.3       1 UNK         0.0000 
      3 C3          5.2075   56.3072   18.6782 C.3       1 UNK         0.0000 
      4 C4          5.4387   55.2082   19.7332 C.3       1 UNK         0.0000 
      5 N5          4.3039   54.1418   19.6528 N.4       1 UNK         0.0000 
      6 C6          4.1431   53.5821   18.2076 C.3       1 UNK         0.0000 
      7 C7          3.9570   54.7485   17.2195 C.3       1 UNK         0.0000 
      8 C8          4.5220   53.0121   20.7101 C.3       1 UNK         0.0000 
      9 H9          5.5068   52.6295   20.4462 H         1 UNK         0.0000 
     10 C10         3.5245   51.8259   20.5666 C.3       1 UNK         0.0000 
     11 N11         2.1312   52.1562   20.8817 N.am      1 UNK         0.0000 
     12 C12         1.3318   51.3759   21.6289 C.2       1 UNK         0.0000 
     13 O13         1.6663   50.2609   22.0366 O.2       1 UNK         0.0000 
     14 C14        -0.0674   51.9443   21.9755 C.3       1 UNK         0.0000 
     15 H15        -0.2209   52.8452   21.3793 H         1 UNK         0.0000 
     16 C16        -0.1497   52.3538   23.4910 C.3       1 UNK         0.0000 
     17 C17        -1.5546   52.8521   23.8906 C.3       1 UNK         0.0000 
     18 C18         0.3298   51.3052   24.5250 C.3       1 UNK         0.0000 
     19 N19        -1.0660   50.9364   21.6151 N.am      1 UNK         0.0000 
     20 C20        -1.9945   51.0470   20.6513 C.2       1 UNK         0.0000 
     21 O21        -2.1781   52.0919   20.0223 O.2       1 UNK         0.0000 
     22 C22        -2.8197   49.8040   20.3828 C.ar      1 UNK         0.0000 
     23 C23        -2.2898   48.5075   20.5701 C.ar      1 UNK         0.0000 
     24 C24        -3.0631   47.3775   20.3127 C.ar      1 UNK         0.0000 
     25 C25        -4.3712   47.5072   19.8562 C.ar      1 UNK         0.0000 
     26 C26        -4.9053   48.7763   19.6522 C.ar      1 UNK         0.0000 
     27 C27        -4.1406   49.9130   19.9052 C.ar      1 UNK         0.0000 
     28 F28        -4.7109   51.1186   19.6757 F         1 UNK         0.0000 
     29 F29        -1.0189   48.3108   20.9956 F         1 UNK         0.0000 
     30 C30         4.5225   53.6114   22.1183 C.2       1 UNK         0.0000 
     31 C31         3.4648   54.0965   22.8950 C.2       1 UNK         0.0000 
     32 C32         3.8174   54.4967   24.1852 C.2       1 UNK         0.0000 
     33 C33         5.1723   54.3760   24.4208 C.2       1 UNK         0.0000 
     34 S34         5.9976   53.7411   23.0407 S.3       1 UNK         0.0000 
     35 H35         4.1403   57.4109   16.3257 H         1 UNK         0.0000 
     36 H36         5.8955   57.4870   16.2324 H         1 UNK         0.0000 
     37 H37         5.0133   56.3846   15.1924 H         1 UNK         0.0000 
     38 H38         6.0717   55.1425   17.0843 H         1 UNK         0.0000 
     39 H39         4.3043   56.8843   18.8808 H         1 UNK         0.0000 
     40 H40         6.0120   57.0422   18.7349 H         1 UNK         0.0000 
     41 H41         5.4061   55.6570   20.7270 H         1 UNK         0.0000 
     42 H42         6.3898   54.6893   19.5922 H         1 UNK         0.0000 
     43 H43         5.0116   52.9563   17.9842 H         1 UNK         0.0000 
     44 H44         3.2338   52.9810   18.1852 H         1 UNK         0.0000 
     45 H45         3.8485   54.3490   16.2101 H         1 UNK         0.0000 
     46 H46         3.0211   55.2804   17.4033 H         1 UNK         0.0000 
     47 H47         3.8973   51.0380   21.2248 H         1 UNK         0.0000 
     48 H48         3.5836   51.3519   19.5872 H         1 UNK         0.0000 
     49 H49         1.7737   53.0307   20.5190 H         1 UNK         0.0000 
     50 H50         0.5046   53.2177   23.6217 H         1 UNK         0.0000 
     51 H51        -2.2999   52.0623   23.7947 H         1 UNK         0.0000 
     52 H52        -1.5716   53.1869   24.9274 H         1 UNK         0.0000 
     53 H53        -1.8767   53.6925   23.2815 H         1 UNK         0.0000 
     54 H54        -0.1743   50.3491   24.3867 H         1 UNK         0.0000 
     55 H55         1.4041   51.1298   24.4627 H         1 UNK         0.0000 
     56 H56         0.1337   51.6353   25.5445 H         1 UNK         0.0000 
     57 H57        -0.9287   50.0317   22.0429 H         1 UNK         0.0000 
     58 H58        -2.6403   46.3953   20.4623 H         1 UNK         0.0000 
     59 H59        -4.9678   46.6287   19.6556 H         1 UNK         0.0000 
     60 H60        -5.9178   48.8812   19.2895 H         1 UNK         0.0000 
     61 H61         2.4477   54.1468   22.5402 H         1 UNK         0.0000 
     62 H62         3.1087   54.8713   24.9086 H         1 UNK         0.0000 
     63 H63         5.7155   54.6173   25.3235 H         1 UNK         0.0000 
     64 H64         3.4326   54.6127   19.8693 H         1 UNK         0.0000 
@<TRIPOS>BOND
     1    1    2 1    
     2    1   35 1    
     3    1   36 1    
     4    1   37 1    
     5    2    7 1    
     6    2    3 1    
     7    2   38 1    
     8    3    4 1    
     9    3   39 1    
    10    3   40 1    
    11    4    5 1    
    12    4   41 1    
    13    4   42 1    
    14    5    6 1    
    15    5    8 1    
    16    5   64 1    
    17    6    7 1    
    18    6   43 1    
    19    6   44 1    
    20    7   45 1    
    21    7   46 1    
    22    8    9 1    
    23    8   10 1    
    24    8   30 1    
    25   10   11 1    
    26   10   47 1    
    27   10   48 1    
    28   11   12 am   BACKBONE|DICT|INTERRES
    29   11   49 1    
    30   12   13 2    
    31   12   14 1    
    32   14   15 1    
    33   14   16 1    
    34   14   19 1    
    35   16   17 1    
    36   16   18 1    
    37   16   50 1    
    38   17   51 1    
    39   17   52 1    
    40   17   53 1    
    41   18   54 1    
    42   18   55 1    
    43   18   56 1    
    44   19   20 am   BACKBONE|DICT|INTERRES
    45   19   57 1    
    46   20   21 2    
    47   20   22 1    
    48   22   27 ar   
    49   22   23 ar   
    50   23   24 ar   
    51   23   29 1    
    52   24   25 ar   
    53   24   58 1    
    54   25   26 ar   
    55   25   59 1    
    56   26   27 ar   
    57   26   60 1    
    58   27   28 1    
    59   30   34 1    
    60   30   31 2    
    61   31   32 1    
    62   31   61 1    
    63   32   33 2    
    64   32   62 1    
    65   33   34 1    
    66   33   63 1    
@<TRIPOS>SUBSTRUCTURE
     1 UNK         1 GROUP             0       ****    0 ROOT    
