ZINC17089209_2604
                    3D
 Schrodinger Suite 2024-2.
 52 54  0  0  1  0            999 V2000
    7.0436   55.7792   23.8002 C   0  0  0  0  0  0
    6.3953   54.5560   23.1539 C   0  0  0  0  0  0
    7.3310   53.3673   23.3359 C   0  0  0  0  0  0
    5.0408   54.2380   23.7500 C   0  0  0  0  0  0
    3.9120   53.6968   23.1454 C   0  0  0  0  0  0
    2.7960   53.4919   23.9844 C   0  0  0  0  0  0
    3.1060   53.8441   25.3164 C   0  0  0  0  0  0
    4.7270   54.4822   25.4291 S   0  0  0  0  0  0
    2.3067   53.6967   26.4526 N   0  0  0  0  0  0
    2.5145   54.2279   27.6808 C   0  0  0  0  0  0
    3.4944   54.8967   28.0042 O   0  0  0  0  0  0
    1.3819   54.0299   28.7056 C   0  0  2  0  0  0
    0.4844   54.1901   28.1059 H   0  0  0  0  0  0
    1.3709   55.1154   29.8222 C   0  0  0  0  0  0
    0.5302   54.6628   31.0031 C   0  0  0  0  0  0
   -0.0956   53.4803   31.1024 C   0  0  0  0  0  0
   -0.0301   52.3867   30.0481 C   0  0  0  0  0  0
    1.2619   52.5548   29.1990 C   0  0  2  0  0  0
    1.1873   51.8489   28.3694 H   0  0  0  0  0  0
    2.5353   52.0967   29.9726 C   0  0  0  0  0  0
    3.5087   51.7357   29.2817 O   0  0  0  0  0  0
    1.5817   52.8734   23.4770 C   0  0  0  0  0  0
    1.6070   52.2165   22.4354 O   0  0  0  0  0  0
    0.4798   53.0685   24.2324 N   0  0  0  0  0  0
   -0.8048   52.5152   24.0817 C   0  0  0  0  0  0
   -1.6091   52.4967   25.2248 C   0  0  0  0  0  0
   -2.8977   51.9738   25.1679 C   0  0  0  0  0  0
   -3.3844   51.4697   23.9649 C   0  0  0  0  0  0
   -2.5949   51.4869   22.8179 C   0  0  0  0  0  0
   -1.3077   52.0141   22.8709 C   0  0  0  0  0  0
    6.3049   56.5549   23.9868 H   0  0  0  0  0  0
    7.5039   55.5499   24.7623 H   0  0  0  0  0  0
    7.8230   56.1594   23.1423 H   0  0  0  0  0  0
    6.2879   54.7453   22.0843 H   0  0  0  0  0  0
    6.8797   52.4967   22.8817 H   0  0  0  0  0  0
    8.3044   53.5388   22.8817 H   0  0  0  0  0  0
    7.5044   53.1631   24.3929 H   0  0  0  0  0  0
    3.9023   53.4509   22.0922 H   0  0  0  0  0  0
    1.4819   53.1291   26.3464 H   0  0  0  0  0  0
    1.1044   56.1024   29.4416 H   0  0  0  0  0  0
    2.3701   55.2223   30.2460 H   0  0  0  0  0  0
    0.4564   55.2967   31.8656 H   0  0  0  0  0  0
   -0.6361   53.2967   32.0180 H   0  0  0  0  0  0
   -0.0955   51.4093   30.5194 H   0  0  0  0  0  0
   -0.9142   52.4553   29.4150 H   0  0  0  0  0  0
    0.5946   53.6699   25.0301 H   0  0  0  0  0  0
   -1.2421   52.8761   26.1674 H   0  0  0  0  0  0
   -3.5140   51.9516   26.0549 H   0  0  0  0  0  0
   -4.3827   51.0590   23.9223 H   0  0  0  0  0  0
   -2.9804   51.0932   21.8891 H   0  0  0  0  0  0
   -0.7245   52.0287   21.9635 H   0  0  0  0  0  0
    2.5623   52.1167   31.2231 O   0  5  0  0  0  0
  1  2  1  0  0  0
  1 31  1  0  0  0
  1 32  1  0  0  0
  1 33  1  0  0  0
  2  3  1  0  0  0
  2  4  1  0  0  0
  2 34  1  0  0  0
  3 35  1  0  0  0
  3 36  1  0  0  0
  3 37  1  0  0  0
  4  8  1  0  0  0
  4  5  2  0  0  0
  5  6  1  0  0  0
  5 38  1  0  0  0
  6  7  2  0  0  0
  6 22  1  0  0  0
  7  8  1  0  0  0
  7  9  1  0  0  0
  9 10  1  0  0  0
  9 39  1  0  0  0
 10 11  2  0  0  0
 10 12  1  0  0  0
 12 13  1  0  0  0
 12 18  1  0  0  0
 12 14  1  0  0  0
 14 15  1  0  0  0
 14 40  1  0  0  0
 14 41  1  0  0  0
 15 16  2  0  0  0
 15 42  1  0  0  0
 16 17  1  0  0  0
 16 43  1  0  0  0
 17 18  1  0  0  0
 17 44  1  0  0  0
 17 45  1  0  0  0
 18 19  1  0  0  0
 18 20  1  0  0  0
 20 21  2  0  0  0
 20 52  1  0  0  0
 22 23  2  0  0  0
 22 24  1  0  0  0
 24 25  1  0  0  0
 24 46  1  0  0  0
 25 30  2  0  0  0
 25 26  1  0  0  0
 26 27  2  0  0  0
 26 47  1  0  0  0
 27 28  1  0  0  0
 27 48  1  0  0  0
 28 29  2  0  0  0
 28 49  1  0  0  0
 29 30  1  0  0  0
 29 50  1  0  0  0
 30 51  1  0  0  0
M  CHG  1  52  -1
M  END
> <i_i_glide_confnum>
203

> <i_i_glide_lignum>
2605

> <i_i_glide_posenum>
390

> <i_i_glide_rotatable_bonds>
8

> <i_m_Source_File_Index>
4762

> <b_m_subgroup_collapsed>
0

> <r_i_docking_score>
-5.43665

> <r_i_glide_ecoul>
-2.53987

> <r_i_glide_eff_state_penalty>
0

> <r_i_glide_einternal>
6.05277

> <r_i_glide_emodel>
-54.6377

> <r_i_glide_energy>
-38.1172

> <r_i_glide_erotb>
0.698411

> <r_i_glide_esite>
-0.0178946

> <r_i_glide_evdw>
-35.5773

> <r_i_glide_gscore>
-5.43665

> <r_i_glide_hbond>
-0.209596

> <r_i_glide_ligand_efficiency>
-0.187471

> <r_i_glide_ligand_efficiency_ln>
-1.24485

> <r_i_glide_ligand_efficiency_sa>
-0.575969

> <r_i_glide_lipo>
-2.60453

> <r_i_glide_metal>
0

> <r_i_glide_rewards>
-1.1432

> <s_i_glide_gridfile>
wee1_glide-grid

> <s_m_Source_File>
wee1_decoys_glide_SP.sdf

> <s_m_Source_Path>
/Users/zhangxujun/Desktop

> <s_m_entry_id>
5037

> <s_m_entry_name>
wee1_decoys_glide_SP.4762

> <s_m_subgroup_title>
wee1_decoys_glide_SP

> <s_m_subgroupid>
wee1_decoys_glide_SP


$$$$
