@<TRIPOS>MOLECULE
ZINC16606640_3565
39   41    1
SMALL
USER_CHARGES


@<TRIPOS>ATOM
      1 C1          4.7252   53.7732   21.2491 C.3       1 UNK         0.0000 
      2 C2          3.4382   52.9594   21.2786 C.2       1 UNK         0.0000 
      3 C3          2.4189   53.0004   22.1853 C.2       1 UNK         0.0000 
      4 C4          1.1043   52.2032   21.9299 C.3       1 UNK         0.0000 
      5 H5          0.3823   52.9422   21.5844 H         1 UNK         0.0000 
      6 C6          1.3070   51.2289   20.7554 C.2       1 UNK         0.0000 
      7 C7          2.3839   51.3309   19.9519 C.2       1 UNK         0.0000 
      8 O8          3.3975   52.2020   20.1540 O.3       1 UNK         0.0000 
      9 N9          2.7043   50.5444   18.8816 N.pl3     1 UNK         0.0000 
     10 C10         0.3261   50.2205   20.5032 C.1       1 UNK         0.0000 
     11 N11        -0.4554   49.3910   20.3002 N.1       1 UNK         0.0000 
     12 C12         0.5351   51.5042   23.1703 C.2       1 UNK         0.0000 
     13 C13        -0.4652   51.9479   24.0393 C.2       1 UNK         0.0000 
     14 C14        -0.7485   51.0807   25.0995 C.2       1 UNK         0.0000 
     15 C15         0.0245   49.9364   25.0672 C.2       1 UNK         0.0000 
     16 S16         1.1040   49.9450   23.7160 S.3       1 UNK         0.0000 
     17 C17         2.4653   53.8184   23.3871 C.2       1 UNK         0.0000 
     18 O18         1.5044   54.4963   23.7495 O.2       1 UNK         0.0000 
     19 N19         3.6136   53.6967   24.0850 N.am      1 UNK         0.0000 
     20 C20         3.8846   54.0629   25.4094 C.ar      1 UNK         0.0000 
     21 C21         5.2250   54.2563   25.7495 C.ar      1 UNK         0.0000 
     22 C22         5.5785   54.4953   27.0746 C.ar      1 UNK         0.0000 
     23 C23         4.5887   54.5353   28.0535 C.ar      1 UNK         0.0000 
     24 C24         3.2507   54.3377   27.7241 C.ar      1 UNK         0.0000 
     25 C25         2.8966   54.0960   26.4019 C.ar      1 UNK         0.0000 
     26 Cl26        5.0175   54.8964   29.6815 Cl        1 UNK         0.0000 
     27 H27         4.6662   54.6772   21.8542 H         1 UNK         0.0000 
     28 H28         5.5536   53.1624   21.6028 H         1 UNK         0.0000 
     29 H29         4.9476   54.0915   20.2294 H         1 UNK         0.0000 
     30 H30         2.0528   49.8751   18.5018 H         1 UNK         0.0000 
     31 H31         3.6629   50.4966   18.5314 H         1 UNK         0.0000 
     32 H32        -0.9693   52.8941   23.9105 H         1 UNK         0.0000 
     33 H33        -1.4887   51.2804   25.8605 H         1 UNK         0.0000 
     34 H34         0.0116   49.1041   25.7598 H         1 UNK         0.0000 
     35 H35         4.3834   53.2688   23.5954 H         1 UNK         0.0000 
     36 H36         5.9970   54.2051   24.9954 H         1 UNK         0.0000 
     37 H37         6.6124   54.6507   27.3463 H         1 UNK         0.0000 
     38 H38         2.4885   54.3704   28.4886 H         1 UNK         0.0000 
     39 H39         1.8602   53.9068   26.1652 H         1 UNK         0.0000 
@<TRIPOS>BOND
     1    1    2 1    
     2    1   27 1    
     3    1   28 1    
     4    1   29 1    
     5    2    8 1    
     6    2    3 2    
     7    3    4 1    
     8    3   17 1    
     9    4    5 1    
    10    4    6 1    
    11    4   12 1    
    12    6    7 2    
    13    6   10 1    
    14    7    8 1    
    15    7    9 1    
    16    9   30 1    
    17    9   31 1    
    18   10   11 3    
    19   12   16 1    
    20   12   13 2    
    21   13   14 1    
    22   13   32 1    
    23   14   15 2    
    24   14   33 1    
    25   15   16 1    
    26   15   34 1    
    27   17   18 2    
    28   17   19 am   BACKBONE|DICT|INTERRES
    29   19   20 1    
    30   19   35 1    
    31   20   25 ar   
    32   20   21 ar   
    33   21   22 ar   
    34   21   36 1    
    35   22   23 ar   
    36   22   37 1    
    37   23   24 ar   
    38   23   26 1    
    39   24   25 ar   
    40   24   38 1    
    41   25   39 1    
@<TRIPOS>SUBSTRUCTURE
     1 UNK         1 GROUP             0       ****    0 ROOT    
