@<TRIPOS>MOLECULE
ZINC65074876_305
67   70    1
SMALL
USER_CHARGES


@<TRIPOS>ATOM
      1 C1          4.3224   53.3015   20.8686 C.3       1 UNK         0.0000 
      2 C2          3.4990   53.9196   22.0154 C.3       1 UNK         0.0000 
      3 C3          2.3481   53.0625   22.5532 C.ar      1 UNK         0.0000 
      4 C4          2.3157   51.6710   22.3931 C.ar      1 UNK         0.0000 
      5 C5          1.2547   50.9255   22.8978 C.ar      1 UNK         0.0000 
      6 C6          0.1943   51.5743   23.5321 C.ar      1 UNK         0.0000 
      7 C7          0.2110   52.9592   23.6810 C.ar      1 UNK         0.0000 
      8 C8          1.2988   53.6955   23.2241 C.ar      1 UNK         0.0000 
      9 S9         -1.1978   50.6358   24.1611 S.o2      1 UNK         0.0000 
     10 O10        -2.4058   51.3793   23.7831 O.2       1 UNK         0.0000 
     11 O11        -1.0001   49.2460   23.7320 O.2       1 UNK         0.0000 
     12 N12        -1.0306   50.6846   25.9289 N.pl3     1 UNK         0.0000 
     13 C13         0.1915   50.1063   26.5367 C.3       1 UNK         0.0000 
     14 C14         1.1294   51.1952   27.1053 C.3       1 UNK         0.0000 
     15 C15         0.4681   52.2843   27.9859 C.3       1 UNK         0.0000 
     16 C16        -0.7153   52.8294   27.1671 C.3       1 UNK         0.0000 
     17 C17        -1.7111   51.7463   26.7104 C.3       1 UNK         0.0000 
     18 C18         1.4374   53.4265   28.3490 C.2       1 UNK         0.0000 
     19 N19         1.3693   54.1019   29.5053 N.pl3     1 UNK         0.0000 
     20 C20         0.5941   53.6812   30.6679 C.3       1 UNK         0.0000 
     21 C21        -0.4302   52.6327   30.2345 C.3       1 UNK         0.0000 
     22 N22         0.1353   51.6906   29.2830 N.3       1 UNK         0.0000 
     23 N23         2.3562   53.7453   27.4301 N.pl3     1 UNK         0.0000 
     24 C24         3.5149   54.6295   27.5714 C.3       1 UNK         0.0000 
     25 C25         4.4547   54.0879   28.6819 C.3       1 UNK         0.0000 
     26 C26         5.9037   54.5967   28.6689 C.3       1 UNK         0.0000 
     27 C27         6.8547   53.8414   27.7238 C.3       1 UNK         0.0000 
     28 C28         6.6015   54.0241   26.2185 C.3       1 UNK         0.0000 
     29 C29         5.1612   53.7757   25.7502 C.3       1 UNK         0.0000 
     30 C30         4.1575   54.8534   26.1767 C.3       1 UNK         0.0000 
     31 H31         5.0609   54.0129   20.4974 H         1 UNK         0.0000 
     32 H32         3.6852   53.0277   20.0256 H         1 UNK         0.0000 
     33 H33         4.8672   52.4122   21.1897 H         1 UNK         0.0000 
     34 H34         4.1610   54.1746   22.8391 H         1 UNK         0.0000 
     35 H35         3.1039   54.8751   21.6649 H         1 UNK         0.0000 
     36 H36         3.1132   51.1503   21.8846 H         1 UNK         0.0000 
     37 H37         1.2544   49.8513   22.7753 H         1 UNK         0.0000 
     38 H38        -0.6240   53.4690   24.1382 H         1 UNK         0.0000 
     39 H39         1.3027   54.7694   23.3475 H         1 UNK         0.0000 
     40 H40        -0.0952   49.3726   27.2817 H         1 UNK         0.0000 
     41 H41         0.7175   49.5296   25.7741 H         1 UNK         0.0000 
     42 H42         1.9374   50.7287   27.6724 H         1 UNK         0.0000 
     43 H43         1.5699   51.6968   26.2435 H         1 UNK         0.0000 
     44 H44        -0.2799   53.2959   26.2918 H         1 UNK         0.0000 
     45 H45        -1.2119   53.6390   27.6811 H         1 UNK         0.0000 
     46 H46        -2.4930   52.1918   26.0971 H         1 UNK         0.0000 
     47 H47        -2.2149   51.2742   27.5539 H         1 UNK         0.0000 
     48 H48         1.2920   53.2507   31.3855 H         1 UNK         0.0000 
     49 H49         0.1183   54.5484   31.1257 H         1 UNK         0.0000 
     50 H50        -0.8093   52.0855   31.0990 H         1 UNK         0.0000 
     51 H51        -1.2956   53.1087   29.7943 H         1 UNK         0.0000 
     52 H52        -0.5133   50.9245   29.1268 H         1 UNK         0.0000 
     53 H53         2.3150   53.2230   26.5667 H         1 UNK         0.0000 
     54 H54         3.0890   55.5781   27.8988 H         1 UNK         0.0000 
     55 H55         4.0253   54.3309   29.6533 H         1 UNK         0.0000 
     56 H56         4.4830   52.9964   28.6538 H         1 UNK         0.0000 
     57 H57         5.9040   55.6638   28.4478 H         1 UNK         0.0000 
     58 H58         6.3000   54.4973   29.6793 H         1 UNK         0.0000 
     59 H59         7.8748   54.1630   27.9377 H         1 UNK         0.0000 
     60 H60         6.8273   52.7784   27.9677 H         1 UNK         0.0000 
     61 H61         6.9213   55.0195   25.9067 H         1 UNK         0.0000 
     62 H62         7.2397   53.3251   25.6809 H         1 UNK         0.0000 
     63 H63         5.1706   53.6870   24.6666 H         1 UNK         0.0000 
     64 H64         4.8127   52.8275   26.1337 H         1 UNK         0.0000 
     65 H65         3.3754   54.9295   25.4189 H         1 UNK         0.0000 
     66 H66         4.6648   55.8131   26.1254 H         1 UNK         0.0000 
     67 H67         2.0297   54.8574   29.6153 H         1 UNK         0.0000 
@<TRIPOS>BOND
     1    1    2 1    
     2    1   31 1    
     3    1   32 1    
     4    1   33 1    
     5    2    3 1    
     6    2   34 1    
     7    2   35 1    
     8    3    8 ar   
     9    3    4 ar   
    10    4    5 ar   
    11    4   36 1    
    12    5    6 ar   
    13    5   37 1    
    14    6    7 ar   
    15    6    9 1    
    16    7    8 ar   
    17    7   38 1    
    18    8   39 1    
    19    9   10 2    
    20    9   11 2    
    21    9   12 1    
    22   12   17 1    
    23   12   13 1    
    24   13   14 1    
    25   13   40 1    
    26   13   41 1    
    27   14   15 1    
    28   14   42 1    
    29   14   43 1    
    30   15   22 1    
    31   15   16 1    
    32   15   18 1    
    33   16   17 1    
    34   16   44 1    
    35   16   45 1    
    36   17   46 1    
    37   17   47 1    
    38   18   19 2    
    39   18   23 1    
    40   19   20 1    
    41   19   67 1    
    42   20   21 1    
    43   20   48 1    
    44   20   49 1    
    45   21   22 1    
    46   21   50 1    
    47   21   51 1    
    48   22   52 1    
    49   23   24 1    
    50   23   53 1    
    51   24   30 1    
    52   24   25 1    
    53   24   54 1    
    54   25   26 1    
    55   25   55 1    
    56   25   56 1    
    57   26   27 1    
    58   26   57 1    
    59   26   58 1    
    60   27   28 1    
    61   27   59 1    
    62   27   60 1    
    63   28   29 1    
    64   28   61 1    
    65   28   62 1    
    66   29   30 1    
    67   29   63 1    
    68   29   64 1    
    69   30   65 1    
    70   30   66 1    
@<TRIPOS>SUBSTRUCTURE
     1 UNK         1 GROUP             0       ****    0 ROOT    
