ZINC03840495_1264
                    3D
 Schrodinger Suite 2024-2.
 70 73  0  0  1  0            999 V2000
   -0.4126   52.8064   25.2421 C   0  0  0  0  0  0
    0.6273   52.5183   26.3635 C   0  0  2  0  0  0
    1.0396   51.5285   26.1601 H   0  0  0  0  0  0
   -0.0420   52.3938   27.7258 C   0  0  0  0  0  0
    0.4220   53.0394   28.8706 C   0  0  0  0  0  0
   -0.4853   52.4960   30.2363 S   0  0  0  0  0  0
   -1.4749   51.5813   29.1479 C   0  0  0  0  0  0
   -1.1026   51.6292   27.8968 N   0  0  0  0  0  0
   -2.5610   50.8967   29.6346 N   0  0  0  0  0  0
   -3.6307   50.3253   28.8268 C   0  0  0  0  0  0
   -4.6067   51.2967   28.2004 C   0  0  0  0  0  0
   -5.9314   51.3003   28.4201 C   0  0  0  0  0  0
    1.5432   54.0517   28.8961 C   0  0  0  0  0  0
    2.5844   53.6352   27.8224 C   0  0  1  0  0  0
    1.8528   53.5131   26.4267 C   0  0  1  0  0  0
    1.4495   54.4967   26.2429 H   0  0  0  0  0  0
    2.8956   53.2911   25.2966 C   0  0  2  0  0  0
    3.5041   52.4967   25.6521 H   0  0  0  0  0  0
    3.9438   54.4301   25.1518 C   0  0  1  0  0  0
    3.3651   55.3357   25.0098 H   0  0  0  0  0  0
    4.6486   54.5913   26.5331 C   0  0  0  0  0  0
    3.6405   54.7681   27.6984 C   0  0  0  0  0  0
    4.9364   54.2481   23.9323 C   0  0  2  0  0  0
    5.2841   53.2186   23.9580 H   0  0  0  0  0  0
    6.2232   55.1077   24.0281 C   0  0  0  0  0  0
    4.2383   54.3941   22.5507 C   0  0  0  0  0  0
    3.1045   54.8610   22.4820 O   0  0  0  0  0  0
    4.8253   53.9325   21.4353 N   0  0  0  0  0  0
    5.6588   54.8078   20.5950 C   0  0  0  0  0  0
    5.0874   54.7614   19.1544 C   0  0  0  0  0  0
    3.9889   52.5336   19.6610 C   0  0  0  0  0  0
    4.6394   52.5247   21.0596 C   0  0  0  0  0  0
    4.3257   53.2408   17.2592 C   0  0  0  0  0  0
    2.3389   52.7916   24.0939 O   0  0  0  0  0  0
    3.2652   52.3231   28.3001 C   0  0  0  0  0  0
   -0.7422   51.8774   24.7793 H   0  0  0  0  0  0
   -1.3116   53.2960   25.6195 H   0  0  0  0  0  0
   -0.0273   53.4447   24.4493 H   0  0  0  0  0  0
   -2.3561   50.2499   30.3931 H   0  0  0  0  0  0
   -4.1826   49.6440   29.4748 H   0  0  0  0  0  0
   -3.2338   49.6964   28.0320 H   0  0  0  0  0  0
   -4.1756   52.0218   27.5255 H   0  0  0  0  0  0
   -6.3938   50.5842   29.0855 H   0  0  0  0  0  0
   -6.5750   52.0203   27.9360 H   0  0  0  0  0  0
    1.1127   55.0298   28.6776 H   0  0  0  0  0  0
    1.9860   54.1395   29.8883 H   0  0  0  0  0  0
    5.2981   53.7355   26.7181 H   0  0  0  0  0  0
    5.3251   55.4438   26.5140 H   0  0  0  0  0  0
    3.0977   55.6966   27.5517 H   0  0  0  0  0  0
    4.1775   54.8937   28.6402 H   0  0  0  0  0  0
    6.8296   55.0663   23.1224 H   0  0  0  0  0  0
    6.0009   56.1518   24.2367 H   0  0  0  0  0  0
    6.8699   54.7510   24.8306 H   0  0  0  0  0  0
    5.6203   55.8386   20.9552 H   0  0  0  0  0  0
    6.7027   54.4970   20.6056 H   0  0  0  0  0  0
    5.7953   55.2159   18.4593 H   0  0  0  0  0  0
    4.1266   55.2758   19.0698 H   0  0  0  0  0  0
    3.9039   51.5136   19.2815 H   0  0  0  0  0  0
    2.9991   52.9979   19.6529 H   0  0  0  0  0  0
    5.5911   51.9975   21.0398 H   0  0  0  0  0  0
    3.9942   51.9943   21.7640 H   0  0  0  0  0  0
    3.3433   53.7167   17.2692 H   0  0  0  0  0  0
    5.0180   53.7644   16.5977 H   0  0  0  0  0  0
    4.2563   52.1861   16.9785 H   0  0  0  0  0  0
    2.1999   53.5409   23.5005 H   0  0  0  0  0  0
    4.1709   52.0970   27.7468 H   0  0  0  0  0  0
    3.5669   52.3899   29.3464 H   0  0  0  0  0  0
    2.6064   51.4587   28.2117 H   0  0  0  0  0  0
    4.9120   53.2967   18.6857 N   0  3  0  0  0  0
    5.8031   52.8149   18.6740 H   0  0  0  0  0  0
  1  2  1  0  0  0
  1 36  1  0  0  0
  1 37  1  0  0  0
  1 38  1  0  0  0
  2  3  1  0  0  0
  2 15  1  0  0  0
  2  4  1  0  0  0
  4  8  1  0  0  0
  4  5  2  0  0  0
  5  6  1  0  0  0
  5 13  1  0  0  0
  6  7  1  0  0  0
  7  8  2  0  0  0
  7  9  1  0  0  0
  9 10  1  0  0  0
  9 39  1  0  0  0
 10 11  1  0  0  0
 10 40  1  0  0  0
 10 41  1  0  0  0
 11 12  2  0  0  0
 11 42  1  0  0  0
 12 43  1  0  0  0
 12 44  1  0  0  0
 13 14  1  0  0  0
 13 45  1  0  0  0
 13 46  1  0  0  0
 14 22  1  0  0  0
 14 15  1  0  0  0
 14 35  1  0  0  0
 15 16  1  0  0  0
 15 17  1  0  0  0
 17 18  1  0  0  0
 17 19  1  0  0  0
 17 34  1  0  0  0
 19 20  1  0  0  0
 19 21  1  0  0  0
 19 23  1  0  0  0
 21 22  1  0  0  0
 21 47  1  0  0  0
 21 48  1  0  0  0
 22 49  1  0  0  0
 22 50  1  0  0  0
 23 24  1  0  0  0
 23 25  1  0  0  0
 23 26  1  0  0  0
 25 51  1  0  0  0
 25 52  1  0  0  0
 25 53  1  0  0  0
 26 27  2  0  0  0
 26 28  1  0  0  0
 28 32  1  0  0  0
 28 29  1  0  0  0
 29 30  1  0  0  0
 29 54  1  0  0  0
 29 55  1  0  0  0
 30 56  1  0  0  0
 30 57  1  0  0  0
 30 69  1  0  0  0
 31 32  1  0  0  0
 31 58  1  0  0  0
 31 59  1  0  0  0
 31 69  1  0  0  0
 32 60  1  0  0  0
 32 61  1  0  0  0
 33 62  1  0  0  0
 33 63  1  0  0  0
 33 64  1  0  0  0
 33 69  1  0  0  0
 34 65  1  0  0  0
 35 66  1  0  0  0
 35 67  1  0  0  0
 35 68  1  0  0  0
 69 70  1  0  0  0
M  CHG  1  69   1
M  END
> <i_i_glide_confnum>
135

> <i_i_glide_lignum>
1265

> <i_i_glide_posenum>
368

> <i_i_glide_rotatable_bonds>
7

> <i_m_Source_File_Index>
4025

> <b_m_subgroup_collapsed>
0

> <r_i_docking_score>
1.89244

> <r_i_glide_ecoul>
-2.92221

> <r_i_glide_eff_state_penalty>
0

> <r_i_glide_einternal>
13.2208

> <r_i_glide_emodel>
4.27952

> <r_i_glide_energy>
-20.7485

> <r_i_glide_erotb>
0.5996

> <r_i_glide_esite>
-0.171205

> <r_i_glide_evdw>
-17.8263

> <r_i_glide_gscore>
1.89244

> <r_i_glide_hbond>
-0.12294

> <r_i_glide_ligand_efficiency>
0.0610464

> <r_i_glide_ligand_efficiency_ln>
0.426803

> <r_i_glide_ligand_efficiency_sa>
0.19177

> <r_i_glide_lipo>
-2.59154

> <r_i_glide_metal>
0

> <r_i_glide_rewards>
5.50817

> <s_i_glide_gridfile>
wee1_glide-grid

> <s_m_Source_File>
wee1_decoys_glide_SP.sdf

> <s_m_Source_Path>
/Users/zhangxujun/Desktop

> <s_m_entry_id>
4300

> <s_m_entry_name>
wee1_decoys_glide_SP.4025

> <s_m_subgroup_title>
wee1_decoys_glide_SP

> <s_m_subgroupid>
wee1_decoys_glide_SP


$$$$
