@<TRIPOS>MOLECULE
ZINC08740554_4324
72   76    1
SMALL
USER_CHARGES


@<TRIPOS>ATOM
      1 C1         -2.2455   49.4174   24.8557 C.3       1 UNK         0.0000 
      2 C2         -0.9665   50.0532   24.2507 C.3       1 UNK         0.0000 
      3 C3          0.3050   49.3591   24.8345 C.3       1 UNK         0.0000 
      4 C4          0.5219   49.5586   26.3516 C.3       1 UNK         0.0000 
      5 C5          0.3046   51.0029   26.8348 C.2       1 UNK         0.0000 
      6 N6          0.7217   51.2965   28.0035 N.2       1 UNK         0.0000 
      7 O7          0.4551   52.6234   28.4071 O.3       1 UNK         0.0000 
      8 C8          0.8783   52.7873   29.7666 C.3       1 UNK         0.0000 
      9 C9          2.4108   52.8964   29.8678 C.2       1 UNK         0.0000 
     10 O10         3.0256   52.2607   30.7251 O.2       1 UNK         0.0000 
     11 N11         3.0047   53.7282   29.0000 N.am      1 UNK         0.0000 
     12 C12         4.4438   53.9546   28.8721 C.3       1 UNK         0.0000 
     13 C13         4.9166   54.2508   27.4499 C.ar      1 UNK         0.0000 
     14 C14         4.0969   54.0956   26.3203 C.ar      1 UNK         0.0000 
     15 C15         4.5879   54.4226   25.0546 C.ar      1 UNK         0.0000 
     16 C16         5.8953   54.8970   24.9492 C.ar      1 UNK         0.0000 
     17 N17         6.7044   55.0614   26.0246 N.ar      1 UNK         0.0000 
     18 C18         6.2125   54.7375   27.2471 C.ar      1 UNK         0.0000 
     19 C19        -0.3501   51.8794   25.9038 C.2       1 UNK         0.0000 
     20 C20        -0.8965   51.5251   24.7205 C.2       1 UNK         0.0000 
     21 C21        -1.4362   52.5456   23.7337 C.3       1 UNK         0.0000 
     22 C22        -0.5680   52.4894   22.4572 C.3       1 UNK         0.0000 
     23 C23        -0.1651   51.0669   21.9849 C.3       1 UNK         0.0000 
     24 H24         0.8372   50.9072   22.3825 H         1 UNK         0.0000 
     25 C25        -1.0419   49.9828   22.6711 C.3       1 UNK         0.0000 
     26 H26        -2.0661   50.1962   22.3568 H         1 UNK         0.0000 
     27 C27        -0.6996   48.5884   22.1192 C.3       1 UNK         0.0000 
     28 C28        -0.8052   48.5020   20.5924 C.3       1 UNK         0.0000 
     29 C29         0.0277   49.5608   19.8026 C.3       1 UNK         0.0000 
     30 C30        -0.0451   50.9941   20.4258 C.3       1 UNK         0.0000 
     31 H31        -0.9354   51.4875   20.0307 H         1 UNK         0.0000 
     32 C32         1.2143   51.7185   19.8844 C.3       1 UNK         0.0000 
     33 C33         2.1688   50.6443   19.3304 C.3       1 UNK         0.0000 
     34 C34         1.5814   49.2838   19.7592 C.3       1 UNK         0.0000 
     35 C35         1.9861   48.1839   18.8554 C.1       1 UNK         0.0000 
     36 C36         2.3051   47.2967   18.0803 C.1       1 UNK         0.0000 
     37 O37         2.1468   48.9569   21.0142 O.3       1 UNK         0.0000 
     38 C38        -0.6070   49.6258   18.3722 C.3       1 UNK         0.0000 
     39 H39        -2.3072   48.3525   24.6315 H         1 UNK         0.0000 
     40 H40        -2.2795   49.5116   25.9425 H         1 UNK         0.0000 
     41 H41        -3.1512   49.8839   24.4669 H         1 UNK         0.0000 
     42 H42         0.2710   48.2834   24.6546 H         1 UNK         0.0000 
     43 H43         1.1954   49.7146   24.3132 H         1 UNK         0.0000 
     44 H44         1.5095   49.2109   26.6243 H         1 UNK         0.0000 
     45 H45        -0.1365   48.8894   26.8817 H         1 UNK         0.0000 
     46 H46         0.4429   53.7040   30.1632 H         1 UNK         0.0000 
     47 H47         0.5010   51.9838   30.4032 H         1 UNK         0.0000 
     48 H48         2.4110   54.2944   28.4132 H         1 UNK         0.0000 
     49 H49         4.7051   54.8041   29.5065 H         1 UNK         0.0000 
     50 H50         5.0131   53.1031   29.2539 H         1 UNK         0.0000 
     51 H51         3.0892   53.7148   26.4090 H         1 UNK         0.0000 
     52 H52         3.9705   54.3014   24.1765 H         1 UNK         0.0000 
     53 H53         6.3152   55.1541   23.9873 H         1 UNK         0.0000 
     54 H54         6.8816   54.8897   28.0815 H         1 UNK         0.0000 
     55 H55        -0.3345   52.9263   26.1264 H         1 UNK         0.0000 
     56 H56        -2.4769   52.3048   23.5101 H         1 UNK         0.0000 
     57 H57        -1.4503   53.5607   24.1319 H         1 UNK         0.0000 
     58 H58         0.3045   53.1462   22.5059 H         1 UNK         0.0000 
     59 H59        -1.2548   52.8965   21.7166 H         1 UNK         0.0000 
     60 H60         0.3010   48.3245   22.4359 H         1 UNK         0.0000 
     61 H61        -1.3402   47.8330   22.5745 H         1 UNK         0.0000 
     62 H62        -1.8636   48.6557   20.3739 H         1 UNK         0.0000 
     63 H63        -0.5882   47.4945   20.2357 H         1 UNK         0.0000 
     64 H64         1.6892   52.3627   20.6259 H         1 UNK         0.0000 
     65 H65         0.9312   52.3828   19.0657 H         1 UNK         0.0000 
     66 H66         3.1986   50.7892   19.6648 H         1 UNK         0.0000 
     67 H67         2.2042   50.7326   18.2414 H         1 UNK         0.0000 
     68 H68         2.6206   46.5636   17.3737 H         1 UNK         0.0000 
     69 H69         2.0547   49.7230   21.5821 H         1 UNK         0.0000 
     70 H70        -1.6444   49.9603   18.4032 H         1 UNK         0.0000 
     71 H71        -0.0772   50.3125   17.7121 H         1 UNK         0.0000 
     72 H72        -0.6066   48.6511   17.8830 H         1 UNK         0.0000 
@<TRIPOS>BOND
     1    1    2 1    
     2    1   39 1    
     3    1   40 1    
     4    1   41 1    
     5    2   20 1    
     6    2   25 1    
     7    2    3 1    
     8    3    4 1    
     9    3   42 1    
    10    3   43 1    
    11    4    5 1    
    12    4   44 1    
    13    4   45 1    
    14    5    6 2    
    15    5   19 1    
    16    6    7 1    
    17    7    8 1    
    18    8    9 1    
    19    8   46 1    
    20    8   47 1    
    21    9   10 2    
    22    9   11 am   BACKBONE|DICT|INTERRES
    23   11   12 1    
    24   11   48 1    
    25   12   13 1    
    26   12   49 1    
    27   12   50 1    
    28   13   18 ar   
    29   13   14 ar   
    30   14   15 ar   
    31   14   51 1    
    32   15   16 ar   
    33   15   52 1    
    34   16   17 ar   
    35   16   53 1    
    36   17   18 ar   
    37   18   54 1    
    38   19   20 2    
    39   19   55 1    
    40   20   21 1    
    41   21   22 1    
    42   21   56 1    
    43   21   57 1    
    44   22   23 1    
    45   22   58 1    
    46   22   59 1    
    47   23   24 1    
    48   23   30 1    
    49   23   25 1    
    50   25   26 1    
    51   25   27 1    
    52   27   28 1    
    53   27   60 1    
    54   27   61 1    
    55   28   29 1    
    56   28   62 1    
    57   28   63 1    
    58   29   34 1    
    59   29   30 1    
    60   29   38 1    
    61   30   31 1    
    62   30   32 1    
    63   32   33 1    
    64   32   64 1    
    65   32   65 1    
    66   33   34 1    
    67   33   66 1    
    68   33   67 1    
    69   34   35 1    
    70   34   37 1    
    71   35   36 3    
    72   36   68 1    
    73   37   69 1    
    74   38   70 1    
    75   38   71 1    
    76   38   72 1    
@<TRIPOS>SUBSTRUCTURE
     1 UNK         1 GROUP             0       ****    0 ROOT    
