ZINC12782472_2658
                    3D
 Schrodinger Suite 2024-2.
 55 57  0  0  1  0            999 V2000
    6.8823   55.3000   24.8477 C   0  0  0  0  0  0
    5.6427   54.6756   24.2218 C   0  0  0  0  0  0
    5.4453   54.4967   22.8257 C   0  0  0  0  0  0
    6.3036   54.8967   21.6922 C   0  0  0  0  0  0
    7.3665   55.5102   21.6810 O   0  0  0  0  0  0
    5.7570   54.5095   20.5004 N   0  0  0  0  0  0
    6.3224   54.7483   19.7025 H   0  0  0  0  0  0
    4.5583   53.8665   20.2882 C   0  0  0  0  0  0
    3.7832   53.5678   21.2705 N   0  0  0  0  0  0
    4.2161   53.9055   22.5181 C   0  0  0  0  0  0
    3.2151   53.6967   23.8970 S   0  0  0  0  0  0
    4.4978   54.2664   24.9457 C   0  0  0  0  0  0
    4.2734   54.2797   26.4023 C   0  0  0  0  0  0
    4.9894   54.8962   27.1879 O   0  0  0  0  0  0
    3.2050   53.5084   26.7568 O   0  0  0  0  0  0
    2.7354   53.2997   28.1032 C   0  0  2  0  0  0
    2.2713   54.2241   28.4497 H   0  0  0  0  0  0
    3.8439   52.9018   29.1206 C   0  0  0  0  0  0
    1.5752   52.2623   28.0777 C   0  0  0  0  0  0
    1.2351   51.6971   29.1169 O   0  0  0  0  0  0
    0.9693   52.0198   26.8983 N   0  0  0  0  0  0
   -0.0417   50.9886   26.6129 C   0  0  1  0  0  0
    0.3713   50.0664   27.0272 H   0  0  0  0  0  0
   -1.4353   51.2114   27.2536 C   0  0  0  0  0  0
   -2.1925   52.3946   26.6190 C   0  0  0  0  0  0
   -2.2800   52.2589   25.0853 C   0  0  0  0  0  0
   -0.8974   52.0175   24.4292 C   0  0  1  0  0  0
   -0.2746   52.8838   24.6637 H   0  0  0  0  0  0
   -0.2278   50.7633   25.0798 C   0  0  1  0  0  0
   -0.9569   49.9547   24.9766 H   0  0  0  0  0  0
    1.0496   50.2684   24.3654 C   0  0  0  0  0  0
   -1.0129   51.9489   22.8930 C   0  0  0  0  0  0
    4.1687   53.5139   18.8704 C   0  0  0  0  0  0
    7.5014   55.8588   24.1495 H   0  0  0  0  0  0
    6.6209   56.0192   25.6224 H   0  0  0  0  0  0
    7.5031   54.5449   25.3269 H   0  0  0  0  0  0
    3.4340   52.5770   30.0776 H   0  0  0  0  0  0
    4.4644   52.0961   28.7361 H   0  0  0  0  0  0
    4.5021   53.7392   29.3492 H   0  0  0  0  0  0
    1.3415   52.5040   26.0963 H   0  0  0  0  0  0
   -1.3375   51.3579   28.3300 H   0  0  0  0  0  0
   -2.0329   50.3054   27.1419 H   0  0  0  0  0  0
   -1.6845   53.3180   26.8802 H   0  0  0  0  0  0
   -3.1949   52.4702   27.0429 H   0  0  0  0  0  0
   -2.7425   53.1514   24.6604 H   0  0  0  0  0  0
   -2.9569   51.4436   24.8232 H   0  0  0  0  0  0
    1.8060   51.0513   24.3073 H   0  0  0  0  0  0
    0.8383   49.9406   23.3483 H   0  0  0  0  0  0
    1.4857   49.4121   24.8820 H   0  0  0  0  0  0
   -1.5489   51.0553   22.5735 H   0  0  0  0  0  0
   -1.5478   52.8145   22.5002 H   0  0  0  0  0  0
   -0.0308   51.9414   22.4171 H   0  0  0  0  0  0
    3.1748   53.8966   18.6363 H   0  0  0  0  0  0
    4.8640   53.9233   18.1353 H   0  0  0  0  0  0
    4.1462   52.4309   18.7376 H   0  0  0  0  0  0
  1  2  1  0  0  0
  1 34  1  0  0  0
  1 35  1  0  0  0
  1 36  1  0  0  0
  2 12  2  0  0  0
  2  3  1  0  0  0
  3 10  2  0  0  0
  3  4  1  0  0  0
  4  5  2  0  0  0
  4  6  1  0  0  0
  6  7  1  0  0  0
  6  8  1  0  0  0
  8  9  2  0  0  0
  8 33  1  0  0  0
  9 10  1  0  0  0
 10 11  1  0  0  0
 11 12  1  0  0  0
 12 13  1  0  0  0
 13 14  2  0  0  0
 13 15  1  0  0  0
 15 16  1  0  0  0
 16 17  1  0  0  0
 16 18  1  0  0  0
 16 19  1  0  0  0
 18 37  1  0  0  0
 18 38  1  0  0  0
 18 39  1  0  0  0
 19 20  2  0  0  0
 19 21  1  0  0  0
 21 22  1  0  0  0
 21 40  1  0  0  0
 22 23  1  0  0  0
 22 29  1  0  0  0
 22 24  1  0  0  0
 24 25  1  0  0  0
 24 41  1  0  0  0
 24 42  1  0  0  0
 25 26  1  0  0  0
 25 43  1  0  0  0
 25 44  1  0  0  0
 26 27  1  0  0  0
 26 45  1  0  0  0
 26 46  1  0  0  0
 27 28  1  0  0  0
 27 29  1  0  0  0
 27 32  1  0  0  0
 29 30  1  0  0  0
 29 31  1  0  0  0
 31 47  1  0  0  0
 31 48  1  0  0  0
 31 49  1  0  0  0
 32 50  1  0  0  0
 32 51  1  0  0  0
 32 52  1  0  0  0
 33 53  1  0  0  0
 33 54  1  0  0  0
 33 55  1  0  0  0
M  END
> <i_i_glide_confnum>
20

> <i_i_glide_lignum>
2659

> <i_i_glide_posenum>
380

> <i_i_glide_rotatable_bonds>
6

> <i_m_Source_File_Index>
6075

> <b_m_subgroup_collapsed>
0

> <r_i_docking_score>
-4.94681

> <r_i_glide_ecoul>
-1.44273

> <r_i_glide_eff_state_penalty>
0

> <r_i_glide_einternal>
3.96573

> <r_i_glide_emodel>
-53.2596

> <r_i_glide_energy>
-42.6529

> <r_i_glide_erotb>
0.717104

> <r_i_glide_esite>
0

> <r_i_glide_evdw>
-41.2102

> <r_i_glide_gscore>
-4.94681

> <r_i_glide_hbond>
0

> <r_i_glide_ligand_efficiency>
-0.176672

> <r_i_glide_ligand_efficiency_ln>
-1.14187

> <r_i_glide_ligand_efficiency_sa>
-0.53648

> <r_i_glide_lipo>
-1.99947

> <r_i_glide_metal>
0

> <r_i_glide_rewards>
-1.38753

> <s_i_glide_gridfile>
wee1_glide-grid

> <s_m_Source_File>
wee1_decoys_glide_SP.sdf

> <s_m_Source_Path>
/Users/zhangxujun/Desktop

> <s_m_entry_id>
6350

> <s_m_entry_name>
wee1_decoys_glide_SP.6075

> <s_m_subgroup_title>
wee1_decoys_glide_SP

> <s_m_subgroupid>
wee1_decoys_glide_SP


$$$$
