@<TRIPOS>MOLECULE
ZINC45866103_4908
66   69    1
SMALL
USER_CHARGES


@<TRIPOS>ATOM
      1 C1          5.4844   54.1169   28.2100 C.3       1 UNK         0.0000 
      2 C2          5.3910   54.2244   26.6983 C.ar      1 UNK         0.0000 
      3 C3          4.1585   54.0986   26.0577 C.ar      1 UNK         0.0000 
      4 C4          4.0854   54.1735   24.6688 C.ar      1 UNK         0.0000 
      5 C5          5.2411   54.3822   23.9099 C.ar      1 UNK         0.0000 
      6 C6          6.4807   54.4990   24.5590 C.ar      1 UNK         0.0000 
      7 C7          6.5494   54.4202   25.9482 C.ar      1 UNK         0.0000 
      8 N8          5.0572   54.4558   22.5132 N.am      1 UNK         0.0000 
      9 C9          5.9046   54.8966   21.5590 C.2       1 UNK         0.0000 
     10 O10         7.0497   55.2967   21.7650 O.2       1 UNK         0.0000 
     11 C11         5.3404   54.8836   20.1258 C.3       1 UNK         0.0000 
     12 C12         6.2314   55.5031   19.0011 C.3       1 UNK         0.0000 
     13 H13         7.2595   55.2132   19.2333 H         1 UNK         0.0000 
     14 C14         6.3115   57.0668   19.0981 C.2       1 UNK         0.0000 
     15 O15         6.7044   57.6863   20.0807 O.2       1 UNK         0.0000 
     16 N16         5.8730   57.7175   18.0071 N.am      1 UNK         0.0000 
     17 C17         5.0818   57.1820   16.9985 C.ar      1 UNK         0.0000 
     18 C18         4.2579   58.0294   16.2557 C.ar      1 UNK         0.0000 
     19 C19         3.3854   57.4903   15.3128 C.ar      1 UNK         0.0000 
     20 C20         3.3234   56.1088   15.1293 C.ar      1 UNK         0.0000 
     21 C21         4.1511   55.2647   15.8713 C.ar      1 UNK         0.0000 
     22 C22         5.0854   55.7963   16.7761 C.ar      1 UNK         0.0000 
     23 N23         5.8806   54.9942   17.6370 N.am      1 UNK         0.0000 
     24 C24         6.5401   53.8648   17.2422 C.2       1 UNK         0.0000 
     25 O25         7.1046   53.1368   18.0607 O.2       1 UNK         0.0000 
     26 C26         6.6619   53.4725   15.7515 C.3       1 UNK         0.0000 
     27 N27         8.0039   52.8170   15.5383 N.4       1 UNK         0.0000 
     28 C28         9.1364   53.8768   15.4731 C.3       1 UNK         0.0000 
     29 C29         7.9804   51.7696   14.3881 C.3       1 UNK         0.0000 
     30 C30         7.9545   52.4442   12.9921 C.3       1 UNK         0.0000 
     31 C31         8.0605   51.4175   11.8471 C.3       1 UNK         0.0000 
     32 C32         9.2783   50.4892   12.0231 C.3       1 UNK         0.0000 
     33 C33         9.2809   49.7863   13.3959 C.3       1 UNK         0.0000 
     34 C34         9.1719   50.7928   14.5571 C.3       1 UNK         0.0000 
     35 H35         6.3687   53.5457   28.4962 H         1 UNK         0.0000 
     36 H36         4.6240   53.5960   28.6304 H         1 UNK         0.0000 
     37 H37         5.5614   55.1060   28.6622 H         1 UNK         0.0000 
     38 H38         3.2577   53.9360   26.6312 H         1 UNK         0.0000 
     39 H39         3.1214   54.0745   24.1906 H         1 UNK         0.0000 
     40 H40         7.4023   54.6351   24.0145 H         1 UNK         0.0000 
     41 H41         7.5039   54.4965   26.4438 H         1 UNK         0.0000 
     42 H42         4.1370   54.1906   22.1965 H         1 UNK         0.0000 
     43 H43         5.2028   53.8261   19.8954 H         1 UNK         0.0000 
     44 H44         4.3341   55.2964   20.0800 H         1 UNK         0.0000 
     45 H45         5.9174   58.7244   18.0888 H         1 UNK         0.0000 
     46 H46         4.2695   59.0996   16.4230 H         1 UNK         0.0000 
     47 H47         2.7384   58.1450   14.7469 H         1 UNK         0.0000 
     48 H48         2.6206   55.6901   14.4239 H         1 UNK         0.0000 
     49 H49         4.0496   54.1974   15.7432 H         1 UNK         0.0000 
     50 H50         5.9141   52.7039   15.5542 H         1 UNK         0.0000 
     51 H51         6.5400   54.2823   15.0317 H         1 UNK         0.0000 
     52 H52         8.9277   54.5564   14.6469 H         1 UNK         0.0000 
     53 H53         9.1419   54.4170   16.4209 H         1 UNK         0.0000 
     54 H54        10.0900   53.3694   15.3393 H         1 UNK         0.0000 
     55 H55         7.0826   51.1544   14.4842 H         1 UNK         0.0000 
     56 H56         7.0809   53.0889   12.8872 H         1 UNK         0.0000 
     57 H57         8.8029   53.1213   12.8956 H         1 UNK         0.0000 
     58 H58         7.1476   50.8204   11.8059 H         1 UNK         0.0000 
     59 H59         8.1263   51.9361   10.8882 H         1 UNK         0.0000 
     60 H60         9.3092   49.7458   11.2258 H         1 UNK         0.0000 
     61 H61        10.1984   51.0656   11.9127 H         1 UNK         0.0000 
     62 H62         8.4574   49.0722   13.4501 H         1 UNK         0.0000 
     63 H63        10.1979   49.2043   13.5016 H         1 UNK         0.0000 
     64 H64        10.1091   51.3477   14.5757 H         1 UNK         0.0000 
     65 H65         9.1335   50.2974   15.5285 H         1 UNK         0.0000 
     66 H66         8.1525   52.2640   16.3765 H         1 UNK         0.0000 
@<TRIPOS>BOND
     1    1    2 1    
     2    1   35 1    
     3    1   36 1    
     4    1   37 1    
     5    2    7 ar   
     6    2    3 ar   
     7    3    4 ar   
     8    3   38 1    
     9    4    5 ar   
    10    4   39 1    
    11    5    6 ar   
    12    5    8 1    
    13    6    7 ar   
    14    6   40 1    
    15    7   41 1    
    16    8    9 am   BACKBONE|DICT|INTERRES
    17    8   42 1    
    18    9   10 2    
    19    9   11 1    
    20   11   12 1    
    21   11   43 1    
    22   11   44 1    
    23   12   13 1    
    24   12   23 1    
    25   12   14 1    
    26   14   15 2    
    27   14   16 am   BACKBONE|DICT|INTERRES
    28   16   17 1    
    29   16   45 1    
    30   17   22 ar   
    31   17   18 ar   
    32   18   19 ar   
    33   18   46 1    
    34   19   20 ar   
    35   19   47 1    
    36   20   21 ar   
    37   20   48 1    
    38   21   22 ar   
    39   21   49 1    
    40   22   23 1    
    41   23   24 am   BACKBONE|DICT|INTERRES
    42   24   25 2    
    43   24   26 1    
    44   26   27 1    
    45   26   50 1    
    46   26   51 1    
    47   27   28 1    
    48   27   29 1    
    49   27   66 1    
    50   28   52 1    
    51   28   53 1    
    52   28   54 1    
    53   29   34 1    
    54   29   30 1    
    55   29   55 1    
    56   30   31 1    
    57   30   56 1    
    58   30   57 1    
    59   31   32 1    
    60   31   58 1    
    61   31   59 1    
    62   32   33 1    
    63   32   60 1    
    64   32   61 1    
    65   33   34 1    
    66   33   62 1    
    67   33   63 1    
    68   34   64 1    
    69   34   65 1    
@<TRIPOS>SUBSTRUCTURE
     1 UNK         1 GROUP             0       ****    0 ROOT    
