@<TRIPOS>MOLECULE
ZINC40820496_1792
41   44    1
SMALL
USER_CHARGES


@<TRIPOS>ATOM
      1 C1          0.1232   53.4533   30.6553 C.ar      1 UNK         0.0000 
      2 C2         -0.0924   52.5138   29.6509 C.ar      1 UNK         0.0000 
      3 C3          0.6251   52.6845   28.4619 C.ar      1 UNK         0.0000 
      4 C4          1.5760   53.7404   28.2721 C.ar      1 UNK         0.0000 
      5 C5          1.7399   54.6705   29.3157 C.ar      1 UNK         0.0000 
      6 C6          0.9925   54.5245   30.4815 C.ar      1 UNK         0.0000 
      7 F7          2.6153   55.6961   29.2044 F         1 UNK         0.0000 
      8 C8          2.1918   53.5596   26.9747 C.ar      1 UNK         0.0000 
      9 C9          1.5045   52.4968   26.4114 C.ar      1 UNK         0.0000 
     10 N10         0.6067   51.9597   27.2963 N.pl3     1 UNK         0.0000 
     11 H11         0.0395   51.1478   27.0873 H         1 UNK         0.0000 
     12 C12         3.3438   54.3855   26.3837 C.3       1 UNK         0.0000 
     13 H13         3.1076   55.4367   26.5395 H         1 UNK         0.0000 
     14 C14         4.6627   54.0800   27.1024 C.3       1 UNK         0.0000 
     15 C15         5.7314   54.4975   26.1142 C.3       1 UNK         0.0000 
     16 C16         5.1600   54.0980   24.7576 C.3       1 UNK         0.0000 
     17 N17         3.7021   54.1701   24.9567 N.am      1 UNK         0.0000 
     18 C18         2.8025   54.1499   23.9326 C.2       1 UNK         0.0000 
     19 O19         1.6264   54.4855   24.0755 O.2       1 UNK         0.0000 
     20 C20         3.2103   53.5498   22.6088 C.ar      1 UNK         0.0000 
     21 C21         4.2114   54.0965   21.7936 C.ar      1 UNK         0.0000 
     22 C22         4.5283   53.4866   20.5762 C.ar      1 UNK         0.0000 
     23 C23         3.8339   52.3313   20.2102 C.ar      1 UNK         0.0000 
     24 N24         2.8530   51.7887   20.9741 N.ar      1 UNK         0.0000 
     25 C25         2.5499   52.4043   22.1433 C.ar      1 UNK         0.0000 
     26 N26         5.5055   54.0181   19.7374 N.pl3     1 UNK         0.0000 
     27 H27        -0.4124   53.3472   31.5896 H         1 UNK         0.0000 
     28 H28        -0.7866   51.6971   29.7923 H         1 UNK         0.0000 
     29 H29         1.1045   55.2449   31.2778 H         1 UNK         0.0000 
     30 H30         1.6147   52.0404   25.4379 H         1 UNK         0.0000 
     31 H31         4.7588   53.0105   27.3050 H         1 UNK         0.0000 
     32 H32         4.7563   54.6177   28.0460 H         1 UNK         0.0000 
     33 H33         6.7025   54.0397   26.3074 H         1 UNK         0.0000 
     34 H34         5.8707   55.5797   26.1575 H         1 UNK         0.0000 
     35 H35         5.4773   53.0888   24.5049 H         1 UNK         0.0000 
     36 H36         5.5234   54.8158   24.0219 H         1 UNK         0.0000 
     37 H37         4.7257   55.0013   22.0787 H         1 UNK         0.0000 
     38 H38         4.0491   51.8221   19.2819 H         1 UNK         0.0000 
     39 H39         1.7591   51.9465   22.7192 H         1 UNK         0.0000 
     40 H40         5.9593   54.8885   19.9754 H         1 UNK         0.0000 
     41 H41         5.6843   53.5677   18.8494 H         1 UNK         0.0000 
@<TRIPOS>BOND
     1    1    6 ar   
     2    1    2 ar   
     3    1   27 1    
     4    2    3 ar   
     5    2   28 1    
     6    3   10 ar   
     7    3    4 ar   
     8    4    5 ar   
     9    4    8 ar   
    10    5    6 ar   
    11    5    7 1    
    12    6   29 1    
    13    8    9 ar   
    14    8   12 1    
    15    9   10 ar   
    16    9   30 1    
    17   10   11 1    
    18   12   13 1    
    19   12   17 1    
    20   12   14 1    
    21   14   15 1    
    22   14   31 1    
    23   14   32 1    
    24   15   16 1    
    25   15   33 1    
    26   15   34 1    
    27   16   17 1    
    28   16   35 1    
    29   16   36 1    
    30   17   18 am   BACKBONE|DICT|INTERRES
    31   18   19 2    
    32   18   20 1    
    33   20   25 ar   
    34   20   21 ar   
    35   21   22 ar   
    36   21   37 1    
    37   22   23 ar   
    38   22   26 1    
    39   23   24 ar   
    40   23   38 1    
    41   24   25 ar   
    42   25   39 1    
    43   26   40 1    
    44   26   41 1    
@<TRIPOS>SUBSTRUCTURE
     1 UNK         1 GROUP             0       ****    0 ROOT    
