@<TRIPOS>MOLECULE
ZINC48743648_6201
52   53    1
SMALL
USER_CHARGES


@<TRIPOS>ATOM
      1 C1          2.0687   53.6494   25.1900 C.3       1 UNK         0.0000 
      2 C2          2.9699   53.6965   26.4137 C.ar      1 UNK         0.0000 
      3 C3          2.4253   53.2810   27.6328 C.ar      1 UNK         0.0000 
      4 C4          3.2017   53.2565   28.7959 C.ar      1 UNK         0.0000 
      5 C5          4.5164   53.7229   28.7269 C.ar      1 UNK         0.0000 
      6 C6          5.0778   54.1312   27.5186 C.ar      1 UNK         0.0000 
      7 C7          4.3197   54.0961   26.3379 C.ar      1 UNK         0.0000 
      8 N8          4.8428   54.3875   25.0585 N.am      1 UNK         0.0000 
      9 C9          6.1077   54.6728   24.6508 C.2       1 UNK         0.0000 
     10 O10         7.0602   54.8949   25.4027 O.2       1 UNK         0.0000 
     11 C11         6.2657   54.7587   23.1585 C.2       1 UNK         0.0000 
     12 O12         7.1036   55.4972   22.6396 O.2       1 UNK         0.0000 
     13 N13         5.4156   54.0014   22.4218 N.am      1 UNK         0.0000 
     14 C14         5.2689   54.0794   20.9622 C.3       1 UNK         0.0000 
     15 C15         4.8224   52.7416   20.3015 C.3       1 UNK         0.0000 
     16 H16         5.6536   52.0359   20.3233 H         1 UNK         0.0000 
     17 C17         3.5636   52.0740   20.8546 C.2       1 UNK         0.0000 
     18 C18         3.1041   50.7767   20.6172 C.2       1 UNK         0.0000 
     19 C19         1.9219   50.4369   21.2775 C.2       1 UNK         0.0000 
     20 C20         1.4152   51.4866   22.0168 C.2       1 UNK         0.0000 
     21 S21         2.4073   52.8940   21.8748 S.3       1 UNK         0.0000 
     22 N22         4.6276   52.8970   18.7684 N.4       1 UNK         0.0000 
     23 C23         3.4064   53.7378   18.3253 C.3       1 UNK         0.0000 
     24 C24         5.9018   53.3092   17.9989 C.3       1 UNK         0.0000 
     25 C25         2.6756   52.6913   30.0922 C.2       1 UNK         0.0000 
     26 O26         3.4402   52.1345   30.8831 O.2       1 UNK         0.0000 
     27 N27         1.3652   52.8600   30.3361 N.am      1 UNK         0.0000 
     28 C28         0.6796   52.4086   31.5456 C.3       1 UNK         0.0000 
     29 H29         1.0158   53.6965   25.4621 H         1 UNK         0.0000 
     30 H30         2.2470   54.4938   24.5235 H         1 UNK         0.0000 
     31 H31         2.2417   52.7171   24.6556 H         1 UNK         0.0000 
     32 H32         1.4045   52.9249   27.6552 H         1 UNK         0.0000 
     33 H33         5.1091   53.7537   29.6247 H         1 UNK         0.0000 
     34 H34         6.1084   54.4488   27.5306 H         1 UNK         0.0000 
     35 H35         4.1522   54.3169   24.3298 H         1 UNK         0.0000 
     36 H36         4.7754   53.3784   22.8901 H         1 UNK         0.0000 
     37 H37         6.2180   54.3937   20.5243 H         1 UNK         0.0000 
     38 H38         4.5589   54.8747   20.7335 H         1 UNK         0.0000 
     39 H39         3.6195   50.0885   19.9650 H         1 UNK         0.0000 
     40 H40         1.4534   49.4660   21.2047 H         1 UNK         0.0000 
     41 H41         0.5170   51.5053   22.6167 H         1 UNK         0.0000 
     42 H42         3.5654   54.7703   18.6381 H         1 UNK         0.0000 
     43 H43         3.3342   53.6630   17.2395 H         1 UNK         0.0000 
     44 H44         2.5116   53.3187   18.7859 H         1 UNK         0.0000 
     45 H45         6.1315   54.3518   18.2230 H         1 UNK         0.0000 
     46 H46         6.7020   52.6365   18.3081 H         1 UNK         0.0000 
     47 H47         5.6918   53.1702   16.9368 H         1 UNK         0.0000 
     48 H48         0.8051   53.3469   29.6542 H         1 UNK         0.0000 
     49 H49        -0.2521   51.9093   31.2776 H         1 UNK         0.0000 
     50 H50         1.2690   51.7053   32.1377 H         1 UNK         0.0000 
     51 H51         0.4295   53.2584   32.1817 H         1 UNK         0.0000 
     52 H52         4.4730   51.9358   18.4593 H         1 UNK         0.0000 
@<TRIPOS>BOND
     1    1    2 1    
     2    1   29 1    
     3    1   30 1    
     4    1   31 1    
     5    2    7 ar   
     6    2    3 ar   
     7    3    4 ar   
     8    3   32 1    
     9    4    5 ar   
    10    4   25 1    
    11    5    6 ar   
    12    5   33 1    
    13    6    7 ar   
    14    6   34 1    
    15    7    8 1    
    16    8    9 am   BACKBONE|DICT|INTERRES
    17    8   35 1    
    18    9   10 2    
    19    9   11 1    
    20   11   12 2    
    21   11   13 am   BACKBONE|DICT|INTERRES
    22   13   14 1    
    23   13   36 1    
    24   14   15 1    
    25   14   37 1    
    26   14   38 1    
    27   15   16 1    
    28   15   17 1    
    29   15   22 1    
    30   17   21 1    
    31   17   18 2    
    32   18   19 1    
    33   18   39 1    
    34   19   20 2    
    35   19   40 1    
    36   20   21 1    
    37   20   41 1    
    38   22   23 1    
    39   22   24 1    
    40   22   52 1    
    41   23   42 1    
    42   23   43 1    
    43   23   44 1    
    44   24   45 1    
    45   24   46 1    
    46   24   47 1    
    47   25   26 2    
    48   25   27 am   BACKBONE|DICT|INTERRES
    49   27   28 1    
    50   27   48 1    
    51   28   49 1    
    52   28   50 1    
    53   28   51 1    
@<TRIPOS>SUBSTRUCTURE
     1 UNK         1 GROUP             0       ****    0 ROOT    
