@<TRIPOS>MOLECULE
ZINC44790296_6165
44   45    1
SMALL
USER_CHARGES


@<TRIPOS>ATOM
      1 C1         -0.4963   51.7019   30.0346 C.3       1 UNK         0.0000 
      2 C2          0.2705   52.8085   29.3070 C.3       1 UNK         0.0000 
      3 H3         -0.0461   53.7591   29.7428 H         1 UNK         0.0000 
      4 C4         -0.0441   52.8181   27.7903 C.3       1 UNK         0.0000 
      5 C5          0.4028   51.5621   27.0060 C.3       1 UNK         0.0000 
      6 C6          0.2757   51.7078   25.4734 C.3       1 UNK         0.0000 
      7 C7          1.2626   52.6236   24.7544 C.2       1 UNK         0.0000 
      8 C8          2.2970   53.2977   25.2991 C.2       1 UNK         0.0000 
      9 C9          3.2714   54.2047   24.5445 C.3       1 UNK         0.0000 
     10 H10         2.7526   55.1631   24.4801 H         1 UNK         0.0000 
     11 C11         3.4939   53.7340   23.0925 C.3       1 UNK         0.0000 
     12 C12         4.9224   54.1014   22.7300 C.3       1 UNK         0.0000 
     13 H13         4.8622   55.0881   22.2745 H         1 UNK         0.0000 
     14 C14         5.7067   54.2525   24.0343 C.3       1 UNK         0.0000 
     15 C15         4.6870   54.5389   25.1616 C.3       1 UNK         0.0000 
     16 H16         4.6837   55.6245   25.2811 H         1 UNK         0.0000 
     17 C17         5.1435   53.9703   26.5501 C.3       1 UNK         0.0000 
     18 H18         5.2753   52.8922   26.4759 H         1 UNK         0.0000 
     19 C19         4.2072   54.2792   27.7035 C.2       1 UNK         0.0000 
     20 C20         3.6661   53.3600   28.5310 C.2       1 UNK         0.0000 
     21 C21         2.5105   53.6919   29.3460 C.2       1 UNK         0.0000 
     22 O22         2.2716   54.8244   29.7694 O.2       1 UNK         0.0000 
     23 O23         1.6808   52.6350   29.4842 O.3       1 UNK         0.0000 
     24 O24         6.3926   54.5515   26.8851 O.3       1 UNK         0.0000 
     25 O25         5.5041   53.3125   21.7256 O.3       1 UNK         0.0000 
     26 H26        -0.3308   51.7417   31.1114 H         1 UNK         0.0000 
     27 H27        -1.5691   51.7599   29.8572 H         1 UNK         0.0000 
     28 H28        -0.1760   50.7314   29.6787 H         1 UNK         0.0000 
     29 H29        -1.1120   52.9666   27.6356 H         1 UNK         0.0000 
     30 H30         0.4369   53.6920   27.3615 H         1 UNK         0.0000 
     31 H31         1.4275   51.2909   27.2641 H         1 UNK         0.0000 
     32 H32        -0.2067   50.7127   27.3216 H         1 UNK         0.0000 
     33 H33         0.4199   50.7222   25.0291 H         1 UNK         0.0000 
     34 H34        -0.7418   51.9995   25.2126 H         1 UNK         0.0000 
     35 H35         1.0809   52.7193   23.6935 H         1 UNK         0.0000 
     36 H36         2.4393   53.1920   26.3514 H         1 UNK         0.0000 
     37 H37         3.4267   52.6472   23.0267 H         1 UNK         0.0000 
     38 H38         2.7721   54.1527   22.3876 H         1 UNK         0.0000 
     39 H39         6.1901   53.2965   24.2143 H         1 UNK         0.0000 
     40 H40         6.4922   55.0046   23.9546 H         1 UNK         0.0000 
     41 H41         3.8561   55.2972   27.7383 H         1 UNK         0.0000 
     42 H42         3.9286   52.3141   28.4525 H         1 UNK         0.0000 
     43 H43         6.6354   54.2628   27.7696 H         1 UNK         0.0000 
     44 H44         4.9739   53.3891   20.9273 H         1 UNK         0.0000 
@<TRIPOS>BOND
     1    1    2 1    
     2    1   26 1    
     3    1   27 1    
     4    1   28 1    
     5    2    3 1    
     6    2   23 1    
     7    2    4 1    
     8    4    5 1    
     9    4   29 1    
    10    4   30 1    
    11    5    6 1    
    12    5   31 1    
    13    5   32 1    
    14    6    7 1    
    15    6   33 1    
    16    6   34 1    
    17    7    8 2    
    18    7   35 1    
    19    8    9 1    
    20    8   36 1    
    21    9   10 1    
    22    9   15 1    
    23    9   11 1    
    24   11   12 1    
    25   11   37 1    
    26   11   38 1    
    27   12   13 1    
    28   12   14 1    
    29   12   25 1    
    30   14   15 1    
    31   14   39 1    
    32   14   40 1    
    33   15   16 1    
    34   15   17 1    
    35   17   18 1    
    36   17   19 1    
    37   17   24 1    
    38   19   20 2    
    39   19   41 1    
    40   20   21 1    
    41   20   42 1    
    42   21   22 2    
    43   21   23 1    
    44   24   43 1    
    45   25   44 1    
@<TRIPOS>SUBSTRUCTURE
     1 UNK         1 GROUP             0       ****    0 ROOT    
