@<TRIPOS>MOLECULE
ZINC08905665_3356
56   60    1
SMALL
USER_CHARGES


@<TRIPOS>ATOM
      1 C1          0.5471   54.8965   31.2824 C.3       1 UNK         0.0000 
      2 C2          1.0566   54.0612   30.1317 C.ar      1 UNK         0.0000 
      3 C3          0.3687   52.9133   29.7388 C.ar      1 UNK         0.0000 
      4 C4          0.8577   52.1380   28.6907 C.ar      1 UNK         0.0000 
      5 C5          2.0457   52.4972   28.0537 C.ar      1 UNK         0.0000 
      6 C6          2.7684   53.6326   28.4537 C.ar      1 UNK         0.0000 
      7 C7          2.2309   54.4289   29.4777 C.ar      1 UNK         0.0000 
      8 N8          4.0258   53.9269   27.8591 N.am      1 UNK         0.0000 
      9 C9          4.3704   53.5586   26.4813 C.3       1 UNK         0.0000 
     10 C10         5.8618   53.8427   26.3128 C.3       1 UNK         0.0000 
     11 H11         6.3945   52.8986   26.1913 H         1 UNK         0.0000 
     12 C12         6.2787   54.5271   27.6041 C.3       1 UNK         0.0000 
     13 C13         5.0720   54.4928   28.5243 C.2       1 UNK         0.0000 
     14 O14         5.1044   54.8966   29.6816 O.2       1 UNK         0.0000 
     15 C15         6.1760   54.6376   25.0223 C.2       1 UNK         0.0000 
     16 O16         6.8003   55.6965   25.0897 O.2       1 UNK         0.0000 
     17 N17         5.7533   54.0851   23.8627 N.am      1 UNK         0.0000 
     18 C18         6.0137   54.5553   22.5829 C.2       1 UNK         0.0000 
     19 N19         6.9068   55.4517   22.2271 N.2       1 UNK         0.0000 
     20 N20         6.9355   55.6608   20.8560 N.2       1 UNK         0.0000 
     21 C21         6.0981   54.8968   20.1960 C.2       1 UNK         0.0000 
     22 S22         5.1042   53.9108   21.2498 S.3       1 UNK         0.0000 
     23 S23         6.0120   54.8922   18.4303 S.3       1 UNK         0.0000 
     24 C24         5.1949   53.2965   18.0689 C.3       1 UNK         0.0000 
     25 C25         3.6652   53.3726   18.0449 C.2       1 UNK         0.0000 
     26 O26         3.1057   54.3951   17.6434 O.2       1 UNK         0.0000 
     27 N27         3.0136   52.2835   18.5021 N.am      1 UNK         0.0000 
     28 C28         1.6272   52.1981   18.6990 C.ar      1 UNK         0.0000 
     29 C29         0.7067   52.5963   17.7031 C.ar      1 UNK         0.0000 
     30 C30        -0.6740   52.5551   17.9427 C.ar      1 UNK         0.0000 
     31 C31        -1.0969   52.0969   19.1853 C.ar      1 UNK         0.0000 
     32 C32        -0.2098   51.6925   20.1445 C.ar      1 UNK         0.0000 
     33 C33         1.1659   51.7215   19.9365 C.ar      1 UNK         0.0000 
     34 O34        -0.8942   51.3474   21.2672 O.3       1 UNK         0.0000 
     35 C35        -2.2403   51.2984   20.8779 C.3       1 UNK         0.0000 
     36 O36        -2.3607   52.0246   19.6828 O.3       1 UNK         0.0000 
     37 H37        -0.4956   55.1378   31.1200 H         1 UNK         0.0000 
     38 H38         0.6146   54.3338   32.2141 H         1 UNK         0.0000 
     39 H39         1.0950   55.8346   31.3914 H         1 UNK         0.0000 
     40 H40        -0.5362   52.6137   30.2493 H         1 UNK         0.0000 
     41 H41         0.3274   51.2454   28.3885 H         1 UNK         0.0000 
     42 H42         2.4090   51.8456   27.2788 H         1 UNK         0.0000 
     43 H43         2.7300   55.3344   29.7879 H         1 UNK         0.0000 
     44 H44         3.7472   54.1427   25.8015 H         1 UNK         0.0000 
     45 H45         4.1850   52.4969   26.3492 H         1 UNK         0.0000 
     46 H46         7.0780   53.9691   28.0934 H         1 UNK         0.0000 
     47 H47         6.6374   55.5524   27.5105 H         1 UNK         0.0000 
     48 H48         5.1633   53.2704   23.9251 H         1 UNK         0.0000 
     49 H49         5.5560   52.5122   18.7382 H         1 UNK         0.0000 
     50 H50         5.5032   52.9926   17.0692 H         1 UNK         0.0000 
     51 H51         3.5748   51.4830   18.7685 H         1 UNK         0.0000 
     52 H52         1.0640   52.9587   16.7503 H         1 UNK         0.0000 
     53 H53        -1.3724   52.8831   17.1877 H         1 UNK         0.0000 
     54 H54         1.8550   51.4221   20.7119 H         1 UNK         0.0000 
     55 H55        -2.5228   50.2586   20.6974 H         1 UNK         0.0000 
     56 H56        -2.8883   51.6963   21.6596 H         1 UNK         0.0000 
@<TRIPOS>BOND
     1    1    2 1    
     2    1   37 1    
     3    1   38 1    
     4    1   39 1    
     5    2    7 ar   
     6    2    3 ar   
     7    3    4 ar   
     8    3   40 1    
     9    4    5 ar   
    10    4   41 1    
    11    5    6 ar   
    12    5   42 1    
    13    6    7 ar   
    14    6    8 1    
    15    7   43 1    
    16    8   13 am   BACKBONE|DICT|INTERRES
    17    8    9 1    
    18    9   10 1    
    19    9   44 1    
    20    9   45 1    
    21   10   11 1    
    22   10   12 1    
    23   10   15 1    
    24   12   13 1    
    25   12   46 1    
    26   12   47 1    
    27   13   14 2    
    28   15   16 2    
    29   15   17 am   BACKBONE|DICT|INTERRES
    30   17   18 am   BACKBONE|DICT|INTERRES
    31   17   48 1    
    32   18   22 1    
    33   18   19 2    
    34   19   20 1    
    35   20   21 2    
    36   21   22 1    
    37   21   23 1    
    38   23   24 1    
    39   24   25 1    
    40   24   49 1    
    41   24   50 1    
    42   25   26 2    
    43   25   27 am   BACKBONE|DICT|INTERRES
    44   27   28 1    
    45   27   51 1    
    46   28   33 ar   
    47   28   29 ar   
    48   29   30 ar   
    49   29   52 1    
    50   30   31 ar   
    51   30   53 1    
    52   31   36 1    
    53   31   32 ar   
    54   32   33 ar   
    55   32   34 1    
    56   33   54 1    
    57   34   35 1    
    58   35   36 1    
    59   35   55 1    
    60   35   56 1    
@<TRIPOS>SUBSTRUCTURE
     1 UNK         1 GROUP             0       ****    0 ROOT    
